#       Name:                GA Fitting Points
#       Creating user name   hitesit
#       Creation time:       Sun Apr 16 02:23:21 2023


#       Fitting Points Used by GA Software.
#

@<TRIPOS>MOLECULE
GA Fitting Points
  2962    0    0
SMALL
NO_CHARGES


@<TRIPOS>ATOM
      1 ****       -46.7500   8.2500 -30.0000 Du        
      2 ****       -46.5000   8.2500 -30.5000 Du        
      3 ****       -46.5000   8.2500 -30.2500 Du        
      4 ****       -46.5000   8.5000 -30.7500 Du        
      5 ****       -46.5000   8.5000 -30.5000 Du        
      6 ****       -46.5000   8.5000 -30.2500 Du        
      7 ****       -46.5000   8.5000 -30.0000 Du        
      8 ****       -46.5000   8.7500 -31.0000 Du        
      9 ****       -46.5000   8.7500 -30.7500 Du        
     10 ****       -46.5000   8.7500 -30.5000 Du        
     11 ****       -46.5000   8.7500 -30.2500 Du        
     12 ****       -46.5000   8.7500 -30.0000 Du        
     13 ****       -46.5000   8.7500 -29.7500 Du        
     14 ****       -46.5000   9.0000 -30.5000 Du        
     15 ****       -46.5000   9.0000 -30.2500 Du        
     16 ****       -46.5000   9.0000 -30.0000 Du        
     17 ****       -46.5000   9.0000 -29.7500 Du        
     18 ****       -46.5000   9.0000 -29.5000 Du        
     19 ****       -46.5000   9.2500 -30.5000 Du        
     20 ****       -46.5000   9.2500 -30.2500 Du        
     21 ****       -46.5000   9.2500 -30.0000 Du        
     22 ****       -46.5000   9.2500 -29.7500 Du        
     23 ****       -46.5000   9.2500 -29.5000 Du        
     24 ****       -46.5000   9.2500 -29.2500 Du        
     25 ****       -46.5000   9.5000 -29.5000 Du        
     26 ****       -46.5000   9.5000 -29.2500 Du        
     27 ****       -46.5000   9.7500 -29.5000 Du        
     28 ****       -46.5000   9.7500 -29.2500 Du        
     29 ****       -46.2500   4.5000 -24.2500 Du        
     30 ****       -46.2500   4.7500 -24.5000 Du        
     31 ****       -46.2500   4.7500 -24.2500 Du        
     32 ****       -46.2500   8.2500 -30.7500 Du        
     33 ****       -46.2500   8.2500 -30.5000 Du        
     34 ****       -46.2500   8.2500 -30.2500 Du        
     35 ****       -46.2500   8.5000 -31.0000 Du        
     36 ****       -46.2500   8.5000 -30.7500 Du        
     37 ****       -46.2500   8.5000 -30.5000 Du        
     38 ****       -46.2500   8.5000 -30.2500 Du        
     39 ****       -46.2500   8.5000 -30.0000 Du        
     40 ****       -46.2500   8.7500 -31.0000 Du        
     41 ****       -46.2500   8.7500 -30.7500 Du        
     42 ****       -46.2500   8.7500 -30.5000 Du        
     43 ****       -46.2500   8.7500 -30.2500 Du        
     44 ****       -46.2500   8.7500 -30.0000 Du        
     45 ****       -46.2500   9.0000 -30.5000 Du        
     46 ****       -46.2500   9.0000 -30.2500 Du        
     47 ****       -46.2500   9.0000 -30.0000 Du        
     48 ****       -46.2500   9.0000 -29.7500 Du        
     49 ****       -46.2500   9.2500 -30.5000 Du        
     50 ****       -46.2500   9.2500 -30.2500 Du        
     51 ****       -46.2500   9.2500 -30.0000 Du        
     52 ****       -46.2500   9.2500 -29.7500 Du        
     53 ****       -46.2500   9.5000 -29.5000 Du        
     54 ****       -46.0000   4.5000 -24.5000 Du        
     55 ****       -46.0000   4.5000 -24.2500 Du        
     56 ****       -46.0000   4.5000 -24.0000 Du        
     57 ****       -46.0000   4.7500 -24.5000 Du        
     58 ****       -46.0000   4.7500 -24.2500 Du        
     59 ****       -46.0000   4.7500 -24.0000 Du        
     60 ****       -46.0000   5.0000 -24.2500 Du        
     61 ****       -46.0000   5.0000 -24.0000 Du        
     62 ****       -46.0000   5.0000 -23.7500 Du        
     63 ****       -46.0000   8.2500 -31.2500 Du        
     64 ****       -46.0000   8.2500 -31.0000 Du        
     65 ****       -46.0000   8.2500 -30.7500 Du        
     66 ****       -46.0000   8.2500 -30.5000 Du        
     67 ****       -46.0000   8.5000 -31.5000 Du        
     68 ****       -46.0000   8.5000 -31.2500 Du        
     69 ****       -46.0000   8.5000 -31.0000 Du        
     70 ****       -46.0000   8.5000 -30.7500 Du        
     71 ****       -46.0000   8.5000 -30.5000 Du        
     72 ****       -46.0000   8.5000 -30.2500 Du        
     73 ****       -46.0000   8.7500 -31.7500 Du        
     74 ****       -46.0000   8.7500 -31.5000 Du        
     75 ****       -46.0000   8.7500 -31.2500 Du        
     76 ****       -46.0000   8.7500 -31.0000 Du        
     77 ****       -46.0000   8.7500 -30.7500 Du        
     78 ****       -46.0000   8.7500 -30.5000 Du        
     79 ****       -46.0000   8.7500 -30.2500 Du        
     80 ****       -46.0000   8.7500 -30.0000 Du        
     81 ****       -46.0000   9.0000 -31.5000 Du        
     82 ****       -46.0000   9.0000 -31.2500 Du        
     83 ****       -46.0000   9.0000 -31.0000 Du        
     84 ****       -46.0000   9.0000 -30.7500 Du        
     85 ****       -46.0000   9.0000 -30.5000 Du        
     86 ****       -46.0000   9.0000 -30.2500 Du        
     87 ****       -46.0000   9.0000 -30.0000 Du        
     88 ****       -46.0000   9.2500 -31.5000 Du        
     89 ****       -46.0000   9.2500 -31.2500 Du        
     90 ****       -46.0000   9.2500 -31.0000 Du        
     91 ****       -46.0000   9.2500 -30.7500 Du        
     92 ****       -46.0000   9.2500 -30.5000 Du        
     93 ****       -46.0000   9.2500 -30.2500 Du        
     94 ****       -46.0000   9.2500 -30.0000 Du        
     95 ****       -46.0000   9.5000 -31.0000 Du        
     96 ****       -46.0000   9.5000 -30.7500 Du        
     97 ****       -46.0000   9.5000 -30.5000 Du        
     98 ****       -46.0000   9.5000 -30.2500 Du        
     99 ****       -46.0000   9.5000 -30.0000 Du        
    100 ****       -46.0000   9.7500 -31.0000 Du        
    101 ****       -46.0000   9.7500 -30.7500 Du        
    102 ****       -46.0000   9.7500 -30.5000 Du        
    103 ****       -46.0000   9.7500 -30.2500 Du        
    104 ****       -46.0000  10.0000 -30.5000 Du        
    105 ****       -46.0000  10.0000 -30.2500 Du        
    106 ****       -46.0000  10.2500 -30.5000 Du        
    107 ****       -45.7500   4.2500 -24.2500 Du        
    108 ****       -45.7500   4.2500 -24.0000 Du        
    109 ****       -45.7500   4.5000 -24.5000 Du        
    110 ****       -45.7500   4.5000 -24.2500 Du        
    111 ****       -45.7500   4.5000 -24.0000 Du        
    112 ****       -45.7500   4.5000 -23.7500 Du        
    113 ****       -45.7500   4.5000 -23.5000 Du        
    114 ****       -45.7500   4.7500 -24.5000 Du        
    115 ****       -45.7500   4.7500 -24.2500 Du        
    116 ****       -45.7500   4.7500 -24.0000 Du        
    117 ****       -45.7500   4.7500 -23.7500 Du        
    118 ****       -45.7500   4.7500 -23.5000 Du        
    119 ****       -45.7500   5.0000 -24.5000 Du        
    120 ****       -45.7500   5.0000 -24.2500 Du        
    121 ****       -45.7500   5.0000 -24.0000 Du        
    122 ****       -45.7500   5.0000 -23.7500 Du        
    123 ****       -45.7500   5.0000 -23.5000 Du        
    124 ****       -45.7500   5.2500 -23.7500 Du        
    125 ****       -45.7500   5.2500 -23.5000 Du        
    126 ****       -45.7500   5.2500 -23.2500 Du        
    127 ****       -45.7500   8.0000 -31.0000 Du        
    128 ****       -45.7500   8.0000 -30.7500 Du        
    129 ****       -45.7500   8.2500 -31.2500 Du        
    130 ****       -45.7500   8.2500 -31.0000 Du        
    131 ****       -45.7500   8.2500 -30.7500 Du        
    132 ****       -45.7500   8.2500 -30.5000 Du        
    133 ****       -45.7500   8.5000 -31.7500 Du        
    134 ****       -45.7500   8.5000 -31.5000 Du        
    135 ****       -45.7500   8.5000 -31.2500 Du        
    136 ****       -45.7500   8.5000 -31.0000 Du        
    137 ****       -45.7500   8.5000 -30.7500 Du        
    138 ****       -45.7500   8.5000 -30.5000 Du        
    139 ****       -45.7500   8.5000 -30.2500 Du        
    140 ****       -45.7500   8.7500 -31.7500 Du        
    141 ****       -45.7500   8.7500 -31.5000 Du        
    142 ****       -45.7500   8.7500 -31.2500 Du        
    143 ****       -45.7500   8.7500 -31.0000 Du        
    144 ****       -45.7500   8.7500 -30.7500 Du        
    145 ****       -45.7500   8.7500 -30.5000 Du        
    146 ****       -45.7500   8.7500 -30.2500 Du        
    147 ****       -45.7500   9.0000 -31.5000 Du        
    148 ****       -45.7500   9.0000 -31.2500 Du        
    149 ****       -45.7500   9.0000 -31.0000 Du        
    150 ****       -45.7500   9.0000 -30.7500 Du        
    151 ****       -45.7500   9.0000 -30.5000 Du        
    152 ****       -45.7500   9.0000 -30.2500 Du        
    153 ****       -45.7500   9.2500 -31.5000 Du        
    154 ****       -45.7500   9.2500 -31.2500 Du        
    155 ****       -45.7500   9.2500 -31.0000 Du        
    156 ****       -45.7500   9.2500 -30.7500 Du        
    157 ****       -45.7500   9.2500 -30.5000 Du        
    158 ****       -45.7500   9.2500 -30.2500 Du        
    159 ****       -45.7500   9.5000 -31.0000 Du        
    160 ****       -45.7500   9.5000 -30.7500 Du        
    161 ****       -45.7500   9.5000 -30.5000 Du        
    162 ****       -45.7500   9.5000 -30.2500 Du        
    163 ****       -45.7500   9.7500 -31.0000 Du        
    164 ****       -45.7500   9.7500 -30.7500 Du        
    165 ****       -45.7500   9.7500 -30.5000 Du        
    166 ****       -45.5000   4.0000 -24.5000 Du        
    167 ****       -45.5000   4.0000 -24.2500 Du        
    168 ****       -45.5000   4.0000 -24.0000 Du        
    169 ****       -45.5000   4.0000 -23.7500 Du        
    170 ****       -45.5000   4.0000 -23.5000 Du        
    171 ****       -45.5000   4.2500 -25.0000 Du        
    172 ****       -45.5000   4.2500 -24.7500 Du        
    173 ****       -45.5000   4.2500 -24.5000 Du        
    174 ****       -45.5000   4.2500 -24.2500 Du        
    175 ****       -45.5000   4.2500 -24.0000 Du        
    176 ****       -45.5000   4.2500 -23.7500 Du        
    177 ****       -45.5000   4.2500 -23.5000 Du        
    178 ****       -45.5000   4.2500 -23.2500 Du        
    179 ****       -45.5000   4.5000 -25.0000 Du        
    180 ****       -45.5000   4.5000 -24.7500 Du        
    181 ****       -45.5000   4.5000 -24.5000 Du        
    182 ****       -45.5000   4.5000 -24.2500 Du        
    183 ****       -45.5000   4.5000 -24.0000 Du        
    184 ****       -45.5000   4.5000 -23.7500 Du        
    185 ****       -45.5000   4.5000 -23.5000 Du        
    186 ****       -45.5000   4.5000 -23.2500 Du        
    187 ****       -45.5000   4.7500 -25.0000 Du        
    188 ****       -45.5000   4.7500 -24.7500 Du        
    189 ****       -45.5000   4.7500 -24.5000 Du        
    190 ****       -45.5000   4.7500 -24.2500 Du        
    191 ****       -45.5000   4.7500 -24.0000 Du        
    192 ****       -45.5000   4.7500 -23.7500 Du        
    193 ****       -45.5000   4.7500 -23.5000 Du        
    194 ****       -45.5000   4.7500 -23.2500 Du        
    195 ****       -45.5000   4.7500 -23.0000 Du        
    196 ****       -45.5000   5.0000 -24.5000 Du        
    197 ****       -45.5000   5.0000 -24.2500 Du        
    198 ****       -45.5000   5.0000 -24.0000 Du        
    199 ****       -45.5000   5.0000 -23.7500 Du        
    200 ****       -45.5000   5.0000 -23.5000 Du        
    201 ****       -45.5000   5.0000 -23.2500 Du        
    202 ****       -45.5000   5.0000 -23.0000 Du        
    203 ****       -45.5000   5.2500 -24.0000 Du        
    204 ****       -45.5000   5.2500 -23.7500 Du        
    205 ****       -45.5000   5.2500 -23.5000 Du        
    206 ****       -45.5000   5.2500 -23.2500 Du        
    207 ****       -45.5000   5.2500 -23.0000 Du        
    208 ****       -45.5000   5.5000 -23.2500 Du        
    209 ****       -45.5000   5.5000 -23.0000 Du        
    210 ****       -45.5000   7.7500 -31.2500 Du        
    211 ****       -45.5000   7.7500 -31.0000 Du        
    212 ****       -45.5000   7.7500 -30.7500 Du        
    213 ****       -45.5000   8.0000 -31.5000 Du        
    214 ****       -45.5000   8.0000 -31.2500 Du        
    215 ****       -45.5000   8.0000 -31.0000 Du        
    216 ****       -45.5000   8.0000 -30.7500 Du        
    217 ****       -45.5000   8.0000 -30.5000 Du        
    218 ****       -45.5000   8.2500 -31.5000 Du        
    219 ****       -45.5000   8.2500 -31.2500 Du        
    220 ****       -45.5000   8.2500 -31.0000 Du        
    221 ****       -45.5000   8.2500 -30.7500 Du        
    222 ****       -45.5000   8.2500 -30.5000 Du        
    223 ****       -45.5000   8.5000 -31.7500 Du        
    224 ****       -45.5000   8.5000 -31.5000 Du        
    225 ****       -45.5000   8.5000 -31.2500 Du        
    226 ****       -45.5000   8.5000 -31.0000 Du        
    227 ****       -45.5000   8.5000 -30.7500 Du        
    228 ****       -45.5000   8.5000 -30.5000 Du        
    229 ****       -45.5000   8.7500 -31.7500 Du        
    230 ****       -45.5000   8.7500 -31.5000 Du        
    231 ****       -45.5000   8.7500 -31.2500 Du        
    232 ****       -45.5000   8.7500 -31.0000 Du        
    233 ****       -45.5000   8.7500 -30.7500 Du        
    234 ****       -45.5000   8.7500 -30.5000 Du        
    235 ****       -45.5000   8.7500 -30.2500 Du        
    236 ****       -45.5000   9.0000 -31.5000 Du        
    237 ****       -45.5000   9.0000 -31.2500 Du        
    238 ****       -45.5000   9.0000 -31.0000 Du        
    239 ****       -45.5000   9.0000 -30.7500 Du        
    240 ****       -45.5000   9.0000 -30.5000 Du        
    241 ****       -45.5000   9.0000 -30.2500 Du        
    242 ****       -45.5000   9.2500 -31.5000 Du        
    243 ****       -45.5000   9.2500 -31.2500 Du        
    244 ****       -45.5000   9.2500 -31.0000 Du        
    245 ****       -45.5000   9.2500 -30.7500 Du        
    246 ****       -45.5000   9.2500 -30.5000 Du        
    247 ****       -45.5000   9.5000 -31.5000 Du        
    248 ****       -45.5000   9.5000 -31.2500 Du        
    249 ****       -45.5000   9.5000 -31.0000 Du        
    250 ****       -45.5000   9.5000 -30.7500 Du        
    251 ****       -45.5000   9.5000 -30.5000 Du        
    252 ****       -45.5000   9.7500 -31.5000 Du        
    253 ****       -45.5000   9.7500 -31.2500 Du        
    254 ****       -45.5000   9.7500 -31.0000 Du        
    255 ****       -45.5000   9.7500 -30.7500 Du        
    256 ****       -45.5000  10.0000 -31.5000 Du        
    257 ****       -45.5000  10.0000 -31.2500 Du        
    258 ****       -45.5000  10.0000 -31.0000 Du        
    259 ****       -45.5000  10.2500 -31.5000 Du        
    260 ****       -45.5000  10.2500 -31.2500 Du        
    261 ****       -45.5000  10.2500 -31.0000 Du        
    262 ****       -45.2500   3.5000 -24.0000 Du        
    263 ****       -45.2500   3.7500 -24.2500 Du        
    264 ****       -45.2500   3.7500 -24.0000 Du        
    265 ****       -45.2500   3.7500 -23.7500 Du        
    266 ****       -45.2500   3.7500 -23.5000 Du        
    267 ****       -45.2500   3.7500 -23.2500 Du        
    268 ****       -45.2500   4.0000 -24.7500 Du        
    269 ****       -45.2500   4.0000 -24.5000 Du        
    270 ****       -45.2500   4.0000 -24.2500 Du        
    271 ****       -45.2500   4.0000 -24.0000 Du        
    272 ****       -45.2500   4.0000 -23.7500 Du        
    273 ****       -45.2500   4.0000 -23.5000 Du        
    274 ****       -45.2500   4.0000 -23.2500 Du        
    275 ****       -45.2500   4.0000 -23.0000 Du        
    276 ****       -45.2500   4.2500 -25.0000 Du        
    277 ****       -45.2500   4.2500 -24.7500 Du        
    278 ****       -45.2500   4.2500 -24.5000 Du        
    279 ****       -45.2500   4.2500 -24.2500 Du        
    280 ****       -45.2500   4.2500 -24.0000 Du        
    281 ****       -45.2500   4.2500 -23.7500 Du        
    282 ****       -45.2500   4.2500 -23.5000 Du        
    283 ****       -45.2500   4.2500 -23.2500 Du        
    284 ****       -45.2500   4.2500 -23.0000 Du        
    285 ****       -45.2500   4.2500 -22.7500 Du        
    286 ****       -45.2500   4.5000 -25.2500 Du        
    287 ****       -45.2500   4.5000 -25.0000 Du        
    288 ****       -45.2500   4.5000 -24.7500 Du        
    289 ****       -45.2500   4.5000 -24.5000 Du        
    290 ****       -45.2500   4.5000 -24.2500 Du        
    291 ****       -45.2500   4.5000 -24.0000 Du        
    292 ****       -45.2500   4.5000 -23.7500 Du        
    293 ****       -45.2500   4.5000 -23.5000 Du        
    294 ****       -45.2500   4.5000 -23.2500 Du        
    295 ****       -45.2500   4.5000 -23.0000 Du        
    296 ****       -45.2500   4.5000 -22.7500 Du        
    297 ****       -45.2500   4.7500 -25.0000 Du        
    298 ****       -45.2500   4.7500 -24.7500 Du        
    299 ****       -45.2500   4.7500 -24.5000 Du        
    300 ****       -45.2500   4.7500 -24.2500 Du        
    301 ****       -45.2500   4.7500 -24.0000 Du        
    302 ****       -45.2500   4.7500 -23.7500 Du        
    303 ****       -45.2500   4.7500 -23.5000 Du        
    304 ****       -45.2500   4.7500 -23.2500 Du        
    305 ****       -45.2500   4.7500 -23.0000 Du        
    306 ****       -45.2500   4.7500 -22.7500 Du        
    307 ****       -45.2500   4.7500 -22.5000 Du        
    308 ****       -45.2500   5.0000 -24.5000 Du        
    309 ****       -45.2500   5.0000 -24.2500 Du        
    310 ****       -45.2500   5.0000 -24.0000 Du        
    311 ****       -45.2500   5.0000 -23.7500 Du        
    312 ****       -45.2500   5.0000 -23.5000 Du        
    313 ****       -45.2500   5.0000 -23.2500 Du        
    314 ****       -45.2500   5.0000 -23.0000 Du        
    315 ****       -45.2500   5.0000 -22.7500 Du        
    316 ****       -45.2500   5.0000 -22.5000 Du        
    317 ****       -45.2500   5.2500 -23.7500 Du        
    318 ****       -45.2500   5.2500 -23.5000 Du        
    319 ****       -45.2500   5.2500 -23.2500 Du        
    320 ****       -45.2500   5.2500 -23.0000 Du        
    321 ****       -45.2500   5.2500 -22.7500 Du        
    322 ****       -45.2500   5.2500 -22.5000 Du        
    323 ****       -45.2500   5.5000 -23.5000 Du        
    324 ****       -45.2500   5.5000 -23.2500 Du        
    325 ****       -45.2500   5.5000 -23.0000 Du        
    326 ****       -45.2500   5.5000 -22.7500 Du        
    327 ****       -45.2500   5.5000 -22.5000 Du        
    328 ****       -45.2500   7.2500 -31.2500 Du        
    329 ****       -45.2500   7.2500 -31.0000 Du        
    330 ****       -45.2500   7.5000 -31.5000 Du        
    331 ****       -45.2500   7.5000 -31.2500 Du        
    332 ****       -45.2500   7.5000 -31.0000 Du        
    333 ****       -45.2500   7.5000 -30.7500 Du        
    334 ****       -45.2500   7.7500 -31.5000 Du        
    335 ****       -45.2500   7.7500 -31.2500 Du        
    336 ****       -45.2500   7.7500 -31.0000 Du        
    337 ****       -45.2500   7.7500 -30.7500 Du        
    338 ****       -45.2500   8.0000 -31.5000 Du        
    339 ****       -45.2500   8.0000 -31.2500 Du        
    340 ****       -45.2500   8.0000 -31.0000 Du        
    341 ****       -45.2500   8.0000 -30.7500 Du        
    342 ****       -45.2500   8.0000 -30.5000 Du        
    343 ****       -45.2500   8.2500 -31.5000 Du        
    344 ****       -45.2500   8.2500 -31.2500 Du        
    345 ****       -45.2500   8.2500 -31.0000 Du        
    346 ****       -45.2500   8.2500 -30.7500 Du        
    347 ****       -45.2500   8.2500 -30.5000 Du        
    348 ****       -45.2500   8.5000 -31.5000 Du        
    349 ****       -45.2500   8.5000 -31.2500 Du        
    350 ****       -45.2500   8.5000 -31.0000 Du        
    351 ****       -45.2500   8.5000 -30.7500 Du        
    352 ****       -45.2500   8.5000 -30.5000 Du        
    353 ****       -45.2500   8.7500 -31.5000 Du        
    354 ****       -45.2500   8.7500 -31.2500 Du        
    355 ****       -45.2500   8.7500 -31.0000 Du        
    356 ****       -45.2500   8.7500 -30.7500 Du        
    357 ****       -45.2500   8.7500 -30.5000 Du        
    358 ****       -45.2500   9.0000 -31.5000 Du        
    359 ****       -45.2500   9.0000 -31.2500 Du        
    360 ****       -45.2500   9.0000 -31.0000 Du        
    361 ****       -45.2500   9.0000 -30.7500 Du        
    362 ****       -45.2500   9.0000 -30.5000 Du        
    363 ****       -45.2500   9.2500 -31.5000 Du        
    364 ****       -45.2500   9.2500 -31.2500 Du        
    365 ****       -45.2500   9.2500 -31.0000 Du        
    366 ****       -45.2500   9.2500 -30.7500 Du        
    367 ****       -45.2500   9.2500 -30.5000 Du        
    368 ****       -45.2500   9.5000 -31.5000 Du        
    369 ****       -45.2500   9.5000 -31.2500 Du        
    370 ****       -45.2500   9.5000 -31.0000 Du        
    371 ****       -45.2500   9.5000 -30.7500 Du        
    372 ****       -45.2500   9.7500 -31.5000 Du        
    373 ****       -45.2500   9.7500 -31.2500 Du        
    374 ****       -45.2500   9.7500 -31.0000 Du        
    375 ****       -45.2500  10.0000 -31.2500 Du        
    376 ****       -45.2500  10.0000 -31.0000 Du        
    377 ****       -45.2500  10.2500 -31.2500 Du        
    378 ****       -45.0000   3.5000 -24.2500 Du        
    379 ****       -45.0000   3.5000 -24.0000 Du        
    380 ****       -45.0000   3.5000 -23.7500 Du        
    381 ****       -45.0000   3.5000 -23.5000 Du        
    382 ****       -45.0000   3.5000 -23.2500 Du        
    383 ****       -45.0000   3.5000 -23.0000 Du        
    384 ****       -45.0000   3.5000 -22.7500 Du        
    385 ****       -45.0000   3.7500 -24.7500 Du        
    386 ****       -45.0000   3.7500 -24.5000 Du        
    387 ****       -45.0000   3.7500 -24.2500 Du        
    388 ****       -45.0000   3.7500 -24.0000 Du        
    389 ****       -45.0000   3.7500 -23.7500 Du        
    390 ****       -45.0000   3.7500 -23.5000 Du        
    391 ****       -45.0000   3.7500 -23.2500 Du        
    392 ****       -45.0000   3.7500 -23.0000 Du        
    393 ****       -45.0000   3.7500 -22.7500 Du        
    394 ****       -45.0000   4.0000 -25.2500 Du        
    395 ****       -45.0000   4.0000 -25.0000 Du        
    396 ****       -45.0000   4.0000 -24.7500 Du        
    397 ****       -45.0000   4.0000 -24.5000 Du        
    398 ****       -45.0000   4.0000 -24.2500 Du        
    399 ****       -45.0000   4.0000 -24.0000 Du        
    400 ****       -45.0000   4.0000 -23.7500 Du        
    401 ****       -45.0000   4.0000 -23.5000 Du        
    402 ****       -45.0000   4.0000 -23.2500 Du        
    403 ****       -45.0000   4.0000 -23.0000 Du        
    404 ****       -45.0000   4.0000 -22.7500 Du        
    405 ****       -45.0000   4.0000 -22.5000 Du        
    406 ****       -45.0000   4.2500 -25.2500 Du        
    407 ****       -45.0000   4.2500 -25.0000 Du        
    408 ****       -45.0000   4.2500 -24.7500 Du        
    409 ****       -45.0000   4.2500 -24.5000 Du        
    410 ****       -45.0000   4.2500 -24.2500 Du        
    411 ****       -45.0000   4.2500 -24.0000 Du        
    412 ****       -45.0000   4.2500 -23.7500 Du        
    413 ****       -45.0000   4.2500 -23.5000 Du        
    414 ****       -45.0000   4.2500 -23.2500 Du        
    415 ****       -45.0000   4.2500 -23.0000 Du        
    416 ****       -45.0000   4.2500 -22.7500 Du        
    417 ****       -45.0000   4.2500 -22.5000 Du        
    418 ****       -45.0000   4.5000 -25.5000 Du        
    419 ****       -45.0000   4.5000 -25.2500 Du        
    420 ****       -45.0000   4.5000 -25.0000 Du        
    421 ****       -45.0000   4.5000 -24.7500 Du        
    422 ****       -45.0000   4.5000 -24.5000 Du        
    423 ****       -45.0000   4.5000 -24.2500 Du        
    424 ****       -45.0000   4.5000 -24.0000 Du        
    425 ****       -45.0000   4.5000 -23.7500 Du        
    426 ****       -45.0000   4.5000 -23.5000 Du        
    427 ****       -45.0000   4.5000 -23.2500 Du        
    428 ****       -45.0000   4.5000 -23.0000 Du        
    429 ****       -45.0000   4.5000 -22.7500 Du        
    430 ****       -45.0000   4.5000 -22.5000 Du        
    431 ****       -45.0000   4.5000 -22.2500 Du        
    432 ****       -45.0000   4.7500 -25.0000 Du        
    433 ****       -45.0000   4.7500 -24.7500 Du        
    434 ****       -45.0000   4.7500 -24.5000 Du        
    435 ****       -45.0000   4.7500 -24.2500 Du        
    436 ****       -45.0000   4.7500 -24.0000 Du        
    437 ****       -45.0000   4.7500 -23.7500 Du        
    438 ****       -45.0000   4.7500 -23.5000 Du        
    439 ****       -45.0000   4.7500 -23.2500 Du        
    440 ****       -45.0000   4.7500 -23.0000 Du        
    441 ****       -45.0000   4.7500 -22.7500 Du        
    442 ****       -45.0000   4.7500 -22.5000 Du        
    443 ****       -45.0000   4.7500 -22.2500 Du        
    444 ****       -45.0000   5.0000 -24.2500 Du        
    445 ****       -45.0000   5.0000 -24.0000 Du        
    446 ****       -45.0000   5.0000 -23.7500 Du        
    447 ****       -45.0000   5.0000 -23.5000 Du        
    448 ****       -45.0000   5.0000 -23.2500 Du        
    449 ****       -45.0000   5.0000 -23.0000 Du        
    450 ****       -45.0000   5.0000 -22.7500 Du        
    451 ****       -45.0000   5.0000 -22.5000 Du        
    452 ****       -45.0000   5.0000 -22.2500 Du        
    453 ****       -45.0000   5.2500 -23.7500 Du        
    454 ****       -45.0000   5.2500 -23.5000 Du        
    455 ****       -45.0000   5.2500 -23.2500 Du        
    456 ****       -45.0000   5.2500 -23.0000 Du        
    457 ****       -45.0000   5.2500 -22.7500 Du        
    458 ****       -45.0000   5.2500 -22.5000 Du        
    459 ****       -45.0000   5.2500 -22.2500 Du        
    460 ****       -45.0000   5.5000 -23.2500 Du        
    461 ****       -45.0000   5.5000 -23.0000 Du        
    462 ****       -45.0000   5.5000 -22.7500 Du        
    463 ****       -45.0000   5.5000 -22.5000 Du        
    464 ****       -45.0000   5.7500 -22.7500 Du        
    465 ****       -45.0000   7.0000 -31.5000 Du        
    466 ****       -45.0000   7.0000 -31.2500 Du        
    467 ****       -45.0000   7.0000 -31.0000 Du        
    468 ****       -45.0000   7.0000 -30.7500 Du        
    469 ****       -45.0000   7.2500 -31.5000 Du        
    470 ****       -45.0000   7.2500 -31.2500 Du        
    471 ****       -45.0000   7.2500 -31.0000 Du        
    472 ****       -45.0000   7.2500 -30.7500 Du        
    473 ****       -45.0000   7.5000 -31.7500 Du        
    474 ****       -45.0000   7.5000 -31.5000 Du        
    475 ****       -45.0000   7.5000 -31.2500 Du        
    476 ****       -45.0000   7.5000 -31.0000 Du        
    477 ****       -45.0000   7.5000 -30.7500 Du        
    478 ****       -45.0000   7.7500 -31.7500 Du        
    479 ****       -45.0000   7.7500 -31.5000 Du        
    480 ****       -45.0000   7.7500 -31.2500 Du        
    481 ****       -45.0000   7.7500 -31.0000 Du        
    482 ****       -45.0000   7.7500 -30.7500 Du        
    483 ****       -45.0000   8.0000 -31.7500 Du        
    484 ****       -45.0000   8.0000 -31.5000 Du        
    485 ****       -45.0000   8.0000 -31.2500 Du        
    486 ****       -45.0000   8.0000 -31.0000 Du        
    487 ****       -45.0000   8.0000 -30.7500 Du        
    488 ****       -45.0000   8.0000 -30.5000 Du        
    489 ****       -45.0000   8.2500 -31.5000 Du        
    490 ****       -45.0000   8.2500 -31.2500 Du        
    491 ****       -45.0000   8.2500 -31.0000 Du        
    492 ****       -45.0000   8.2500 -30.7500 Du        
    493 ****       -45.0000   8.2500 -30.5000 Du        
    494 ****       -45.0000   8.5000 -31.5000 Du        
    495 ****       -45.0000   8.5000 -31.2500 Du        
    496 ****       -45.0000   8.5000 -31.0000 Du        
    497 ****       -45.0000   8.5000 -30.7500 Du        
    498 ****       -45.0000   8.5000 -30.5000 Du        
    499 ****       -45.0000   8.7500 -31.5000 Du        
    500 ****       -45.0000   8.7500 -31.2500 Du        
    501 ****       -45.0000   8.7500 -31.0000 Du        
    502 ****       -45.0000   8.7500 -30.7500 Du        
    503 ****       -45.0000   8.7500 -30.5000 Du        
    504 ****       -45.0000   9.0000 -31.2500 Du        
    505 ****       -45.0000   9.0000 -31.0000 Du        
    506 ****       -45.0000   9.0000 -30.7500 Du        
    507 ****       -45.0000   9.0000 -30.5000 Du        
    508 ****       -45.0000   9.2500 -31.2500 Du        
    509 ****       -45.0000   9.2500 -31.0000 Du        
    510 ****       -45.0000   9.2500 -30.7500 Du        
    511 ****       -45.0000   9.5000 -31.2500 Du        
    512 ****       -45.0000   9.5000 -31.0000 Du        
    513 ****       -45.0000   9.7500 -31.2500 Du        
    514 ****       -44.7500   3.5000 -24.5000 Du        
    515 ****       -44.7500   3.5000 -24.2500 Du        
    516 ****       -44.7500   3.5000 -24.0000 Du        
    517 ****       -44.7500   3.5000 -23.7500 Du        
    518 ****       -44.7500   3.5000 -23.5000 Du        
    519 ****       -44.7500   3.5000 -23.2500 Du        
    520 ****       -44.7500   3.5000 -23.0000 Du        
    521 ****       -44.7500   3.7500 -24.7500 Du        
    522 ****       -44.7500   3.7500 -24.5000 Du        
    523 ****       -44.7500   3.7500 -24.2500 Du        
    524 ****       -44.7500   3.7500 -24.0000 Du        
    525 ****       -44.7500   3.7500 -23.7500 Du        
    526 ****       -44.7500   3.7500 -23.5000 Du        
    527 ****       -44.7500   3.7500 -23.2500 Du        
    528 ****       -44.7500   3.7500 -23.0000 Du        
    529 ****       -44.7500   3.7500 -22.7500 Du        
    530 ****       -44.7500   4.0000 -25.0000 Du        
    531 ****       -44.7500   4.0000 -24.7500 Du        
    532 ****       -44.7500   4.0000 -24.5000 Du        
    533 ****       -44.7500   4.0000 -24.2500 Du        
    534 ****       -44.7500   4.0000 -24.0000 Du        
    535 ****       -44.7500   4.0000 -23.7500 Du        
    536 ****       -44.7500   4.0000 -23.5000 Du        
    537 ****       -44.7500   4.0000 -23.2500 Du        
    538 ****       -44.7500   4.0000 -23.0000 Du        
    539 ****       -44.7500   4.0000 -22.7500 Du        
    540 ****       -44.7500   4.0000 -22.5000 Du        
    541 ****       -44.7500   4.2500 -25.5000 Du        
    542 ****       -44.7500   4.2500 -25.2500 Du        
    543 ****       -44.7500   4.2500 -25.0000 Du        
    544 ****       -44.7500   4.2500 -24.7500 Du        
    545 ****       -44.7500   4.2500 -24.5000 Du        
    546 ****       -44.7500   4.2500 -24.2500 Du        
    547 ****       -44.7500   4.2500 -24.0000 Du        
    548 ****       -44.7500   4.2500 -23.7500 Du        
    549 ****       -44.7500   4.2500 -23.5000 Du        
    550 ****       -44.7500   4.2500 -23.2500 Du        
    551 ****       -44.7500   4.2500 -23.0000 Du        
    552 ****       -44.7500   4.2500 -22.7500 Du        
    553 ****       -44.7500   4.2500 -22.5000 Du        
    554 ****       -44.7500   4.2500 -22.2500 Du        
    555 ****       -44.7500   4.5000 -25.5000 Du        
    556 ****       -44.7500   4.5000 -25.2500 Du        
    557 ****       -44.7500   4.5000 -25.0000 Du        
    558 ****       -44.7500   4.5000 -24.7500 Du        
    559 ****       -44.7500   4.5000 -24.5000 Du        
    560 ****       -44.7500   4.5000 -24.2500 Du        
    561 ****       -44.7500   4.5000 -24.0000 Du        
    562 ****       -44.7500   4.5000 -23.7500 Du        
    563 ****       -44.7500   4.5000 -23.5000 Du        
    564 ****       -44.7500   4.5000 -23.2500 Du        
    565 ****       -44.7500   4.5000 -23.0000 Du        
    566 ****       -44.7500   4.5000 -22.7500 Du        
    567 ****       -44.7500   4.5000 -22.5000 Du        
    568 ****       -44.7500   4.5000 -22.2500 Du        
    569 ****       -44.7500   4.7500 -24.7500 Du        
    570 ****       -44.7500   4.7500 -24.5000 Du        
    571 ****       -44.7500   4.7500 -24.2500 Du        
    572 ****       -44.7500   4.7500 -24.0000 Du        
    573 ****       -44.7500   4.7500 -23.7500 Du        
    574 ****       -44.7500   4.7500 -23.5000 Du        
    575 ****       -44.7500   4.7500 -23.2500 Du        
    576 ****       -44.7500   4.7500 -23.0000 Du        
    577 ****       -44.7500   4.7500 -22.7500 Du        
    578 ****       -44.7500   4.7500 -22.5000 Du        
    579 ****       -44.7500   4.7500 -22.2500 Du        
    580 ****       -44.7500   4.7500 -22.0000 Du        
    581 ****       -44.7500   5.0000 -24.2500 Du        
    582 ****       -44.7500   5.0000 -24.0000 Du        
    583 ****       -44.7500   5.0000 -23.7500 Du        
    584 ****       -44.7500   5.0000 -23.5000 Du        
    585 ****       -44.7500   5.0000 -23.2500 Du        
    586 ****       -44.7500   5.0000 -23.0000 Du        
    587 ****       -44.7500   5.0000 -22.7500 Du        
    588 ****       -44.7500   5.0000 -22.5000 Du        
    589 ****       -44.7500   5.0000 -22.2500 Du        
    590 ****       -44.7500   5.2500 -23.5000 Du        
    591 ****       -44.7500   5.2500 -23.2500 Du        
    592 ****       -44.7500   5.2500 -23.0000 Du        
    593 ****       -44.7500   5.2500 -22.7500 Du        
    594 ****       -44.7500   5.2500 -22.5000 Du        
    595 ****       -44.7500   5.2500 -22.2500 Du        
    596 ****       -44.7500   5.5000 -23.2500 Du        
    597 ****       -44.7500   5.5000 -23.0000 Du        
    598 ****       -44.7500   5.5000 -22.7500 Du        
    599 ****       -44.7500   5.5000 -22.5000 Du        
    600 ****       -44.7500   5.7500 -22.7500 Du        
    601 ****       -44.7500   6.5000 -31.2500 Du        
    602 ****       -44.7500   6.7500 -31.5000 Du        
    603 ****       -44.7500   6.7500 -31.2500 Du        
    604 ****       -44.7500   6.7500 -31.0000 Du        
    605 ****       -44.7500   6.7500 -30.7500 Du        
    606 ****       -44.7500   7.0000 -31.7500 Du        
    607 ****       -44.7500   7.0000 -31.5000 Du        
    608 ****       -44.7500   7.0000 -31.2500 Du        
    609 ****       -44.7500   7.0000 -31.0000 Du        
    610 ****       -44.7500   7.0000 -30.7500 Du        
    611 ****       -44.7500   7.2500 -31.5000 Du        
    612 ****       -44.7500   7.2500 -31.2500 Du        
    613 ****       -44.7500   7.2500 -31.0000 Du        
    614 ****       -44.7500   7.2500 -30.7500 Du        
    615 ****       -44.7500   7.5000 -31.7500 Du        
    616 ****       -44.7500   7.5000 -31.5000 Du        
    617 ****       -44.7500   7.5000 -31.2500 Du        
    618 ****       -44.7500   7.5000 -31.0000 Du        
    619 ****       -44.7500   7.5000 -30.7500 Du        
    620 ****       -44.7500   7.7500 -31.5000 Du        
    621 ****       -44.7500   7.7500 -31.2500 Du        
    622 ****       -44.7500   7.7500 -31.0000 Du        
    623 ****       -44.7500   7.7500 -30.7500 Du        
    624 ****       -44.7500   8.0000 -31.5000 Du        
    625 ****       -44.7500   8.0000 -31.2500 Du        
    626 ****       -44.7500   8.0000 -31.0000 Du        
    627 ****       -44.7500   8.0000 -30.7500 Du        
    628 ****       -44.7500   8.0000 -30.5000 Du        
    629 ****       -44.7500   8.2500 -31.5000 Du        
    630 ****       -44.7500   8.2500 -31.2500 Du        
    631 ****       -44.7500   8.2500 -31.0000 Du        
    632 ****       -44.7500   8.2500 -30.7500 Du        
    633 ****       -44.7500   8.2500 -30.5000 Du        
    634 ****       -44.7500   8.5000 -31.2500 Du        
    635 ****       -44.7500   8.5000 -31.0000 Du        
    636 ****       -44.7500   8.5000 -30.7500 Du        
    637 ****       -44.7500   8.5000 -30.5000 Du        
    638 ****       -44.7500   8.7500 -31.2500 Du        
    639 ****       -44.7500   8.7500 -31.0000 Du        
    640 ****       -44.7500   8.7500 -30.7500 Du        
    641 ****       -44.7500   8.7500 -30.5000 Du        
    642 ****       -44.7500   9.0000 -31.0000 Du        
    643 ****       -44.7500   9.0000 -30.7500 Du        
    644 ****       -44.5000   3.5000 -24.5000 Du        
    645 ****       -44.5000   3.5000 -24.2500 Du        
    646 ****       -44.5000   3.5000 -24.0000 Du        
    647 ****       -44.5000   3.5000 -23.7500 Du        
    648 ****       -44.5000   3.5000 -23.5000 Du        
    649 ****       -44.5000   3.5000 -23.2500 Du        
    650 ****       -44.5000   3.7500 -25.0000 Du        
    651 ****       -44.5000   3.7500 -24.7500 Du        
    652 ****       -44.5000   3.7500 -24.5000 Du        
    653 ****       -44.5000   3.7500 -24.2500 Du        
    654 ****       -44.5000   3.7500 -24.0000 Du        
    655 ****       -44.5000   3.7500 -23.7500 Du        
    656 ****       -44.5000   3.7500 -23.5000 Du        
    657 ****       -44.5000   3.7500 -23.2500 Du        
    658 ****       -44.5000   3.7500 -23.0000 Du        
    659 ****       -44.5000   4.0000 -25.2500 Du        
    660 ****       -44.5000   4.0000 -25.0000 Du        
    661 ****       -44.5000   4.0000 -24.7500 Du        
    662 ****       -44.5000   4.0000 -24.5000 Du        
    663 ****       -44.5000   4.0000 -24.2500 Du        
    664 ****       -44.5000   4.0000 -24.0000 Du        
    665 ****       -44.5000   4.0000 -23.7500 Du        
    666 ****       -44.5000   4.0000 -23.5000 Du        
    667 ****       -44.5000   4.0000 -23.2500 Du        
    668 ****       -44.5000   4.0000 -23.0000 Du        
    669 ****       -44.5000   4.0000 -22.7500 Du        
    670 ****       -44.5000   4.2500 -25.5000 Du        
    671 ****       -44.5000   4.2500 -25.2500 Du        
    672 ****       -44.5000   4.2500 -25.0000 Du        
    673 ****       -44.5000   4.2500 -24.7500 Du        
    674 ****       -44.5000   4.2500 -24.5000 Du        
    675 ****       -44.5000   4.2500 -24.2500 Du        
    676 ****       -44.5000   4.2500 -24.0000 Du        
    677 ****       -44.5000   4.2500 -23.7500 Du        
    678 ****       -44.5000   4.2500 -23.5000 Du        
    679 ****       -44.5000   4.2500 -23.2500 Du        
    680 ****       -44.5000   4.2500 -23.0000 Du        
    681 ****       -44.5000   4.2500 -22.7500 Du        
    682 ****       -44.5000   4.2500 -22.5000 Du        
    683 ****       -44.5000   4.5000 -25.5000 Du        
    684 ****       -44.5000   4.5000 -25.2500 Du        
    685 ****       -44.5000   4.5000 -25.0000 Du        
    686 ****       -44.5000   4.5000 -24.7500 Du        
    687 ****       -44.5000   4.5000 -24.5000 Du        
    688 ****       -44.5000   4.5000 -24.2500 Du        
    689 ****       -44.5000   4.5000 -24.0000 Du        
    690 ****       -44.5000   4.5000 -23.7500 Du        
    691 ****       -44.5000   4.5000 -23.5000 Du        
    692 ****       -44.5000   4.5000 -23.2500 Du        
    693 ****       -44.5000   4.5000 -23.0000 Du        
    694 ****       -44.5000   4.5000 -22.7500 Du        
    695 ****       -44.5000   4.5000 -22.5000 Du        
    696 ****       -44.5000   4.7500 -24.7500 Du        
    697 ****       -44.5000   4.7500 -24.5000 Du        
    698 ****       -44.5000   4.7500 -24.2500 Du        
    699 ****       -44.5000   4.7500 -24.0000 Du        
    700 ****       -44.5000   4.7500 -23.7500 Du        
    701 ****       -44.5000   4.7500 -23.5000 Du        
    702 ****       -44.5000   4.7500 -23.2500 Du        
    703 ****       -44.5000   4.7500 -23.0000 Du        
    704 ****       -44.5000   4.7500 -22.7500 Du        
    705 ****       -44.5000   4.7500 -22.5000 Du        
    706 ****       -44.5000   4.7500 -22.2500 Du        
    707 ****       -44.5000   5.0000 -24.0000 Du        
    708 ****       -44.5000   5.0000 -23.7500 Du        
    709 ****       -44.5000   5.0000 -23.5000 Du        
    710 ****       -44.5000   5.0000 -23.2500 Du        
    711 ****       -44.5000   5.0000 -23.0000 Du        
    712 ****       -44.5000   5.0000 -22.7500 Du        
    713 ****       -44.5000   5.0000 -22.5000 Du        
    714 ****       -44.5000   5.0000 -22.2500 Du        
    715 ****       -44.5000   5.2500 -23.5000 Du        
    716 ****       -44.5000   5.2500 -23.2500 Du        
    717 ****       -44.5000   5.2500 -23.0000 Du        
    718 ****       -44.5000   5.2500 -22.7500 Du        
    719 ****       -44.5000   5.2500 -22.5000 Du        
    720 ****       -44.5000   5.5000 -23.2500 Du        
    721 ****       -44.5000   5.5000 -23.0000 Du        
    722 ****       -44.5000   5.5000 -22.7500 Du        
    723 ****       -44.5000   5.5000 -22.5000 Du        
    724 ****       -44.5000   6.2500 -31.2500 Du        
    725 ****       -44.5000   6.2500 -31.0000 Du        
    726 ****       -44.5000   6.2500 -30.7500 Du        
    727 ****       -44.5000   6.5000 -31.7500 Du        
    728 ****       -44.5000   6.5000 -31.5000 Du        
    729 ****       -44.5000   6.5000 -31.2500 Du        
    730 ****       -44.5000   6.5000 -31.0000 Du        
    731 ****       -44.5000   6.5000 -30.7500 Du        
    732 ****       -44.5000   6.7500 -31.7500 Du        
    733 ****       -44.5000   6.7500 -31.5000 Du        
    734 ****       -44.5000   6.7500 -31.2500 Du        
    735 ****       -44.5000   6.7500 -31.0000 Du        
    736 ****       -44.5000   6.7500 -30.7500 Du        
    737 ****       -44.5000   7.0000 -31.7500 Du        
    738 ****       -44.5000   7.0000 -31.5000 Du        
    739 ****       -44.5000   7.0000 -31.2500 Du        
    740 ****       -44.5000   7.0000 -31.0000 Du        
    741 ****       -44.5000   7.0000 -30.7500 Du        
    742 ****       -44.5000   7.2500 -31.7500 Du        
    743 ****       -44.5000   7.2500 -31.5000 Du        
    744 ****       -44.5000   7.2500 -31.2500 Du        
    745 ****       -44.5000   7.2500 -31.0000 Du        
    746 ****       -44.5000   7.2500 -30.7500 Du        
    747 ****       -44.5000   7.5000 -31.5000 Du        
    748 ****       -44.5000   7.5000 -31.2500 Du        
    749 ****       -44.5000   7.5000 -31.0000 Du        
    750 ****       -44.5000   7.5000 -30.7500 Du        
    751 ****       -44.5000   7.5000 -30.5000 Du        
    752 ****       -44.5000   7.7500 -31.5000 Du        
    753 ****       -44.5000   7.7500 -31.2500 Du        
    754 ****       -44.5000   7.7500 -31.0000 Du        
    755 ****       -44.5000   7.7500 -30.7500 Du        
    756 ****       -44.5000   7.7500 -30.5000 Du        
    757 ****       -44.5000   8.0000 -31.5000 Du        
    758 ****       -44.5000   8.0000 -31.2500 Du        
    759 ****       -44.5000   8.0000 -31.0000 Du        
    760 ****       -44.5000   8.0000 -30.7500 Du        
    761 ****       -44.5000   8.0000 -30.5000 Du        
    762 ****       -44.5000   8.2500 -31.2500 Du        
    763 ****       -44.5000   8.2500 -31.0000 Du        
    764 ****       -44.5000   8.2500 -30.7500 Du        
    765 ****       -44.5000   8.2500 -30.5000 Du        
    766 ****       -44.5000   8.5000 -31.2500 Du        
    767 ****       -44.5000   8.5000 -31.0000 Du        
    768 ****       -44.5000   8.5000 -30.7500 Du        
    769 ****       -44.5000   8.7500 -31.0000 Du        
    770 ****       -44.5000   8.7500 -30.7500 Du        
    771 ****       -44.2500   3.5000 -24.7500 Du        
    772 ****       -44.2500   3.5000 -24.5000 Du        
    773 ****       -44.2500   3.5000 -24.2500 Du        
    774 ****       -44.2500   3.5000 -24.0000 Du        
    775 ****       -44.2500   3.5000 -23.7500 Du        
    776 ****       -44.2500   3.5000 -23.5000 Du        
    777 ****       -44.2500   3.7500 -25.0000 Du        
    778 ****       -44.2500   3.7500 -24.7500 Du        
    779 ****       -44.2500   3.7500 -24.5000 Du        
    780 ****       -44.2500   3.7500 -24.2500 Du        
    781 ****       -44.2500   3.7500 -24.0000 Du        
    782 ****       -44.2500   3.7500 -23.7500 Du        
    783 ****       -44.2500   3.7500 -23.5000 Du        
    784 ****       -44.2500   3.7500 -23.2500 Du        
    785 ****       -44.2500   4.0000 -25.2500 Du        
    786 ****       -44.2500   4.0000 -25.0000 Du        
    787 ****       -44.2500   4.0000 -24.7500 Du        
    788 ****       -44.2500   4.0000 -24.5000 Du        
    789 ****       -44.2500   4.0000 -24.2500 Du        
    790 ****       -44.2500   4.0000 -24.0000 Du        
    791 ****       -44.2500   4.0000 -23.7500 Du        
    792 ****       -44.2500   4.0000 -23.5000 Du        
    793 ****       -44.2500   4.0000 -23.2500 Du        
    794 ****       -44.2500   4.0000 -23.0000 Du        
    795 ****       -44.2500   4.2500 -25.5000 Du        
    796 ****       -44.2500   4.2500 -25.2500 Du        
    797 ****       -44.2500   4.2500 -25.0000 Du        
    798 ****       -44.2500   4.2500 -24.7500 Du        
    799 ****       -44.2500   4.2500 -24.5000 Du        
    800 ****       -44.2500   4.2500 -24.2500 Du        
    801 ****       -44.2500   4.2500 -24.0000 Du        
    802 ****       -44.2500   4.2500 -23.7500 Du        
    803 ****       -44.2500   4.2500 -23.5000 Du        
    804 ****       -44.2500   4.2500 -23.2500 Du        
    805 ****       -44.2500   4.2500 -23.0000 Du        
    806 ****       -44.2500   4.2500 -22.7500 Du        
    807 ****       -44.2500   4.5000 -25.5000 Du        
    808 ****       -44.2500   4.5000 -25.2500 Du        
    809 ****       -44.2500   4.5000 -25.0000 Du        
    810 ****       -44.2500   4.5000 -24.7500 Du        
    811 ****       -44.2500   4.5000 -24.5000 Du        
    812 ****       -44.2500   4.5000 -24.2500 Du        
    813 ****       -44.2500   4.5000 -24.0000 Du        
    814 ****       -44.2500   4.5000 -23.7500 Du        
    815 ****       -44.2500   4.5000 -23.5000 Du        
    816 ****       -44.2500   4.5000 -23.2500 Du        
    817 ****       -44.2500   4.5000 -23.0000 Du        
    818 ****       -44.2500   4.5000 -22.7500 Du        
    819 ****       -44.2500   4.7500 -24.5000 Du        
    820 ****       -44.2500   4.7500 -24.2500 Du        
    821 ****       -44.2500   4.7500 -24.0000 Du        
    822 ****       -44.2500   4.7500 -23.7500 Du        
    823 ****       -44.2500   4.7500 -23.5000 Du        
    824 ****       -44.2500   4.7500 -23.2500 Du        
    825 ****       -44.2500   4.7500 -23.0000 Du        
    826 ****       -44.2500   4.7500 -22.7500 Du        
    827 ****       -44.2500   4.7500 -22.5000 Du        
    828 ****       -44.2500   5.0000 -23.7500 Du        
    829 ****       -44.2500   5.0000 -23.5000 Du        
    830 ****       -44.2500   5.0000 -23.2500 Du        
    831 ****       -44.2500   5.0000 -23.0000 Du        
    832 ****       -44.2500   5.0000 -22.7500 Du        
    833 ****       -44.2500   5.0000 -22.5000 Du        
    834 ****       -44.2500   5.2500 -23.5000 Du        
    835 ****       -44.2500   5.2500 -23.2500 Du        
    836 ****       -44.2500   5.2500 -23.0000 Du        
    837 ****       -44.2500   5.2500 -22.7500 Du        
    838 ****       -44.2500   5.2500 -22.5000 Du        
    839 ****       -44.2500   5.5000 -23.0000 Du        
    840 ****       -44.2500   5.5000 -22.7500 Du        
    841 ****       -44.2500   5.7500 -31.0000 Du        
    842 ****       -44.2500   6.0000 -31.2500 Du        
    843 ****       -44.2500   6.0000 -31.0000 Du        
    844 ****       -44.2500   6.0000 -30.7500 Du        
    845 ****       -44.2500   6.2500 -32.0000 Du        
    846 ****       -44.2500   6.2500 -31.7500 Du        
    847 ****       -44.2500   6.2500 -31.5000 Du        
    848 ****       -44.2500   6.2500 -31.2500 Du        
    849 ****       -44.2500   6.2500 -31.0000 Du        
    850 ****       -44.2500   6.2500 -30.7500 Du        
    851 ****       -44.2500   6.5000 -32.0000 Du        
    852 ****       -44.2500   6.5000 -31.7500 Du        
    853 ****       -44.2500   6.5000 -31.5000 Du        
    854 ****       -44.2500   6.5000 -31.2500 Du        
    855 ****       -44.2500   6.5000 -31.0000 Du        
    856 ****       -44.2500   6.5000 -30.7500 Du        
    857 ****       -44.2500   6.5000 -30.5000 Du        
    858 ****       -44.2500   6.7500 -31.7500 Du        
    859 ****       -44.2500   6.7500 -31.5000 Du        
    860 ****       -44.2500   6.7500 -31.2500 Du        
    861 ****       -44.2500   6.7500 -31.0000 Du        
    862 ****       -44.2500   6.7500 -30.7500 Du        
    863 ****       -44.2500   6.7500 -30.5000 Du        
    864 ****       -44.2500   7.0000 -31.7500 Du        
    865 ****       -44.2500   7.0000 -31.5000 Du        
    866 ****       -44.2500   7.0000 -31.2500 Du        
    867 ****       -44.2500   7.0000 -31.0000 Du        
    868 ****       -44.2500   7.0000 -30.7500 Du        
    869 ****       -44.2500   7.0000 -30.5000 Du        
    870 ****       -44.2500   7.2500 -31.7500 Du        
    871 ****       -44.2500   7.2500 -31.5000 Du        
    872 ****       -44.2500   7.2500 -31.2500 Du        
    873 ****       -44.2500   7.2500 -31.0000 Du        
    874 ****       -44.2500   7.2500 -30.7500 Du        
    875 ****       -44.2500   7.2500 -30.5000 Du        
    876 ****       -44.2500   7.5000 -31.5000 Du        
    877 ****       -44.2500   7.5000 -31.2500 Du        
    878 ****       -44.2500   7.5000 -31.0000 Du        
    879 ****       -44.2500   7.5000 -30.7500 Du        
    880 ****       -44.2500   7.5000 -30.5000 Du        
    881 ****       -44.2500   7.7500 -31.5000 Du        
    882 ****       -44.2500   7.7500 -31.2500 Du        
    883 ****       -44.2500   7.7500 -31.0000 Du        
    884 ****       -44.2500   7.7500 -30.7500 Du        
    885 ****       -44.2500   7.7500 -30.5000 Du        
    886 ****       -44.2500   8.0000 -31.2500 Du        
    887 ****       -44.2500   8.0000 -31.0000 Du        
    888 ****       -44.2500   8.0000 -30.7500 Du        
    889 ****       -44.2500   8.0000 -30.5000 Du        
    890 ****       -44.2500   8.2500 -31.2500 Du        
    891 ****       -44.2500   8.2500 -31.0000 Du        
    892 ****       -44.2500   8.2500 -30.7500 Du        
    893 ****       -44.2500   8.2500 -30.5000 Du        
    894 ****       -44.2500   8.5000 -31.0000 Du        
    895 ****       -44.2500   8.5000 -30.7500 Du        
    896 ****       -44.0000   3.2500 -24.5000 Du        
    897 ****       -44.0000   3.2500 -24.2500 Du        
    898 ****       -44.0000   3.5000 -24.7500 Du        
    899 ****       -44.0000   3.5000 -24.5000 Du        
    900 ****       -44.0000   3.5000 -24.2500 Du        
    901 ****       -44.0000   3.5000 -24.0000 Du        
    902 ****       -44.0000   3.5000 -23.7500 Du        
    903 ****       -44.0000   3.7500 -25.0000 Du        
    904 ****       -44.0000   3.7500 -24.7500 Du        
    905 ****       -44.0000   3.7500 -24.5000 Du        
    906 ****       -44.0000   3.7500 -24.2500 Du        
    907 ****       -44.0000   3.7500 -24.0000 Du        
    908 ****       -44.0000   3.7500 -23.7500 Du        
    909 ****       -44.0000   3.7500 -23.5000 Du        
    910 ****       -44.0000   4.0000 -34.0000 Du        
    911 ****       -44.0000   4.0000 -33.7500 Du        
    912 ****       -44.0000   4.0000 -25.2500 Du        
    913 ****       -44.0000   4.0000 -25.0000 Du        
    914 ****       -44.0000   4.0000 -24.7500 Du        
    915 ****       -44.0000   4.0000 -24.5000 Du        
    916 ****       -44.0000   4.0000 -24.2500 Du        
    917 ****       -44.0000   4.0000 -24.0000 Du        
    918 ****       -44.0000   4.0000 -23.7500 Du        
    919 ****       -44.0000   4.0000 -23.5000 Du        
    920 ****       -44.0000   4.0000 -23.2500 Du        
    921 ****       -44.0000   4.2500 -33.7500 Du        
    922 ****       -44.0000   4.2500 -25.2500 Du        
    923 ****       -44.0000   4.2500 -25.0000 Du        
    924 ****       -44.0000   4.2500 -24.7500 Du        
    925 ****       -44.0000   4.2500 -24.5000 Du        
    926 ****       -44.0000   4.2500 -24.2500 Du        
    927 ****       -44.0000   4.2500 -24.0000 Du        
    928 ****       -44.0000   4.2500 -23.7500 Du        
    929 ****       -44.0000   4.2500 -23.5000 Du        
    930 ****       -44.0000   4.2500 -23.2500 Du        
    931 ****       -44.0000   4.2500 -23.0000 Du        
    932 ****       -44.0000   4.5000 -24.5000 Du        
    933 ****       -44.0000   4.5000 -24.2500 Du        
    934 ****       -44.0000   4.5000 -24.0000 Du        
    935 ****       -44.0000   4.5000 -23.7500 Du        
    936 ****       -44.0000   4.5000 -23.5000 Du        
    937 ****       -44.0000   4.5000 -23.2500 Du        
    938 ****       -44.0000   4.5000 -23.0000 Du        
    939 ****       -44.0000   4.7500 -24.0000 Du        
    940 ****       -44.0000   4.7500 -23.7500 Du        
    941 ****       -44.0000   4.7500 -23.5000 Du        
    942 ****       -44.0000   4.7500 -23.2500 Du        
    943 ****       -44.0000   4.7500 -23.0000 Du        
    944 ****       -44.0000   4.7500 -22.7500 Du        
    945 ****       -44.0000   5.0000 -23.5000 Du        
    946 ****       -44.0000   5.0000 -23.2500 Du        
    947 ****       -44.0000   5.0000 -23.0000 Du        
    948 ****       -44.0000   5.0000 -22.7500 Du        
    949 ****       -44.0000   5.2500 -23.2500 Du        
    950 ****       -44.0000   5.2500 -23.0000 Du        
    951 ****       -44.0000   5.2500 -22.7500 Du        
    952 ****       -44.0000   5.7500 -32.0000 Du        
    953 ****       -44.0000   5.7500 -31.2500 Du        
    954 ****       -44.0000   5.7500 -31.0000 Du        
    955 ****       -44.0000   5.7500 -30.7500 Du        
    956 ****       -44.0000   5.7500 -30.2500 Du        
    957 ****       -44.0000   6.0000 -32.2500 Du        
    958 ****       -44.0000   6.0000 -32.0000 Du        
    959 ****       -44.0000   6.0000 -31.7500 Du        
    960 ****       -44.0000   6.0000 -31.5000 Du        
    961 ****       -44.0000   6.0000 -31.2500 Du        
    962 ****       -44.0000   6.0000 -31.0000 Du        
    963 ****       -44.0000   6.0000 -30.7500 Du        
    964 ****       -44.0000   6.0000 -30.5000 Du        
    965 ****       -44.0000   6.0000 -30.2500 Du        
    966 ****       -44.0000   6.2500 -32.2500 Du        
    967 ****       -44.0000   6.2500 -32.0000 Du        
    968 ****       -44.0000   6.2500 -31.7500 Du        
    969 ****       -44.0000   6.2500 -31.5000 Du        
    970 ****       -44.0000   6.2500 -31.2500 Du        
    971 ****       -44.0000   6.2500 -31.0000 Du        
    972 ****       -44.0000   6.2500 -30.7500 Du        
    973 ****       -44.0000   6.2500 -30.5000 Du        
    974 ****       -44.0000   6.5000 -32.0000 Du        
    975 ****       -44.0000   6.5000 -31.7500 Du        
    976 ****       -44.0000   6.5000 -31.5000 Du        
    977 ****       -44.0000   6.5000 -31.2500 Du        
    978 ****       -44.0000   6.5000 -31.0000 Du        
    979 ****       -44.0000   6.5000 -30.7500 Du        
    980 ****       -44.0000   6.5000 -30.5000 Du        
    981 ****       -44.0000   6.7500 -32.0000 Du        
    982 ****       -44.0000   6.7500 -31.7500 Du        
    983 ****       -44.0000   6.7500 -31.5000 Du        
    984 ****       -44.0000   6.7500 -31.2500 Du        
    985 ****       -44.0000   6.7500 -31.0000 Du        
    986 ****       -44.0000   6.7500 -30.7500 Du        
    987 ****       -44.0000   6.7500 -30.5000 Du        
    988 ****       -44.0000   7.0000 -31.7500 Du        
    989 ****       -44.0000   7.0000 -31.5000 Du        
    990 ****       -44.0000   7.0000 -31.2500 Du        
    991 ****       -44.0000   7.0000 -31.0000 Du        
    992 ****       -44.0000   7.0000 -30.7500 Du        
    993 ****       -44.0000   7.0000 -30.5000 Du        
    994 ****       -44.0000   7.2500 -31.5000 Du        
    995 ****       -44.0000   7.2500 -31.2500 Du        
    996 ****       -44.0000   7.2500 -31.0000 Du        
    997 ****       -44.0000   7.2500 -30.7500 Du        
    998 ****       -44.0000   7.2500 -30.5000 Du        
    999 ****       -44.0000   7.5000 -31.5000 Du        
   1000 ****       -44.0000   7.5000 -31.2500 Du        
   1001 ****       -44.0000   7.5000 -31.0000 Du        
   1002 ****       -44.0000   7.5000 -30.7500 Du        
   1003 ****       -44.0000   7.5000 -30.5000 Du        
   1004 ****       -44.0000   7.7500 -31.2500 Du        
   1005 ****       -44.0000   7.7500 -31.0000 Du        
   1006 ****       -44.0000   7.7500 -30.7500 Du        
   1007 ****       -44.0000   7.7500 -30.5000 Du        
   1008 ****       -44.0000   8.0000 -31.2500 Du        
   1009 ****       -44.0000   8.0000 -31.0000 Du        
   1010 ****       -44.0000   8.0000 -30.7500 Du        
   1011 ****       -44.0000   8.0000 -30.5000 Du        
   1012 ****       -44.0000   8.2500 -31.0000 Du        
   1013 ****       -44.0000   8.2500 -30.7500 Du        
   1014 ****       -43.7500   3.2500 -24.5000 Du        
   1015 ****       -43.7500   3.2500 -24.2500 Du        
   1016 ****       -43.7500   3.5000 -24.7500 Du        
   1017 ****       -43.7500   3.5000 -24.5000 Du        
   1018 ****       -43.7500   3.5000 -24.2500 Du        
   1019 ****       -43.7500   3.5000 -24.0000 Du        
   1020 ****       -43.7500   3.7500 -25.0000 Du        
   1021 ****       -43.7500   3.7500 -24.7500 Du        
   1022 ****       -43.7500   3.7500 -24.5000 Du        
   1023 ****       -43.7500   3.7500 -24.2500 Du        
   1024 ****       -43.7500   3.7500 -24.0000 Du        
   1025 ****       -43.7500   3.7500 -23.7500 Du        
   1026 ****       -43.7500   4.0000 -34.2500 Du        
   1027 ****       -43.7500   4.0000 -34.0000 Du        
   1028 ****       -43.7500   4.0000 -33.7500 Du        
   1029 ****       -43.7500   4.0000 -25.0000 Du        
   1030 ****       -43.7500   4.0000 -24.7500 Du        
   1031 ****       -43.7500   4.0000 -24.5000 Du        
   1032 ****       -43.7500   4.0000 -24.2500 Du        
   1033 ****       -43.7500   4.0000 -24.0000 Du        
   1034 ****       -43.7500   4.0000 -23.7500 Du        
   1035 ****       -43.7500   4.0000 -23.5000 Du        
   1036 ****       -43.7500   4.2500 -34.2500 Du        
   1037 ****       -43.7500   4.2500 -34.0000 Du        
   1038 ****       -43.7500   4.2500 -33.7500 Du        
   1039 ****       -43.7500   4.2500 -24.5000 Du        
   1040 ****       -43.7500   4.2500 -24.2500 Du        
   1041 ****       -43.7500   4.2500 -24.0000 Du        
   1042 ****       -43.7500   4.2500 -23.7500 Du        
   1043 ****       -43.7500   4.2500 -23.5000 Du        
   1044 ****       -43.7500   4.5000 -34.0000 Du        
   1045 ****       -43.7500   4.5000 -33.5000 Du        
   1046 ****       -43.7500   4.5000 -24.0000 Du        
   1047 ****       -43.7500   4.5000 -23.7500 Du        
   1048 ****       -43.7500   4.5000 -23.5000 Du        
   1049 ****       -43.7500   4.5000 -23.2500 Du        
   1050 ****       -43.7500   4.7500 -33.5000 Du        
   1051 ****       -43.7500   4.7500 -33.2500 Du        
   1052 ****       -43.7500   4.7500 -23.5000 Du        
   1053 ****       -43.7500   4.7500 -23.2500 Du        
   1054 ****       -43.7500   5.0000 -33.0000 Du        
   1055 ****       -43.7500   5.5000 -32.0000 Du        
   1056 ****       -43.7500   5.5000 -31.7500 Du        
   1057 ****       -43.7500   5.5000 -31.2500 Du        
   1058 ****       -43.7500   5.5000 -31.0000 Du        
   1059 ****       -43.7500   5.5000 -30.7500 Du        
   1060 ****       -43.7500   5.7500 -32.2500 Du        
   1061 ****       -43.7500   5.7500 -32.0000 Du        
   1062 ****       -43.7500   5.7500 -31.7500 Du        
   1063 ****       -43.7500   5.7500 -31.5000 Du        
   1064 ****       -43.7500   5.7500 -31.2500 Du        
   1065 ****       -43.7500   5.7500 -31.0000 Du        
   1066 ****       -43.7500   5.7500 -30.7500 Du        
   1067 ****       -43.7500   5.7500 -30.5000 Du        
   1068 ****       -43.7500   5.7500 -30.2500 Du        
   1069 ****       -43.7500   6.0000 -32.2500 Du        
   1070 ****       -43.7500   6.0000 -32.0000 Du        
   1071 ****       -43.7500   6.0000 -31.7500 Du        
   1072 ****       -43.7500   6.0000 -31.5000 Du        
   1073 ****       -43.7500   6.0000 -31.2500 Du        
   1074 ****       -43.7500   6.0000 -31.0000 Du        
   1075 ****       -43.7500   6.0000 -30.7500 Du        
   1076 ****       -43.7500   6.0000 -30.5000 Du        
   1077 ****       -43.7500   6.0000 -30.2500 Du        
   1078 ****       -43.7500   6.0000 -30.0000 Du        
   1079 ****       -43.7500   6.2500 -32.2500 Du        
   1080 ****       -43.7500   6.2500 -32.0000 Du        
   1081 ****       -43.7500   6.2500 -31.7500 Du        
   1082 ****       -43.7500   6.2500 -31.5000 Du        
   1083 ****       -43.7500   6.2500 -31.2500 Du        
   1084 ****       -43.7500   6.2500 -31.0000 Du        
   1085 ****       -43.7500   6.2500 -30.7500 Du        
   1086 ****       -43.7500   6.2500 -30.5000 Du        
   1087 ****       -43.7500   6.2500 -30.2500 Du        
   1088 ****       -43.7500   6.5000 -32.0000 Du        
   1089 ****       -43.7500   6.5000 -31.7500 Du        
   1090 ****       -43.7500   6.5000 -31.5000 Du        
   1091 ****       -43.7500   6.5000 -31.2500 Du        
   1092 ****       -43.7500   6.5000 -31.0000 Du        
   1093 ****       -43.7500   6.5000 -30.7500 Du        
   1094 ****       -43.7500   6.5000 -30.5000 Du        
   1095 ****       -43.7500   6.5000 -30.2500 Du        
   1096 ****       -43.7500   6.7500 -31.7500 Du        
   1097 ****       -43.7500   6.7500 -31.5000 Du        
   1098 ****       -43.7500   6.7500 -31.2500 Du        
   1099 ****       -43.7500   6.7500 -31.0000 Du        
   1100 ****       -43.7500   6.7500 -30.7500 Du        
   1101 ****       -43.7500   6.7500 -30.5000 Du        
   1102 ****       -43.7500   6.7500 -30.2500 Du        
   1103 ****       -43.7500   7.0000 -31.7500 Du        
   1104 ****       -43.7500   7.0000 -31.5000 Du        
   1105 ****       -43.7500   7.0000 -31.2500 Du        
   1106 ****       -43.7500   7.0000 -31.0000 Du        
   1107 ****       -43.7500   7.0000 -30.7500 Du        
   1108 ****       -43.7500   7.0000 -30.5000 Du        
   1109 ****       -43.7500   7.0000 -30.2500 Du        
   1110 ****       -43.7500   7.2500 -31.5000 Du        
   1111 ****       -43.7500   7.2500 -31.2500 Du        
   1112 ****       -43.7500   7.2500 -31.0000 Du        
   1113 ****       -43.7500   7.2500 -30.7500 Du        
   1114 ****       -43.7500   7.2500 -30.5000 Du        
   1115 ****       -43.7500   7.2500 -30.2500 Du        
   1116 ****       -43.7500   7.5000 -31.5000 Du        
   1117 ****       -43.7500   7.5000 -31.2500 Du        
   1118 ****       -43.7500   7.5000 -31.0000 Du        
   1119 ****       -43.7500   7.5000 -30.7500 Du        
   1120 ****       -43.7500   7.5000 -30.5000 Du        
   1121 ****       -43.7500   7.5000 -30.2500 Du        
   1122 ****       -43.7500   7.7500 -31.2500 Du        
   1123 ****       -43.7500   7.7500 -31.0000 Du        
   1124 ****       -43.7500   7.7500 -30.7500 Du        
   1125 ****       -43.7500   7.7500 -30.5000 Du        
   1126 ****       -43.7500   8.0000 -31.0000 Du        
   1127 ****       -43.7500   8.0000 -30.7500 Du        
   1128 ****       -43.7500   8.0000 -30.5000 Du        
   1129 ****       -43.5000   2.7500 -25.0000 Du        
   1130 ****       -43.5000   2.7500 -24.7500 Du        
   1131 ****       -43.5000   3.0000 -25.0000 Du        
   1132 ****       -43.5000   3.0000 -24.7500 Du        
   1133 ****       -43.5000   3.0000 -24.5000 Du        
   1134 ****       -43.5000   3.2500 -25.0000 Du        
   1135 ****       -43.5000   3.2500 -24.7500 Du        
   1136 ****       -43.5000   3.2500 -24.5000 Du        
   1137 ****       -43.5000   3.2500 -24.2500 Du        
   1138 ****       -43.5000   3.5000 -25.2500 Du        
   1139 ****       -43.5000   3.5000 -25.0000 Du        
   1140 ****       -43.5000   3.5000 -24.7500 Du        
   1141 ****       -43.5000   3.5000 -24.5000 Du        
   1142 ****       -43.5000   3.5000 -24.2500 Du        
   1143 ****       -43.5000   3.5000 -24.0000 Du        
   1144 ****       -43.5000   3.7500 -34.0000 Du        
   1145 ****       -43.5000   3.7500 -24.5000 Du        
   1146 ****       -43.5000   3.7500 -24.2500 Du        
   1147 ****       -43.5000   3.7500 -24.0000 Du        
   1148 ****       -43.5000   4.0000 -34.2500 Du        
   1149 ****       -43.5000   4.0000 -34.0000 Du        
   1150 ****       -43.5000   4.0000 -33.7500 Du        
   1151 ****       -43.5000   4.0000 -33.5000 Du        
   1152 ****       -43.5000   4.0000 -24.2500 Du        
   1153 ****       -43.5000   4.0000 -24.0000 Du        
   1154 ****       -43.5000   4.0000 -23.7500 Du        
   1155 ****       -43.5000   4.2500 -34.2500 Du        
   1156 ****       -43.5000   4.2500 -34.0000 Du        
   1157 ****       -43.5000   4.2500 -33.7500 Du        
   1158 ****       -43.5000   4.2500 -33.5000 Du        
   1159 ****       -43.5000   4.5000 -34.2500 Du        
   1160 ****       -43.5000   4.5000 -34.0000 Du        
   1161 ****       -43.5000   4.5000 -33.7500 Du        
   1162 ****       -43.5000   4.5000 -33.5000 Du        
   1163 ****       -43.5000   4.5000 -33.2500 Du        
   1164 ****       -43.5000   4.7500 -33.7500 Du        
   1165 ****       -43.5000   4.7500 -33.5000 Du        
   1166 ****       -43.5000   5.5000 -32.0000 Du        
   1167 ****       -43.5000   5.5000 -31.7500 Du        
   1168 ****       -43.5000   5.5000 -31.5000 Du        
   1169 ****       -43.5000   5.5000 -31.2500 Du        
   1170 ****       -43.5000   5.5000 -31.0000 Du        
   1171 ****       -43.5000   5.5000 -30.7500 Du        
   1172 ****       -43.5000   5.5000 -30.5000 Du        
   1173 ****       -43.5000   5.5000 -30.2500 Du        
   1174 ****       -43.5000   5.5000 -30.0000 Du        
   1175 ****       -43.5000   5.5000 -29.7500 Du        
   1176 ****       -43.5000   5.7500 -32.0000 Du        
   1177 ****       -43.5000   5.7500 -31.7500 Du        
   1178 ****       -43.5000   5.7500 -31.5000 Du        
   1179 ****       -43.5000   5.7500 -31.2500 Du        
   1180 ****       -43.5000   5.7500 -31.0000 Du        
   1181 ****       -43.5000   5.7500 -30.7500 Du        
   1182 ****       -43.5000   5.7500 -30.5000 Du        
   1183 ****       -43.5000   5.7500 -30.2500 Du        
   1184 ****       -43.5000   5.7500 -30.0000 Du        
   1185 ****       -43.5000   5.7500 -29.7500 Du        
   1186 ****       -43.5000   6.0000 -32.0000 Du        
   1187 ****       -43.5000   6.0000 -31.7500 Du        
   1188 ****       -43.5000   6.0000 -31.5000 Du        
   1189 ****       -43.5000   6.0000 -31.2500 Du        
   1190 ****       -43.5000   6.0000 -31.0000 Du        
   1191 ****       -43.5000   6.0000 -30.7500 Du        
   1192 ****       -43.5000   6.0000 -30.5000 Du        
   1193 ****       -43.5000   6.0000 -30.2500 Du        
   1194 ****       -43.5000   6.0000 -30.0000 Du        
   1195 ****       -43.5000   6.2500 -32.0000 Du        
   1196 ****       -43.5000   6.2500 -31.7500 Du        
   1197 ****       -43.5000   6.2500 -31.5000 Du        
   1198 ****       -43.5000   6.2500 -31.2500 Du        
   1199 ****       -43.5000   6.2500 -31.0000 Du        
   1200 ****       -43.5000   6.2500 -30.7500 Du        
   1201 ****       -43.5000   6.2500 -30.5000 Du        
   1202 ****       -43.5000   6.2500 -30.2500 Du        
   1203 ****       -43.5000   6.2500 -30.0000 Du        
   1204 ****       -43.5000   6.5000 -31.7500 Du        
   1205 ****       -43.5000   6.5000 -31.5000 Du        
   1206 ****       -43.5000   6.5000 -31.2500 Du        
   1207 ****       -43.5000   6.5000 -31.0000 Du        
   1208 ****       -43.5000   6.5000 -30.7500 Du        
   1209 ****       -43.5000   6.5000 -30.5000 Du        
   1210 ****       -43.5000   6.5000 -30.2500 Du        
   1211 ****       -43.5000   6.5000 -30.0000 Du        
   1212 ****       -43.5000   6.7500 -31.7500 Du        
   1213 ****       -43.5000   6.7500 -31.5000 Du        
   1214 ****       -43.5000   6.7500 -31.2500 Du        
   1215 ****       -43.5000   6.7500 -31.0000 Du        
   1216 ****       -43.5000   6.7500 -30.7500 Du        
   1217 ****       -43.5000   6.7500 -30.5000 Du        
   1218 ****       -43.5000   6.7500 -30.2500 Du        
   1219 ****       -43.5000   7.0000 -31.5000 Du        
   1220 ****       -43.5000   7.0000 -31.2500 Du        
   1221 ****       -43.5000   7.0000 -31.0000 Du        
   1222 ****       -43.5000   7.0000 -30.7500 Du        
   1223 ****       -43.5000   7.0000 -30.5000 Du        
   1224 ****       -43.5000   7.0000 -30.2500 Du        
   1225 ****       -43.5000   7.2500 -31.5000 Du        
   1226 ****       -43.5000   7.2500 -31.2500 Du        
   1227 ****       -43.5000   7.2500 -31.0000 Du        
   1228 ****       -43.5000   7.2500 -30.7500 Du        
   1229 ****       -43.5000   7.2500 -30.5000 Du        
   1230 ****       -43.5000   7.2500 -30.2500 Du        
   1231 ****       -43.5000   7.5000 -31.2500 Du        
   1232 ****       -43.5000   7.5000 -31.0000 Du        
   1233 ****       -43.5000   7.5000 -30.7500 Du        
   1234 ****       -43.5000   7.5000 -30.5000 Du        
   1235 ****       -43.5000   7.5000 -30.2500 Du        
   1236 ****       -43.5000   7.7500 -31.0000 Du        
   1237 ****       -43.5000   7.7500 -30.7500 Du        
   1238 ****       -43.5000   7.7500 -30.5000 Du        
   1239 ****       -43.2500   2.5000 -24.7500 Du        
   1240 ****       -43.2500   2.7500 -25.0000 Du        
   1241 ****       -43.2500   2.7500 -24.7500 Du        
   1242 ****       -43.2500   2.7500 -24.5000 Du        
   1243 ****       -43.2500   3.0000 -25.2500 Du        
   1244 ****       -43.2500   3.0000 -25.0000 Du        
   1245 ****       -43.2500   3.0000 -24.7500 Du        
   1246 ****       -43.2500   3.0000 -24.5000 Du        
   1247 ****       -43.2500   3.2500 -25.2500 Du        
   1248 ****       -43.2500   3.2500 -25.0000 Du        
   1249 ****       -43.2500   3.2500 -24.7500 Du        
   1250 ****       -43.2500   3.2500 -24.5000 Du        
   1251 ****       -43.2500   3.2500 -24.2500 Du        
   1252 ****       -43.2500   3.5000 -25.0000 Du        
   1253 ****       -43.2500   3.5000 -24.7500 Du        
   1254 ****       -43.2500   3.5000 -24.5000 Du        
   1255 ****       -43.2500   3.5000 -24.2500 Du        
   1256 ****       -43.2500   3.7500 -24.2500 Du        
   1257 ****       -43.2500   5.5000 -31.5000 Du        
   1258 ****       -43.2500   5.5000 -31.2500 Du        
   1259 ****       -43.2500   5.5000 -31.0000 Du        
   1260 ****       -43.2500   5.5000 -30.7500 Du        
   1261 ****       -43.2500   5.5000 -30.5000 Du        
   1262 ****       -43.2500   5.5000 -30.2500 Du        
   1263 ****       -43.2500   5.5000 -30.0000 Du        
   1264 ****       -43.2500   5.5000 -29.7500 Du        
   1265 ****       -43.2500   5.5000 -29.5000 Du        
   1266 ****       -43.2500   5.7500 -31.7500 Du        
   1267 ****       -43.2500   5.7500 -31.5000 Du        
   1268 ****       -43.2500   5.7500 -31.2500 Du        
   1269 ****       -43.2500   5.7500 -31.0000 Du        
   1270 ****       -43.2500   5.7500 -30.7500 Du        
   1271 ****       -43.2500   5.7500 -30.5000 Du        
   1272 ****       -43.2500   5.7500 -30.2500 Du        
   1273 ****       -43.2500   5.7500 -30.0000 Du        
   1274 ****       -43.2500   5.7500 -29.7500 Du        
   1275 ****       -43.2500   5.7500 -29.5000 Du        
   1276 ****       -43.2500   6.0000 -31.7500 Du        
   1277 ****       -43.2500   6.0000 -31.5000 Du        
   1278 ****       -43.2500   6.0000 -31.2500 Du        
   1279 ****       -43.2500   6.0000 -31.0000 Du        
   1280 ****       -43.2500   6.0000 -30.7500 Du        
   1281 ****       -43.2500   6.0000 -30.5000 Du        
   1282 ****       -43.2500   6.0000 -30.2500 Du        
   1283 ****       -43.2500   6.0000 -30.0000 Du        
   1284 ****       -43.2500   6.0000 -29.7500 Du        
   1285 ****       -43.2500   6.2500 -31.5000 Du        
   1286 ****       -43.2500   6.2500 -31.2500 Du        
   1287 ****       -43.2500   6.2500 -31.0000 Du        
   1288 ****       -43.2500   6.2500 -30.7500 Du        
   1289 ****       -43.2500   6.2500 -30.5000 Du        
   1290 ****       -43.2500   6.2500 -30.2500 Du        
   1291 ****       -43.2500   6.2500 -30.0000 Du        
   1292 ****       -43.2500   6.2500 -29.7500 Du        
   1293 ****       -43.2500   6.5000 -31.5000 Du        
   1294 ****       -43.2500   6.5000 -31.2500 Du        
   1295 ****       -43.2500   6.5000 -31.0000 Du        
   1296 ****       -43.2500   6.5000 -30.7500 Du        
   1297 ****       -43.2500   6.5000 -30.5000 Du        
   1298 ****       -43.2500   6.5000 -30.2500 Du        
   1299 ****       -43.2500   6.5000 -30.0000 Du        
   1300 ****       -43.2500   6.7500 -31.5000 Du        
   1301 ****       -43.2500   6.7500 -31.2500 Du        
   1302 ****       -43.2500   6.7500 -31.0000 Du        
   1303 ****       -43.2500   6.7500 -30.7500 Du        
   1304 ****       -43.2500   6.7500 -30.5000 Du        
   1305 ****       -43.2500   6.7500 -30.2500 Du        
   1306 ****       -43.2500   6.7500 -30.0000 Du        
   1307 ****       -43.2500   7.0000 -31.5000 Du        
   1308 ****       -43.2500   7.0000 -31.2500 Du        
   1309 ****       -43.2500   7.0000 -31.0000 Du        
   1310 ****       -43.2500   7.0000 -30.7500 Du        
   1311 ****       -43.2500   7.0000 -30.5000 Du        
   1312 ****       -43.2500   7.0000 -30.2500 Du        
   1313 ****       -43.2500   7.0000 -30.0000 Du        
   1314 ****       -43.2500   7.2500 -31.2500 Du        
   1315 ****       -43.2500   7.2500 -31.0000 Du        
   1316 ****       -43.2500   7.2500 -30.7500 Du        
   1317 ****       -43.2500   7.2500 -30.5000 Du        
   1318 ****       -43.2500   7.2500 -30.2500 Du        
   1319 ****       -43.2500   7.5000 -31.2500 Du        
   1320 ****       -43.2500   7.5000 -31.0000 Du        
   1321 ****       -43.2500   7.5000 -30.7500 Du        
   1322 ****       -43.2500   7.5000 -30.5000 Du        
   1323 ****       -43.2500   7.5000 -30.2500 Du        
   1324 ****       -43.2500   7.7500 -31.0000 Du        
   1325 ****       -43.2500   7.7500 -30.7500 Du        
   1326 ****       -43.2500   7.7500 -30.5000 Du        
   1327 ****       -43.0000   2.5000 -25.0000 Du        
   1328 ****       -43.0000   2.5000 -24.7500 Du        
   1329 ****       -43.0000   2.5000 -24.5000 Du        
   1330 ****       -43.0000   2.7500 -25.0000 Du        
   1331 ****       -43.0000   2.7500 -24.7500 Du        
   1332 ****       -43.0000   2.7500 -24.5000 Du        
   1333 ****       -43.0000   3.0000 -25.2500 Du        
   1334 ****       -43.0000   3.0000 -25.0000 Du        
   1335 ****       -43.0000   3.0000 -24.7500 Du        
   1336 ****       -43.0000   3.0000 -24.5000 Du        
   1337 ****       -43.0000   3.2500 -25.2500 Du        
   1338 ****       -43.0000   3.2500 -25.0000 Du        
   1339 ****       -43.0000   3.2500 -24.7500 Du        
   1340 ****       -43.0000   3.2500 -24.5000 Du        
   1341 ****       -43.0000   3.2500 -24.2500 Du        
   1342 ****       -43.0000   3.5000 -24.5000 Du        
   1343 ****       -43.0000   5.2500 -30.0000 Du        
   1344 ****       -43.0000   5.5000 -31.0000 Du        
   1345 ****       -43.0000   5.5000 -30.7500 Du        
   1346 ****       -43.0000   5.5000 -30.5000 Du        
   1347 ****       -43.0000   5.5000 -30.2500 Du        
   1348 ****       -43.0000   5.5000 -30.0000 Du        
   1349 ****       -43.0000   5.5000 -29.7500 Du        
   1350 ****       -43.0000   5.5000 -29.5000 Du        
   1351 ****       -43.0000   5.5000 -29.2500 Du        
   1352 ****       -43.0000   5.7500 -31.2500 Du        
   1353 ****       -43.0000   5.7500 -31.0000 Du        
   1354 ****       -43.0000   5.7500 -30.7500 Du        
   1355 ****       -43.0000   5.7500 -30.5000 Du        
   1356 ****       -43.0000   5.7500 -30.2500 Du        
   1357 ****       -43.0000   5.7500 -30.0000 Du        
   1358 ****       -43.0000   5.7500 -29.7500 Du        
   1359 ****       -43.0000   5.7500 -29.5000 Du        
   1360 ****       -43.0000   5.7500 -29.2500 Du        
   1361 ****       -43.0000   6.0000 -31.5000 Du        
   1362 ****       -43.0000   6.0000 -31.2500 Du        
   1363 ****       -43.0000   6.0000 -31.0000 Du        
   1364 ****       -43.0000   6.0000 -30.7500 Du        
   1365 ****       -43.0000   6.0000 -30.5000 Du        
   1366 ****       -43.0000   6.0000 -30.2500 Du        
   1367 ****       -43.0000   6.0000 -30.0000 Du        
   1368 ****       -43.0000   6.0000 -29.7500 Du        
   1369 ****       -43.0000   6.0000 -29.5000 Du        
   1370 ****       -43.0000   6.2500 -31.5000 Du        
   1371 ****       -43.0000   6.2500 -31.2500 Du        
   1372 ****       -43.0000   6.2500 -31.0000 Du        
   1373 ****       -43.0000   6.2500 -30.7500 Du        
   1374 ****       -43.0000   6.2500 -30.5000 Du        
   1375 ****       -43.0000   6.2500 -30.2500 Du        
   1376 ****       -43.0000   6.2500 -30.0000 Du        
   1377 ****       -43.0000   6.2500 -29.7500 Du        
   1378 ****       -43.0000   6.5000 -31.2500 Du        
   1379 ****       -43.0000   6.5000 -31.0000 Du        
   1380 ****       -43.0000   6.5000 -30.7500 Du        
   1381 ****       -43.0000   6.5000 -30.5000 Du        
   1382 ****       -43.0000   6.5000 -30.2500 Du        
   1383 ****       -43.0000   6.5000 -30.0000 Du        
   1384 ****       -43.0000   6.5000 -29.7500 Du        
   1385 ****       -43.0000   6.7500 -31.2500 Du        
   1386 ****       -43.0000   6.7500 -31.0000 Du        
   1387 ****       -43.0000   6.7500 -30.7500 Du        
   1388 ****       -43.0000   6.7500 -30.5000 Du        
   1389 ****       -43.0000   6.7500 -30.2500 Du        
   1390 ****       -43.0000   6.7500 -30.0000 Du        
   1391 ****       -43.0000   6.7500 -29.7500 Du        
   1392 ****       -43.0000   7.0000 -31.2500 Du        
   1393 ****       -43.0000   7.0000 -31.0000 Du        
   1394 ****       -43.0000   7.0000 -30.7500 Du        
   1395 ****       -43.0000   7.0000 -30.5000 Du        
   1396 ****       -43.0000   7.0000 -30.2500 Du        
   1397 ****       -43.0000   7.0000 -30.0000 Du        
   1398 ****       -43.0000   7.2500 -31.2500 Du        
   1399 ****       -43.0000   7.2500 -31.0000 Du        
   1400 ****       -43.0000   7.2500 -30.7500 Du        
   1401 ****       -43.0000   7.2500 -30.5000 Du        
   1402 ****       -43.0000   7.2500 -30.2500 Du        
   1403 ****       -43.0000   7.2500 -30.0000 Du        
   1404 ****       -43.0000   7.5000 -31.0000 Du        
   1405 ****       -43.0000   7.5000 -30.7500 Du        
   1406 ****       -43.0000   7.5000 -30.5000 Du        
   1407 ****       -43.0000   7.5000 -30.2500 Du        
   1408 ****       -42.7500   2.2500 -24.7500 Du        
   1409 ****       -42.7500   2.2500 -24.5000 Du        
   1410 ****       -42.7500   2.5000 -25.0000 Du        
   1411 ****       -42.7500   2.5000 -24.7500 Du        
   1412 ****       -42.7500   2.5000 -24.5000 Du        
   1413 ****       -42.7500   2.7500 -25.0000 Du        
   1414 ****       -42.7500   2.7500 -24.7500 Du        
   1415 ****       -42.7500   2.7500 -24.5000 Du        
   1416 ****       -42.7500   3.0000 -25.2500 Du        
   1417 ****       -42.7500   3.0000 -25.0000 Du        
   1418 ****       -42.7500   3.0000 -24.7500 Du        
   1419 ****       -42.7500   3.0000 -24.5000 Du        
   1420 ****       -42.7500   3.2500 -25.2500 Du        
   1421 ****       -42.7500   3.2500 -25.0000 Du        
   1422 ****       -42.7500   3.2500 -24.7500 Du        
   1423 ****       -42.7500   3.2500 -24.5000 Du        
   1424 ****       -42.7500   5.2500 -30.0000 Du        
   1425 ****       -42.7500   5.2500 -29.7500 Du        
   1426 ****       -42.7500   5.2500 -29.5000 Du        
   1427 ****       -42.7500   5.2500 -29.2500 Du        
   1428 ****       -42.7500   5.2500 -29.0000 Du        
   1429 ****       -42.7500   5.5000 -30.5000 Du        
   1430 ****       -42.7500   5.5000 -30.2500 Du        
   1431 ****       -42.7500   5.5000 -30.0000 Du        
   1432 ****       -42.7500   5.5000 -29.7500 Du        
   1433 ****       -42.7500   5.5000 -29.5000 Du        
   1434 ****       -42.7500   5.5000 -29.2500 Du        
   1435 ****       -42.7500   5.5000 -29.0000 Du        
   1436 ****       -42.7500   5.5000 -28.7500 Du        
   1437 ****       -42.7500   5.7500 -30.7500 Du        
   1438 ****       -42.7500   5.7500 -30.5000 Du        
   1439 ****       -42.7500   5.7500 -30.2500 Du        
   1440 ****       -42.7500   5.7500 -30.0000 Du        
   1441 ****       -42.7500   5.7500 -29.7500 Du        
   1442 ****       -42.7500   5.7500 -29.5000 Du        
   1443 ****       -42.7500   5.7500 -29.2500 Du        
   1444 ****       -42.7500   5.7500 -29.0000 Du        
   1445 ****       -42.7500   6.0000 -31.0000 Du        
   1446 ****       -42.7500   6.0000 -30.7500 Du        
   1447 ****       -42.7500   6.0000 -30.5000 Du        
   1448 ****       -42.7500   6.0000 -30.2500 Du        
   1449 ****       -42.7500   6.0000 -30.0000 Du        
   1450 ****       -42.7500   6.0000 -29.7500 Du        
   1451 ****       -42.7500   6.0000 -29.5000 Du        
   1452 ****       -42.7500   6.0000 -29.2500 Du        
   1453 ****       -42.7500   6.2500 -31.0000 Du        
   1454 ****       -42.7500   6.2500 -30.7500 Du        
   1455 ****       -42.7500   6.2500 -30.5000 Du        
   1456 ****       -42.7500   6.2500 -30.2500 Du        
   1457 ****       -42.7500   6.2500 -30.0000 Du        
   1458 ****       -42.7500   6.2500 -29.7500 Du        
   1459 ****       -42.7500   6.2500 -29.5000 Du        
   1460 ****       -42.7500   6.5000 -31.0000 Du        
   1461 ****       -42.7500   6.5000 -30.7500 Du        
   1462 ****       -42.7500   6.5000 -30.5000 Du        
   1463 ****       -42.7500   6.5000 -30.2500 Du        
   1464 ****       -42.7500   6.5000 -30.0000 Du        
   1465 ****       -42.7500   6.5000 -29.7500 Du        
   1466 ****       -42.7500   6.5000 -29.5000 Du        
   1467 ****       -42.7500   6.7500 -31.0000 Du        
   1468 ****       -42.7500   6.7500 -30.7500 Du        
   1469 ****       -42.7500   6.7500 -30.5000 Du        
   1470 ****       -42.7500   6.7500 -30.2500 Du        
   1471 ****       -42.7500   6.7500 -30.0000 Du        
   1472 ****       -42.7500   6.7500 -29.7500 Du        
   1473 ****       -42.7500   7.0000 -31.0000 Du        
   1474 ****       -42.7500   7.0000 -30.7500 Du        
   1475 ****       -42.7500   7.0000 -30.5000 Du        
   1476 ****       -42.7500   7.0000 -30.2500 Du        
   1477 ****       -42.7500   7.0000 -30.0000 Du        
   1478 ****       -42.7500   7.0000 -29.7500 Du        
   1479 ****       -42.7500   7.2500 -31.0000 Du        
   1480 ****       -42.7500   7.2500 -30.7500 Du        
   1481 ****       -42.7500   7.2500 -30.5000 Du        
   1482 ****       -42.7500   7.2500 -30.2500 Du        
   1483 ****       -42.7500   7.2500 -30.0000 Du        
   1484 ****       -42.7500   7.5000 -30.7500 Du        
   1485 ****       -42.7500   7.5000 -30.5000 Du        
   1486 ****       -42.5000   1.2500 -24.5000 Du        
   1487 ****       -42.5000   1.2500 -24.2500 Du        
   1488 ****       -42.5000   1.7500 -24.5000 Du        
   1489 ****       -42.5000   2.0000 -24.7500 Du        
   1490 ****       -42.5000   2.0000 -24.5000 Du        
   1491 ****       -42.5000   2.2500 -24.7500 Du        
   1492 ****       -42.5000   2.2500 -24.5000 Du        
   1493 ****       -42.5000   2.5000 -25.0000 Du        
   1494 ****       -42.5000   2.5000 -24.7500 Du        
   1495 ****       -42.5000   2.5000 -24.5000 Du        
   1496 ****       -42.5000   2.5000 -24.2500 Du        
   1497 ****       -42.5000   2.7500 -25.0000 Du        
   1498 ****       -42.5000   2.7500 -24.7500 Du        
   1499 ****       -42.5000   2.7500 -24.5000 Du        
   1500 ****       -42.5000   2.7500 -24.2500 Du        
   1501 ****       -42.5000   3.0000 -25.2500 Du        
   1502 ****       -42.5000   3.0000 -25.0000 Du        
   1503 ****       -42.5000   3.0000 -24.7500 Du        
   1504 ****       -42.5000   3.0000 -24.5000 Du        
   1505 ****       -42.5000   3.0000 -24.2500 Du        
   1506 ****       -42.5000   3.2500 -25.2500 Du        
   1507 ****       -42.5000   3.2500 -25.0000 Du        
   1508 ****       -42.5000   3.2500 -24.7500 Du        
   1509 ****       -42.5000   3.2500 -24.5000 Du        
   1510 ****       -42.5000   5.2500 -29.7500 Du        
   1511 ****       -42.5000   5.2500 -29.5000 Du        
   1512 ****       -42.5000   5.2500 -29.2500 Du        
   1513 ****       -42.5000   5.2500 -29.0000 Du        
   1514 ****       -42.5000   5.2500 -28.7500 Du        
   1515 ****       -42.5000   5.2500 -28.5000 Du        
   1516 ****       -42.5000   5.2500 -28.2500 Du        
   1517 ****       -42.5000   5.5000 -30.2500 Du        
   1518 ****       -42.5000   5.5000 -30.0000 Du        
   1519 ****       -42.5000   5.5000 -29.7500 Du        
   1520 ****       -42.5000   5.5000 -29.5000 Du        
   1521 ****       -42.5000   5.5000 -29.2500 Du        
   1522 ****       -42.5000   5.5000 -29.0000 Du        
   1523 ****       -42.5000   5.5000 -28.7500 Du        
   1524 ****       -42.5000   5.5000 -28.5000 Du        
   1525 ****       -42.5000   5.7500 -30.5000 Du        
   1526 ****       -42.5000   5.7500 -30.2500 Du        
   1527 ****       -42.5000   5.7500 -30.0000 Du        
   1528 ****       -42.5000   5.7500 -29.7500 Du        
   1529 ****       -42.5000   5.7500 -29.5000 Du        
   1530 ****       -42.5000   5.7500 -29.2500 Du        
   1531 ****       -42.5000   5.7500 -29.0000 Du        
   1532 ****       -42.5000   5.7500 -28.7500 Du        
   1533 ****       -42.5000   6.0000 -30.7500 Du        
   1534 ****       -42.5000   6.0000 -30.5000 Du        
   1535 ****       -42.5000   6.0000 -30.2500 Du        
   1536 ****       -42.5000   6.0000 -30.0000 Du        
   1537 ****       -42.5000   6.0000 -29.7500 Du        
   1538 ****       -42.5000   6.0000 -29.5000 Du        
   1539 ****       -42.5000   6.0000 -29.2500 Du        
   1540 ****       -42.5000   6.0000 -29.0000 Du        
   1541 ****       -42.5000   6.2500 -30.7500 Du        
   1542 ****       -42.5000   6.2500 -30.5000 Du        
   1543 ****       -42.5000   6.2500 -30.2500 Du        
   1544 ****       -42.5000   6.2500 -30.0000 Du        
   1545 ****       -42.5000   6.2500 -29.7500 Du        
   1546 ****       -42.5000   6.2500 -29.5000 Du        
   1547 ****       -42.5000   6.2500 -29.2500 Du        
   1548 ****       -42.5000   6.5000 -30.7500 Du        
   1549 ****       -42.5000   6.5000 -30.5000 Du        
   1550 ****       -42.5000   6.5000 -30.2500 Du        
   1551 ****       -42.5000   6.5000 -30.0000 Du        
   1552 ****       -42.5000   6.5000 -29.7500 Du        
   1553 ****       -42.5000   6.5000 -29.5000 Du        
   1554 ****       -42.5000   6.5000 -29.2500 Du        
   1555 ****       -42.5000   6.7500 -31.0000 Du        
   1556 ****       -42.5000   6.7500 -30.7500 Du        
   1557 ****       -42.5000   6.7500 -30.5000 Du        
   1558 ****       -42.5000   6.7500 -30.2500 Du        
   1559 ****       -42.5000   6.7500 -30.0000 Du        
   1560 ****       -42.5000   6.7500 -29.7500 Du        
   1561 ****       -42.5000   6.7500 -29.5000 Du        
   1562 ****       -42.5000   7.0000 -30.7500 Du        
   1563 ****       -42.5000   7.0000 -30.5000 Du        
   1564 ****       -42.5000   7.0000 -30.2500 Du        
   1565 ****       -42.5000   7.0000 -30.0000 Du        
   1566 ****       -42.5000   7.0000 -29.7500 Du        
   1567 ****       -42.5000   7.2500 -30.7500 Du        
   1568 ****       -42.5000   7.2500 -30.5000 Du        
   1569 ****       -42.5000   7.2500 -30.2500 Du        
   1570 ****       -42.5000   7.2500 -30.0000 Du        
   1571 ****       -42.2500   1.0000 -24.2500 Du        
   1572 ****       -42.2500   1.2500 -24.5000 Du        
   1573 ****       -42.2500   1.2500 -24.2500 Du        
   1574 ****       -42.2500   1.5000 -24.5000 Du        
   1575 ****       -42.2500   1.5000 -24.2500 Du        
   1576 ****       -42.2500   1.7500 -24.7500 Du        
   1577 ****       -42.2500   1.7500 -24.5000 Du        
   1578 ****       -42.2500   1.7500 -24.2500 Du        
   1579 ****       -42.2500   2.0000 -24.7500 Du        
   1580 ****       -42.2500   2.0000 -24.5000 Du        
   1581 ****       -42.2500   2.2500 -24.7500 Du        
   1582 ****       -42.2500   2.2500 -24.5000 Du        
   1583 ****       -42.2500   2.5000 -25.0000 Du        
   1584 ****       -42.2500   2.5000 -24.7500 Du        
   1585 ****       -42.2500   2.5000 -24.5000 Du        
   1586 ****       -42.2500   2.5000 -24.2500 Du        
   1587 ****       -42.2500   2.7500 -25.0000 Du        
   1588 ****       -42.2500   2.7500 -24.7500 Du        
   1589 ****       -42.2500   2.7500 -24.5000 Du        
   1590 ****       -42.2500   2.7500 -24.2500 Du        
   1591 ****       -42.2500   3.0000 -25.2500 Du        
   1592 ****       -42.2500   3.0000 -25.0000 Du        
   1593 ****       -42.2500   3.0000 -24.7500 Du        
   1594 ****       -42.2500   3.0000 -24.5000 Du        
   1595 ****       -42.2500   3.0000 -24.2500 Du        
   1596 ****       -42.2500   3.2500 -25.2500 Du        
   1597 ****       -42.2500   3.2500 -25.0000 Du        
   1598 ****       -42.2500   3.2500 -24.7500 Du        
   1599 ****       -42.2500   3.2500 -24.5000 Du        
   1600 ****       -42.2500   3.2500 -24.2500 Du        
   1601 ****       -42.2500   5.0000 -28.5000 Du        
   1602 ****       -42.2500   5.0000 -28.2500 Du        
   1603 ****       -42.2500   5.0000 -28.0000 Du        
   1604 ****       -42.2500   5.2500 -29.7500 Du        
   1605 ****       -42.2500   5.2500 -29.5000 Du        
   1606 ****       -42.2500   5.2500 -29.2500 Du        
   1607 ****       -42.2500   5.2500 -29.0000 Du        
   1608 ****       -42.2500   5.2500 -28.7500 Du        
   1609 ****       -42.2500   5.2500 -28.5000 Du        
   1610 ****       -42.2500   5.2500 -28.2500 Du        
   1611 ****       -42.2500   5.2500 -28.0000 Du        
   1612 ****       -42.2500   5.5000 -30.0000 Du        
   1613 ****       -42.2500   5.5000 -29.7500 Du        
   1614 ****       -42.2500   5.5000 -29.5000 Du        
   1615 ****       -42.2500   5.5000 -29.2500 Du        
   1616 ****       -42.2500   5.5000 -29.0000 Du        
   1617 ****       -42.2500   5.5000 -28.7500 Du        
   1618 ****       -42.2500   5.5000 -28.5000 Du        
   1619 ****       -42.2500   5.5000 -28.2500 Du        
   1620 ****       -42.2500   5.7500 -30.2500 Du        
   1621 ****       -42.2500   5.7500 -30.0000 Du        
   1622 ****       -42.2500   5.7500 -29.7500 Du        
   1623 ****       -42.2500   5.7500 -29.5000 Du        
   1624 ****       -42.2500   5.7500 -29.2500 Du        
   1625 ****       -42.2500   5.7500 -29.0000 Du        
   1626 ****       -42.2500   5.7500 -28.7500 Du        
   1627 ****       -42.2500   5.7500 -28.5000 Du        
   1628 ****       -42.2500   6.0000 -30.5000 Du        
   1629 ****       -42.2500   6.0000 -30.2500 Du        
   1630 ****       -42.2500   6.0000 -30.0000 Du        
   1631 ****       -42.2500   6.0000 -29.7500 Du        
   1632 ****       -42.2500   6.0000 -29.5000 Du        
   1633 ****       -42.2500   6.0000 -29.2500 Du        
   1634 ****       -42.2500   6.0000 -29.0000 Du        
   1635 ****       -42.2500   6.0000 -28.7500 Du        
   1636 ****       -42.2500   6.2500 -30.5000 Du        
   1637 ****       -42.2500   6.2500 -30.2500 Du        
   1638 ****       -42.2500   6.2500 -30.0000 Du        
   1639 ****       -42.2500   6.2500 -29.7500 Du        
   1640 ****       -42.2500   6.2500 -29.5000 Du        
   1641 ****       -42.2500   6.2500 -29.2500 Du        
   1642 ****       -42.2500   6.2500 -29.0000 Du        
   1643 ****       -42.2500   6.5000 -30.5000 Du        
   1644 ****       -42.2500   6.5000 -30.2500 Du        
   1645 ****       -42.2500   6.5000 -30.0000 Du        
   1646 ****       -42.2500   6.5000 -29.7500 Du        
   1647 ****       -42.2500   6.5000 -29.5000 Du        
   1648 ****       -42.2500   6.5000 -29.2500 Du        
   1649 ****       -42.2500   6.7500 -30.5000 Du        
   1650 ****       -42.2500   6.7500 -30.2500 Du        
   1651 ****       -42.2500   6.7500 -30.0000 Du        
   1652 ****       -42.2500   6.7500 -29.7500 Du        
   1653 ****       -42.2500   6.7500 -29.5000 Du        
   1654 ****       -42.2500   6.7500 -29.2500 Du        
   1655 ****       -42.2500   7.0000 -30.5000 Du        
   1656 ****       -42.2500   7.0000 -30.2500 Du        
   1657 ****       -42.2500   7.0000 -30.0000 Du        
   1658 ****       -42.2500   7.0000 -29.7500 Du        
   1659 ****       -42.0000   1.0000 -24.5000 Du        
   1660 ****       -42.0000   1.0000 -24.2500 Du        
   1661 ****       -42.0000   1.2500 -24.5000 Du        
   1662 ****       -42.0000   1.2500 -24.2500 Du        
   1663 ****       -42.0000   1.5000 -24.7500 Du        
   1664 ****       -42.0000   1.5000 -24.5000 Du        
   1665 ****       -42.0000   1.5000 -24.2500 Du        
   1666 ****       -42.0000   1.7500 -24.7500 Du        
   1667 ****       -42.0000   1.7500 -24.5000 Du        
   1668 ****       -42.0000   1.7500 -24.2500 Du        
   1669 ****       -42.0000   2.0000 -24.7500 Du        
   1670 ****       -42.0000   2.0000 -24.5000 Du        
   1671 ****       -42.0000   2.0000 -24.2500 Du        
   1672 ****       -42.0000   2.2500 -24.7500 Du        
   1673 ****       -42.0000   2.2500 -24.5000 Du        
   1674 ****       -42.0000   2.2500 -24.2500 Du        
   1675 ****       -42.0000   2.5000 -25.0000 Du        
   1676 ****       -42.0000   2.5000 -24.7500 Du        
   1677 ****       -42.0000   2.5000 -24.5000 Du        
   1678 ****       -42.0000   2.5000 -24.2500 Du        
   1679 ****       -42.0000   2.7500 -25.0000 Du        
   1680 ****       -42.0000   2.7500 -24.7500 Du        
   1681 ****       -42.0000   2.7500 -24.5000 Du        
   1682 ****       -42.0000   2.7500 -24.2500 Du        
   1683 ****       -42.0000   3.0000 -25.0000 Du        
   1684 ****       -42.0000   3.0000 -24.7500 Du        
   1685 ****       -42.0000   3.0000 -24.5000 Du        
   1686 ****       -42.0000   3.0000 -24.2500 Du        
   1687 ****       -42.0000   3.2500 -25.2500 Du        
   1688 ****       -42.0000   3.2500 -25.0000 Du        
   1689 ****       -42.0000   3.2500 -24.7500 Du        
   1690 ****       -42.0000   3.2500 -24.5000 Du        
   1691 ****       -42.0000   3.2500 -24.2500 Du        
   1692 ****       -42.0000   5.0000 -29.2500 Du        
   1693 ****       -42.0000   5.0000 -29.0000 Du        
   1694 ****       -42.0000   5.0000 -28.7500 Du        
   1695 ****       -42.0000   5.0000 -28.5000 Du        
   1696 ****       -42.0000   5.0000 -28.2500 Du        
   1697 ****       -42.0000   5.0000 -28.0000 Du        
   1698 ****       -42.0000   5.0000 -27.7500 Du        
   1699 ****       -42.0000   5.2500 -29.7500 Du        
   1700 ****       -42.0000   5.2500 -29.5000 Du        
   1701 ****       -42.0000   5.2500 -29.2500 Du        
   1702 ****       -42.0000   5.2500 -29.0000 Du        
   1703 ****       -42.0000   5.2500 -28.7500 Du        
   1704 ****       -42.0000   5.2500 -28.5000 Du        
   1705 ****       -42.0000   5.2500 -28.2500 Du        
   1706 ****       -42.0000   5.2500 -28.0000 Du        
   1707 ****       -42.0000   5.5000 -29.7500 Du        
   1708 ****       -42.0000   5.5000 -29.5000 Du        
   1709 ****       -42.0000   5.5000 -29.2500 Du        
   1710 ****       -42.0000   5.5000 -29.0000 Du        
   1711 ****       -42.0000   5.5000 -28.7500 Du        
   1712 ****       -42.0000   5.5000 -28.5000 Du        
   1713 ****       -42.0000   5.5000 -28.2500 Du        
   1714 ****       -42.0000   5.7500 -30.0000 Du        
   1715 ****       -42.0000   5.7500 -29.7500 Du        
   1716 ****       -42.0000   5.7500 -29.5000 Du        
   1717 ****       -42.0000   5.7500 -29.2500 Du        
   1718 ****       -42.0000   5.7500 -29.0000 Du        
   1719 ****       -42.0000   5.7500 -28.7500 Du        
   1720 ****       -42.0000   5.7500 -28.5000 Du        
   1721 ****       -42.0000   6.0000 -30.2500 Du        
   1722 ****       -42.0000   6.0000 -30.0000 Du        
   1723 ****       -42.0000   6.0000 -29.7500 Du        
   1724 ****       -42.0000   6.0000 -29.5000 Du        
   1725 ****       -42.0000   6.0000 -29.2500 Du        
   1726 ****       -42.0000   6.0000 -29.0000 Du        
   1727 ****       -42.0000   6.0000 -28.7500 Du        
   1728 ****       -42.0000   6.2500 -30.2500 Du        
   1729 ****       -42.0000   6.2500 -30.0000 Du        
   1730 ****       -42.0000   6.2500 -29.7500 Du        
   1731 ****       -42.0000   6.2500 -29.5000 Du        
   1732 ****       -42.0000   6.2500 -29.2500 Du        
   1733 ****       -42.0000   6.2500 -29.0000 Du        
   1734 ****       -42.0000   6.2500 -28.7500 Du        
   1735 ****       -42.0000   6.5000 -30.2500 Du        
   1736 ****       -42.0000   6.5000 -30.0000 Du        
   1737 ****       -42.0000   6.5000 -29.7500 Du        
   1738 ****       -42.0000   6.5000 -29.5000 Du        
   1739 ****       -42.0000   6.5000 -29.2500 Du        
   1740 ****       -42.0000   6.5000 -29.0000 Du        
   1741 ****       -42.0000   6.7500 -30.2500 Du        
   1742 ****       -42.0000   6.7500 -30.0000 Du        
   1743 ****       -42.0000   6.7500 -29.7500 Du        
   1744 ****       -42.0000   6.7500 -29.5000 Du        
   1745 ****       -42.0000   6.7500 -29.2500 Du        
   1746 ****       -41.7500   0.7500 -24.5000 Du        
   1747 ****       -41.7500   1.0000 -24.5000 Du        
   1748 ****       -41.7500   1.0000 -24.2500 Du        
   1749 ****       -41.7500   1.2500 -24.5000 Du        
   1750 ****       -41.7500   1.5000 -24.7500 Du        
   1751 ****       -41.7500   1.5000 -24.5000 Du        
   1752 ****       -41.7500   1.5000 -24.2500 Du        
   1753 ****       -41.7500   1.7500 -24.7500 Du        
   1754 ****       -41.7500   1.7500 -24.5000 Du        
   1755 ****       -41.7500   2.0000 -24.7500 Du        
   1756 ****       -41.7500   2.0000 -24.5000 Du        
   1757 ****       -41.7500   2.2500 -24.7500 Du        
   1758 ****       -41.7500   2.2500 -24.5000 Du        
   1759 ****       -41.7500   2.2500 -24.2500 Du        
   1760 ****       -41.7500   2.5000 -25.0000 Du        
   1761 ****       -41.7500   2.5000 -24.7500 Du        
   1762 ****       -41.7500   2.5000 -24.5000 Du        
   1763 ****       -41.7500   2.5000 -24.2500 Du        
   1764 ****       -41.7500   2.7500 -25.0000 Du        
   1765 ****       -41.7500   2.7500 -24.7500 Du        
   1766 ****       -41.7500   2.7500 -24.5000 Du        
   1767 ****       -41.7500   2.7500 -24.2500 Du        
   1768 ****       -41.7500   3.0000 -25.2500 Du        
   1769 ****       -41.7500   3.0000 -25.0000 Du        
   1770 ****       -41.7500   3.0000 -24.7500 Du        
   1771 ****       -41.7500   3.0000 -24.5000 Du        
   1772 ****       -41.7500   3.0000 -24.2500 Du        
   1773 ****       -41.7500   3.2500 -25.2500 Du        
   1774 ****       -41.7500   3.2500 -25.0000 Du        
   1775 ****       -41.7500   3.2500 -24.7500 Du        
   1776 ****       -41.7500   3.2500 -24.5000 Du        
   1777 ****       -41.7500   3.2500 -24.2500 Du        
   1778 ****       -41.7500   5.0000 -29.2500 Du        
   1779 ****       -41.7500   5.0000 -29.0000 Du        
   1780 ****       -41.7500   5.0000 -28.7500 Du        
   1781 ****       -41.7500   5.0000 -28.5000 Du        
   1782 ****       -41.7500   5.0000 -28.2500 Du        
   1783 ****       -41.7500   5.0000 -28.0000 Du        
   1784 ****       -41.7500   5.0000 -27.7500 Du        
   1785 ****       -41.7500   5.0000 -27.5000 Du        
   1786 ****       -41.7500   5.2500 -29.5000 Du        
   1787 ****       -41.7500   5.2500 -29.2500 Du        
   1788 ****       -41.7500   5.2500 -29.0000 Du        
   1789 ****       -41.7500   5.2500 -28.7500 Du        
   1790 ****       -41.7500   5.2500 -28.5000 Du        
   1791 ****       -41.7500   5.2500 -28.2500 Du        
   1792 ****       -41.7500   5.2500 -28.0000 Du        
   1793 ****       -41.7500   5.2500 -27.7500 Du        
   1794 ****       -41.7500   5.5000 -29.7500 Du        
   1795 ****       -41.7500   5.5000 -29.5000 Du        
   1796 ****       -41.7500   5.5000 -29.2500 Du        
   1797 ****       -41.7500   5.5000 -29.0000 Du        
   1798 ****       -41.7500   5.5000 -28.7500 Du        
   1799 ****       -41.7500   5.5000 -28.5000 Du        
   1800 ****       -41.7500   5.5000 -28.2500 Du        
   1801 ****       -41.7500   5.5000 -28.0000 Du        
   1802 ****       -41.7500   5.7500 -29.7500 Du        
   1803 ****       -41.7500   5.7500 -29.5000 Du        
   1804 ****       -41.7500   5.7500 -29.2500 Du        
   1805 ****       -41.7500   5.7500 -29.0000 Du        
   1806 ****       -41.7500   5.7500 -28.7500 Du        
   1807 ****       -41.7500   5.7500 -28.5000 Du        
   1808 ****       -41.7500   5.7500 -28.2500 Du        
   1809 ****       -41.7500   6.0000 -30.0000 Du        
   1810 ****       -41.7500   6.0000 -29.7500 Du        
   1811 ****       -41.7500   6.0000 -29.5000 Du        
   1812 ****       -41.7500   6.0000 -29.2500 Du        
   1813 ****       -41.7500   6.0000 -29.0000 Du        
   1814 ****       -41.7500   6.0000 -28.7500 Du        
   1815 ****       -41.7500   6.0000 -28.5000 Du        
   1816 ****       -41.7500   6.2500 -30.0000 Du        
   1817 ****       -41.7500   6.2500 -29.7500 Du        
   1818 ****       -41.7500   6.2500 -29.5000 Du        
   1819 ****       -41.7500   6.2500 -29.2500 Du        
   1820 ****       -41.7500   6.2500 -29.0000 Du        
   1821 ****       -41.7500   6.2500 -28.7500 Du        
   1822 ****       -41.7500   6.5000 -30.0000 Du        
   1823 ****       -41.7500   6.5000 -29.7500 Du        
   1824 ****       -41.7500   6.5000 -29.5000 Du        
   1825 ****       -41.7500   6.5000 -29.2500 Du        
   1826 ****       -41.7500   6.5000 -29.0000 Du        
   1827 ****       -41.7500   6.7500 -29.2500 Du        
   1828 ****       -41.5000   0.5000 -24.5000 Du        
   1829 ****       -41.5000   0.7500 -24.5000 Du        
   1830 ****       -41.5000   1.0000 -24.5000 Du        
   1831 ****       -41.5000   1.2500 -24.5000 Du        
   1832 ****       -41.5000   1.5000 -24.7500 Du        
   1833 ****       -41.5000   1.5000 -24.5000 Du        
   1834 ****       -41.5000   1.7500 -24.7500 Du        
   1835 ****       -41.5000   1.7500 -24.5000 Du        
   1836 ****       -41.5000   2.0000 -24.7500 Du        
   1837 ****       -41.5000   2.0000 -24.5000 Du        
   1838 ****       -41.5000   2.2500 -24.7500 Du        
   1839 ****       -41.5000   2.2500 -24.5000 Du        
   1840 ****       -41.5000   2.5000 -25.0000 Du        
   1841 ****       -41.5000   2.5000 -24.7500 Du        
   1842 ****       -41.5000   2.5000 -24.5000 Du        
   1843 ****       -41.5000   2.5000 -24.2500 Du        
   1844 ****       -41.5000   2.7500 -25.0000 Du        
   1845 ****       -41.5000   2.7500 -24.7500 Du        
   1846 ****       -41.5000   2.7500 -24.5000 Du        
   1847 ****       -41.5000   2.7500 -24.2500 Du        
   1848 ****       -41.5000   3.0000 -25.2500 Du        
   1849 ****       -41.5000   3.0000 -25.0000 Du        
   1850 ****       -41.5000   3.0000 -24.7500 Du        
   1851 ****       -41.5000   3.0000 -24.5000 Du        
   1852 ****       -41.5000   3.0000 -24.2500 Du        
   1853 ****       -41.5000   3.2500 -25.2500 Du        
   1854 ****       -41.5000   3.2500 -25.0000 Du        
   1855 ****       -41.5000   3.2500 -24.7500 Du        
   1856 ****       -41.5000   3.2500 -24.5000 Du        
   1857 ****       -41.5000   3.2500 -24.2500 Du        
   1858 ****       -41.5000   4.7500 -29.0000 Du        
   1859 ****       -41.5000   4.7500 -28.7500 Du        
   1860 ****       -41.5000   4.7500 -28.5000 Du        
   1861 ****       -41.5000   4.7500 -28.2500 Du        
   1862 ****       -41.5000   4.7500 -28.0000 Du        
   1863 ****       -41.5000   4.7500 -27.7500 Du        
   1864 ****       -41.5000   4.7500 -27.5000 Du        
   1865 ****       -41.5000   4.7500 -27.2500 Du        
   1866 ****       -41.5000   5.0000 -29.2500 Du        
   1867 ****       -41.5000   5.0000 -29.0000 Du        
   1868 ****       -41.5000   5.0000 -28.7500 Du        
   1869 ****       -41.5000   5.0000 -28.5000 Du        
   1870 ****       -41.5000   5.0000 -28.2500 Du        
   1871 ****       -41.5000   5.0000 -28.0000 Du        
   1872 ****       -41.5000   5.0000 -27.7500 Du        
   1873 ****       -41.5000   5.0000 -27.5000 Du        
   1874 ****       -41.5000   5.2500 -29.5000 Du        
   1875 ****       -41.5000   5.2500 -29.2500 Du        
   1876 ****       -41.5000   5.2500 -29.0000 Du        
   1877 ****       -41.5000   5.2500 -28.7500 Du        
   1878 ****       -41.5000   5.2500 -28.5000 Du        
   1879 ****       -41.5000   5.2500 -28.2500 Du        
   1880 ****       -41.5000   5.2500 -28.0000 Du        
   1881 ****       -41.5000   5.2500 -27.7500 Du        
   1882 ****       -41.5000   5.5000 -29.7500 Du        
   1883 ****       -41.5000   5.5000 -29.5000 Du        
   1884 ****       -41.5000   5.5000 -29.2500 Du        
   1885 ****       -41.5000   5.5000 -29.0000 Du        
   1886 ****       -41.5000   5.5000 -28.7500 Du        
   1887 ****       -41.5000   5.5000 -28.5000 Du        
   1888 ****       -41.5000   5.5000 -28.2500 Du        
   1889 ****       -41.5000   5.5000 -28.0000 Du        
   1890 ****       -41.5000   5.5000 -27.7500 Du        
   1891 ****       -41.5000   5.7500 -29.7500 Du        
   1892 ****       -41.5000   5.7500 -29.5000 Du        
   1893 ****       -41.5000   5.7500 -29.2500 Du        
   1894 ****       -41.5000   5.7500 -29.0000 Du        
   1895 ****       -41.5000   5.7500 -28.7500 Du        
   1896 ****       -41.5000   5.7500 -28.5000 Du        
   1897 ****       -41.5000   5.7500 -28.2500 Du        
   1898 ****       -41.5000   6.0000 -29.7500 Du        
   1899 ****       -41.5000   6.0000 -29.5000 Du        
   1900 ****       -41.5000   6.0000 -29.2500 Du        
   1901 ****       -41.5000   6.0000 -29.0000 Du        
   1902 ****       -41.5000   6.0000 -28.7500 Du        
   1903 ****       -41.5000   6.0000 -28.5000 Du        
   1904 ****       -41.5000   6.2500 -29.7500 Du        
   1905 ****       -41.5000   6.2500 -29.5000 Du        
   1906 ****       -41.5000   6.2500 -29.2500 Du        
   1907 ****       -41.5000   6.2500 -29.0000 Du        
   1908 ****       -41.5000   6.2500 -28.7500 Du        
   1909 ****       -41.5000   6.5000 -29.5000 Du        
   1910 ****       -41.5000   6.5000 -29.2500 Du        
   1911 ****       -41.5000   6.5000 -29.0000 Du        
   1912 ****       -41.5000   6.5000 -28.7500 Du        
   1913 ****       -41.2500   1.0000 -24.5000 Du        
   1914 ****       -41.2500   1.2500 -24.5000 Du        
   1915 ****       -41.2500   1.5000 -24.7500 Du        
   1916 ****       -41.2500   1.5000 -24.5000 Du        
   1917 ****       -41.2500   1.7500 -24.7500 Du        
   1918 ****       -41.2500   1.7500 -24.5000 Du        
   1919 ****       -41.2500   2.0000 -24.7500 Du        
   1920 ****       -41.2500   2.0000 -24.5000 Du        
   1921 ****       -41.2500   2.2500 -25.0000 Du        
   1922 ****       -41.2500   2.2500 -24.7500 Du        
   1923 ****       -41.2500   2.2500 -24.5000 Du        
   1924 ****       -41.2500   2.5000 -25.0000 Du        
   1925 ****       -41.2500   2.5000 -24.7500 Du        
   1926 ****       -41.2500   2.5000 -24.5000 Du        
   1927 ****       -41.2500   2.7500 -25.0000 Du        
   1928 ****       -41.2500   2.7500 -24.7500 Du        
   1929 ****       -41.2500   2.7500 -24.5000 Du        
   1930 ****       -41.2500   2.7500 -24.2500 Du        
   1931 ****       -41.2500   3.0000 -25.2500 Du        
   1932 ****       -41.2500   3.0000 -25.0000 Du        
   1933 ****       -41.2500   3.0000 -24.7500 Du        
   1934 ****       -41.2500   3.0000 -24.5000 Du        
   1935 ****       -41.2500   3.0000 -24.2500 Du        
   1936 ****       -41.2500   3.2500 -25.2500 Du        
   1937 ****       -41.2500   3.2500 -25.0000 Du        
   1938 ****       -41.2500   3.2500 -24.7500 Du        
   1939 ****       -41.2500   3.2500 -24.5000 Du        
   1940 ****       -41.2500   3.5000 -25.0000 Du        
   1941 ****       -41.2500   4.7500 -29.2500 Du        
   1942 ****       -41.2500   4.7500 -29.0000 Du        
   1943 ****       -41.2500   4.7500 -28.7500 Du        
   1944 ****       -41.2500   4.7500 -28.5000 Du        
   1945 ****       -41.2500   4.7500 -28.2500 Du        
   1946 ****       -41.2500   4.7500 -28.0000 Du        
   1947 ****       -41.2500   4.7500 -27.7500 Du        
   1948 ****       -41.2500   4.7500 -27.5000 Du        
   1949 ****       -41.2500   4.7500 -27.2500 Du        
   1950 ****       -41.2500   5.0000 -29.2500 Du        
   1951 ****       -41.2500   5.0000 -29.0000 Du        
   1952 ****       -41.2500   5.0000 -28.7500 Du        
   1953 ****       -41.2500   5.0000 -28.5000 Du        
   1954 ****       -41.2500   5.0000 -28.2500 Du        
   1955 ****       -41.2500   5.0000 -28.0000 Du        
   1956 ****       -41.2500   5.0000 -27.7500 Du        
   1957 ****       -41.2500   5.0000 -27.5000 Du        
   1958 ****       -41.2500   5.0000 -27.2500 Du        
   1959 ****       -41.2500   5.2500 -29.5000 Du        
   1960 ****       -41.2500   5.2500 -29.2500 Du        
   1961 ****       -41.2500   5.2500 -29.0000 Du        
   1962 ****       -41.2500   5.2500 -28.7500 Du        
   1963 ****       -41.2500   5.2500 -28.5000 Du        
   1964 ****       -41.2500   5.2500 -28.2500 Du        
   1965 ****       -41.2500   5.2500 -28.0000 Du        
   1966 ****       -41.2500   5.2500 -27.7500 Du        
   1967 ****       -41.2500   5.2500 -27.5000 Du        
   1968 ****       -41.2500   5.5000 -29.5000 Du        
   1969 ****       -41.2500   5.5000 -29.2500 Du        
   1970 ****       -41.2500   5.5000 -29.0000 Du        
   1971 ****       -41.2500   5.5000 -28.7500 Du        
   1972 ****       -41.2500   5.5000 -28.5000 Du        
   1973 ****       -41.2500   5.5000 -28.2500 Du        
   1974 ****       -41.2500   5.5000 -28.0000 Du        
   1975 ****       -41.2500   5.5000 -27.7500 Du        
   1976 ****       -41.2500   5.7500 -29.5000 Du        
   1977 ****       -41.2500   5.7500 -29.2500 Du        
   1978 ****       -41.2500   5.7500 -29.0000 Du        
   1979 ****       -41.2500   5.7500 -28.7500 Du        
   1980 ****       -41.2500   5.7500 -28.5000 Du        
   1981 ****       -41.2500   5.7500 -28.2500 Du        
   1982 ****       -41.2500   5.7500 -28.0000 Du        
   1983 ****       -41.2500   6.0000 -29.5000 Du        
   1984 ****       -41.2500   6.0000 -29.2500 Du        
   1985 ****       -41.2500   6.0000 -29.0000 Du        
   1986 ****       -41.2500   6.0000 -28.7500 Du        
   1987 ****       -41.2500   6.0000 -28.5000 Du        
   1988 ****       -41.2500   6.0000 -28.2500 Du        
   1989 ****       -41.2500   6.2500 -29.5000 Du        
   1990 ****       -41.2500   6.2500 -29.2500 Du        
   1991 ****       -41.2500   6.2500 -29.0000 Du        
   1992 ****       -41.2500   6.2500 -28.7500 Du        
   1993 ****       -41.2500   6.2500 -28.5000 Du        
   1994 ****       -41.2500   6.5000 -29.2500 Du        
   1995 ****       -41.2500   6.5000 -29.0000 Du        
   1996 ****       -41.2500   6.5000 -28.7500 Du        
   1997 ****       -41.0000   2.0000 -24.7500 Du        
   1998 ****       -41.0000   2.0000 -24.5000 Du        
   1999 ****       -41.0000   2.2500 -24.7500 Du        
   2000 ****       -41.0000   2.2500 -24.5000 Du        
   2001 ****       -41.0000   2.5000 -25.0000 Du        
   2002 ****       -41.0000   2.5000 -24.7500 Du        
   2003 ****       -41.0000   2.5000 -24.5000 Du        
   2004 ****       -41.0000   2.7500 -25.0000 Du        
   2005 ****       -41.0000   2.7500 -24.7500 Du        
   2006 ****       -41.0000   2.7500 -24.5000 Du        
   2007 ****       -41.0000   3.0000 -25.2500 Du        
   2008 ****       -41.0000   3.0000 -25.0000 Du        
   2009 ****       -41.0000   3.0000 -24.7500 Du        
   2010 ****       -41.0000   3.0000 -24.5000 Du        
   2011 ****       -41.0000   3.2500 -25.5000 Du        
   2012 ****       -41.0000   3.2500 -25.2500 Du        
   2013 ****       -41.0000   3.2500 -25.0000 Du        
   2014 ****       -41.0000   3.2500 -24.7500 Du        
   2015 ****       -41.0000   3.2500 -24.5000 Du        
   2016 ****       -41.0000   3.5000 -25.5000 Du        
   2017 ****       -41.0000   3.5000 -25.2500 Du        
   2018 ****       -41.0000   3.5000 -25.0000 Du        
   2019 ****       -41.0000   4.5000 -28.7500 Du        
   2020 ****       -41.0000   4.5000 -27.2500 Du        
   2021 ****       -41.0000   4.7500 -29.2500 Du        
   2022 ****       -41.0000   4.7500 -29.0000 Du        
   2023 ****       -41.0000   4.7500 -28.7500 Du        
   2024 ****       -41.0000   4.7500 -28.5000 Du        
   2025 ****       -41.0000   4.7500 -28.2500 Du        
   2026 ****       -41.0000   4.7500 -28.0000 Du        
   2027 ****       -41.0000   4.7500 -27.7500 Du        
   2028 ****       -41.0000   4.7500 -27.5000 Du        
   2029 ****       -41.0000   4.7500 -27.2500 Du        
   2030 ****       -41.0000   5.0000 -29.2500 Du        
   2031 ****       -41.0000   5.0000 -29.0000 Du        
   2032 ****       -41.0000   5.0000 -28.7500 Du        
   2033 ****       -41.0000   5.0000 -28.5000 Du        
   2034 ****       -41.0000   5.0000 -28.2500 Du        
   2035 ****       -41.0000   5.0000 -28.0000 Du        
   2036 ****       -41.0000   5.0000 -27.7500 Du        
   2037 ****       -41.0000   5.0000 -27.5000 Du        
   2038 ****       -41.0000   5.0000 -27.2500 Du        
   2039 ****       -41.0000   5.2500 -29.5000 Du        
   2040 ****       -41.0000   5.2500 -29.2500 Du        
   2041 ****       -41.0000   5.2500 -29.0000 Du        
   2042 ****       -41.0000   5.2500 -28.7500 Du        
   2043 ****       -41.0000   5.2500 -28.5000 Du        
   2044 ****       -41.0000   5.2500 -28.2500 Du        
   2045 ****       -41.0000   5.2500 -28.0000 Du        
   2046 ****       -41.0000   5.2500 -27.7500 Du        
   2047 ****       -41.0000   5.2500 -27.5000 Du        
   2048 ****       -41.0000   5.5000 -29.5000 Du        
   2049 ****       -41.0000   5.5000 -29.2500 Du        
   2050 ****       -41.0000   5.5000 -29.0000 Du        
   2051 ****       -41.0000   5.5000 -28.7500 Du        
   2052 ****       -41.0000   5.5000 -28.5000 Du        
   2053 ****       -41.0000   5.5000 -28.2500 Du        
   2054 ****       -41.0000   5.5000 -28.0000 Du        
   2055 ****       -41.0000   5.5000 -27.7500 Du        
   2056 ****       -41.0000   5.5000 -27.5000 Du        
   2057 ****       -41.0000   5.7500 -29.5000 Du        
   2058 ****       -41.0000   5.7500 -29.2500 Du        
   2059 ****       -41.0000   5.7500 -29.0000 Du        
   2060 ****       -41.0000   5.7500 -28.7500 Du        
   2061 ****       -41.0000   5.7500 -28.5000 Du        
   2062 ****       -41.0000   5.7500 -28.2500 Du        
   2063 ****       -41.0000   5.7500 -28.0000 Du        
   2064 ****       -41.0000   5.7500 -27.7500 Du        
   2065 ****       -41.0000   6.0000 -29.5000 Du        
   2066 ****       -41.0000   6.0000 -29.2500 Du        
   2067 ****       -41.0000   6.0000 -29.0000 Du        
   2068 ****       -41.0000   6.0000 -28.7500 Du        
   2069 ****       -41.0000   6.0000 -28.5000 Du        
   2070 ****       -41.0000   6.0000 -28.2500 Du        
   2071 ****       -41.0000   6.0000 -28.0000 Du        
   2072 ****       -41.0000   6.2500 -29.2500 Du        
   2073 ****       -41.0000   6.2500 -29.0000 Du        
   2074 ****       -41.0000   6.2500 -28.7500 Du        
   2075 ****       -41.0000   6.2500 -28.5000 Du        
   2076 ****       -41.0000   6.2500 -28.2500 Du        
   2077 ****       -41.0000   6.5000 -29.0000 Du        
   2078 ****       -41.0000   6.5000 -28.7500 Du        
   2079 ****       -41.0000   6.5000 -28.5000 Du        
   2080 ****       -40.7500   2.2500 -24.7500 Du        
   2081 ****       -40.7500   2.5000 -25.0000 Du        
   2082 ****       -40.7500   2.5000 -24.7500 Du        
   2083 ****       -40.7500   2.7500 -25.0000 Du        
   2084 ****       -40.7500   2.7500 -24.7500 Du        
   2085 ****       -40.7500   3.0000 -25.2500 Du        
   2086 ****       -40.7500   3.0000 -25.0000 Du        
   2087 ****       -40.7500   3.0000 -24.7500 Du        
   2088 ****       -40.7500   3.2500 -25.5000 Du        
   2089 ****       -40.7500   3.2500 -25.2500 Du        
   2090 ****       -40.7500   3.2500 -25.0000 Du        
   2091 ****       -40.7500   3.2500 -24.7500 Du        
   2092 ****       -40.7500   3.5000 -25.7500 Du        
   2093 ****       -40.7500   3.5000 -25.5000 Du        
   2094 ****       -40.7500   3.5000 -25.2500 Du        
   2095 ****       -40.7500   3.5000 -25.0000 Du        
   2096 ****       -40.7500   4.5000 -29.0000 Du        
   2097 ****       -40.7500   4.5000 -28.7500 Du        
   2098 ****       -40.7500   4.5000 -28.5000 Du        
   2099 ****       -40.7500   4.5000 -28.2500 Du        
   2100 ****       -40.7500   4.5000 -28.0000 Du        
   2101 ****       -40.7500   4.5000 -27.7500 Du        
   2102 ****       -40.7500   4.5000 -27.5000 Du        
   2103 ****       -40.7500   4.5000 -27.2500 Du        
   2104 ****       -40.7500   4.5000 -27.0000 Du        
   2105 ****       -40.7500   4.7500 -29.2500 Du        
   2106 ****       -40.7500   4.7500 -29.0000 Du        
   2107 ****       -40.7500   4.7500 -28.7500 Du        
   2108 ****       -40.7500   4.7500 -28.5000 Du        
   2109 ****       -40.7500   4.7500 -28.2500 Du        
   2110 ****       -40.7500   4.7500 -28.0000 Du        
   2111 ****       -40.7500   4.7500 -27.7500 Du        
   2112 ****       -40.7500   4.7500 -27.5000 Du        
   2113 ****       -40.7500   4.7500 -27.2500 Du        
   2114 ****       -40.7500   4.7500 -27.0000 Du        
   2115 ****       -40.7500   5.0000 -29.2500 Du        
   2116 ****       -40.7500   5.0000 -29.0000 Du        
   2117 ****       -40.7500   5.0000 -28.7500 Du        
   2118 ****       -40.7500   5.0000 -28.5000 Du        
   2119 ****       -40.7500   5.0000 -28.2500 Du        
   2120 ****       -40.7500   5.0000 -28.0000 Du        
   2121 ****       -40.7500   5.0000 -27.7500 Du        
   2122 ****       -40.7500   5.0000 -27.5000 Du        
   2123 ****       -40.7500   5.0000 -27.2500 Du        
   2124 ****       -40.7500   5.2500 -29.2500 Du        
   2125 ****       -40.7500   5.2500 -29.0000 Du        
   2126 ****       -40.7500   5.2500 -28.7500 Du        
   2127 ****       -40.7500   5.2500 -28.5000 Du        
   2128 ****       -40.7500   5.2500 -28.2500 Du        
   2129 ****       -40.7500   5.2500 -28.0000 Du        
   2130 ****       -40.7500   5.2500 -27.7500 Du        
   2131 ****       -40.7500   5.2500 -27.5000 Du        
   2132 ****       -40.7500   5.2500 -27.2500 Du        
   2133 ****       -40.7500   5.5000 -29.5000 Du        
   2134 ****       -40.7500   5.5000 -29.2500 Du        
   2135 ****       -40.7500   5.5000 -29.0000 Du        
   2136 ****       -40.7500   5.5000 -28.7500 Du        
   2137 ****       -40.7500   5.5000 -28.5000 Du        
   2138 ****       -40.7500   5.5000 -28.2500 Du        
   2139 ****       -40.7500   5.5000 -28.0000 Du        
   2140 ****       -40.7500   5.5000 -27.7500 Du        
   2141 ****       -40.7500   5.5000 -27.5000 Du        
   2142 ****       -40.7500   5.7500 -29.5000 Du        
   2143 ****       -40.7500   5.7500 -29.2500 Du        
   2144 ****       -40.7500   5.7500 -29.0000 Du        
   2145 ****       -40.7500   5.7500 -28.7500 Du        
   2146 ****       -40.7500   5.7500 -28.5000 Du        
   2147 ****       -40.7500   5.7500 -28.2500 Du        
   2148 ****       -40.7500   5.7500 -28.0000 Du        
   2149 ****       -40.7500   5.7500 -27.7500 Du        
   2150 ****       -40.7500   6.0000 -29.2500 Du        
   2151 ****       -40.7500   6.0000 -29.0000 Du        
   2152 ****       -40.7500   6.0000 -28.7500 Du        
   2153 ****       -40.7500   6.0000 -28.5000 Du        
   2154 ****       -40.7500   6.0000 -28.2500 Du        
   2155 ****       -40.7500   6.0000 -28.0000 Du        
   2156 ****       -40.7500   6.0000 -27.7500 Du        
   2157 ****       -40.7500   6.2500 -29.2500 Du        
   2158 ****       -40.7500   6.2500 -29.0000 Du        
   2159 ****       -40.7500   6.2500 -28.7500 Du        
   2160 ****       -40.7500   6.2500 -28.5000 Du        
   2161 ****       -40.7500   6.2500 -28.2500 Du        
   2162 ****       -40.7500   6.2500 -28.0000 Du        
   2163 ****       -40.7500   6.5000 -28.7500 Du        
   2164 ****       -40.7500   6.5000 -28.5000 Du        
   2165 ****       -40.7500   6.5000 -28.2500 Du        
   2166 ****       -40.5000   2.7500 -25.0000 Du        
   2167 ****       -40.5000   2.7500 -24.7500 Du        
   2168 ****       -40.5000   3.0000 -25.2500 Du        
   2169 ****       -40.5000   3.0000 -25.0000 Du        
   2170 ****       -40.5000   3.0000 -24.7500 Du        
   2171 ****       -40.5000   3.2500 -25.5000 Du        
   2172 ****       -40.5000   3.2500 -25.2500 Du        
   2173 ****       -40.5000   3.2500 -25.0000 Du        
   2174 ****       -40.5000   3.5000 -25.7500 Du        
   2175 ****       -40.5000   3.5000 -25.5000 Du        
   2176 ****       -40.5000   3.5000 -25.2500 Du        
   2177 ****       -40.5000   3.5000 -25.0000 Du        
   2178 ****       -40.5000   3.7500 -26.0000 Du        
   2179 ****       -40.5000   3.7500 -25.7500 Du        
   2180 ****       -40.5000   3.7500 -25.5000 Du        
   2181 ****       -40.5000   4.0000 -26.2500 Du        
   2182 ****       -40.5000   4.0000 -26.0000 Du        
   2183 ****       -40.5000   4.2500 -27.2500 Du        
   2184 ****       -40.5000   4.2500 -27.0000 Du        
   2185 ****       -40.5000   4.2500 -26.7500 Du        
   2186 ****       -40.5000   4.2500 -26.5000 Du        
   2187 ****       -40.5000   4.5000 -29.2500 Du        
   2188 ****       -40.5000   4.5000 -29.0000 Du        
   2189 ****       -40.5000   4.5000 -28.7500 Du        
   2190 ****       -40.5000   4.5000 -28.5000 Du        
   2191 ****       -40.5000   4.5000 -28.2500 Du        
   2192 ****       -40.5000   4.5000 -28.0000 Du        
   2193 ****       -40.5000   4.5000 -27.7500 Du        
   2194 ****       -40.5000   4.5000 -27.5000 Du        
   2195 ****       -40.5000   4.5000 -27.2500 Du        
   2196 ****       -40.5000   4.5000 -27.0000 Du        
   2197 ****       -40.5000   4.5000 -26.7500 Du        
   2198 ****       -40.5000   4.7500 -29.2500 Du        
   2199 ****       -40.5000   4.7500 -29.0000 Du        
   2200 ****       -40.5000   4.7500 -28.7500 Du        
   2201 ****       -40.5000   4.7500 -28.5000 Du        
   2202 ****       -40.5000   4.7500 -28.2500 Du        
   2203 ****       -40.5000   4.7500 -28.0000 Du        
   2204 ****       -40.5000   4.7500 -27.7500 Du        
   2205 ****       -40.5000   4.7500 -27.5000 Du        
   2206 ****       -40.5000   4.7500 -27.2500 Du        
   2207 ****       -40.5000   4.7500 -27.0000 Du        
   2208 ****       -40.5000   5.0000 -29.2500 Du        
   2209 ****       -40.5000   5.0000 -29.0000 Du        
   2210 ****       -40.5000   5.0000 -28.7500 Du        
   2211 ****       -40.5000   5.0000 -28.5000 Du        
   2212 ****       -40.5000   5.0000 -28.2500 Du        
   2213 ****       -40.5000   5.0000 -28.0000 Du        
   2214 ****       -40.5000   5.0000 -27.7500 Du        
   2215 ****       -40.5000   5.0000 -27.5000 Du        
   2216 ****       -40.5000   5.0000 -27.2500 Du        
   2217 ****       -40.5000   5.0000 -27.0000 Du        
   2218 ****       -40.5000   5.2500 -29.2500 Du        
   2219 ****       -40.5000   5.2500 -29.0000 Du        
   2220 ****       -40.5000   5.2500 -28.7500 Du        
   2221 ****       -40.5000   5.2500 -28.5000 Du        
   2222 ****       -40.5000   5.2500 -28.2500 Du        
   2223 ****       -40.5000   5.2500 -28.0000 Du        
   2224 ****       -40.5000   5.2500 -27.7500 Du        
   2225 ****       -40.5000   5.2500 -27.5000 Du        
   2226 ****       -40.5000   5.2500 -27.2500 Du        
   2227 ****       -40.5000   5.5000 -29.5000 Du        
   2228 ****       -40.5000   5.5000 -29.2500 Du        
   2229 ****       -40.5000   5.5000 -29.0000 Du        
   2230 ****       -40.5000   5.5000 -28.7500 Du        
   2231 ****       -40.5000   5.5000 -28.5000 Du        
   2232 ****       -40.5000   5.5000 -28.2500 Du        
   2233 ****       -40.5000   5.5000 -28.0000 Du        
   2234 ****       -40.5000   5.5000 -27.7500 Du        
   2235 ****       -40.5000   5.5000 -27.5000 Du        
   2236 ****       -40.5000   5.7500 -29.2500 Du        
   2237 ****       -40.5000   5.7500 -29.0000 Du        
   2238 ****       -40.5000   5.7500 -28.7500 Du        
   2239 ****       -40.5000   5.7500 -28.5000 Du        
   2240 ****       -40.5000   5.7500 -28.2500 Du        
   2241 ****       -40.5000   5.7500 -28.0000 Du        
   2242 ****       -40.5000   5.7500 -27.7500 Du        
   2243 ****       -40.5000   5.7500 -27.5000 Du        
   2244 ****       -40.5000   6.0000 -29.2500 Du        
   2245 ****       -40.5000   6.0000 -29.0000 Du        
   2246 ****       -40.5000   6.0000 -28.7500 Du        
   2247 ****       -40.5000   6.0000 -28.5000 Du        
   2248 ****       -40.5000   6.0000 -28.2500 Du        
   2249 ****       -40.5000   6.0000 -28.0000 Du        
   2250 ****       -40.5000   6.0000 -27.7500 Du        
   2251 ****       -40.5000   6.2500 -29.0000 Du        
   2252 ****       -40.5000   6.2500 -28.7500 Du        
   2253 ****       -40.5000   6.2500 -28.5000 Du        
   2254 ****       -40.5000   6.2500 -28.2500 Du        
   2255 ****       -40.5000   6.2500 -28.0000 Du        
   2256 ****       -40.5000   6.5000 -28.7500 Du        
   2257 ****       -40.5000   6.5000 -28.5000 Du        
   2258 ****       -40.5000   6.5000 -28.2500 Du        
   2259 ****       -40.2500   3.0000 -25.2500 Du        
   2260 ****       -40.2500   3.0000 -25.0000 Du        
   2261 ****       -40.2500   3.2500 -25.5000 Du        
   2262 ****       -40.2500   3.2500 -25.2500 Du        
   2263 ****       -40.2500   3.2500 -25.0000 Du        
   2264 ****       -40.2500   3.5000 -26.0000 Du        
   2265 ****       -40.2500   3.5000 -25.7500 Du        
   2266 ****       -40.2500   3.5000 -25.5000 Du        
   2267 ****       -40.2500   3.5000 -25.2500 Du        
   2268 ****       -40.2500   3.7500 -26.2500 Du        
   2269 ****       -40.2500   3.7500 -26.0000 Du        
   2270 ****       -40.2500   3.7500 -25.7500 Du        
   2271 ****       -40.2500   3.7500 -25.5000 Du        
   2272 ****       -40.2500   4.0000 -27.0000 Du        
   2273 ****       -40.2500   4.0000 -26.7500 Du        
   2274 ****       -40.2500   4.0000 -26.5000 Du        
   2275 ****       -40.2500   4.0000 -26.2500 Du        
   2276 ****       -40.2500   4.0000 -26.0000 Du        
   2277 ****       -40.2500   4.0000 -25.7500 Du        
   2278 ****       -40.2500   4.2500 -29.0000 Du        
   2279 ****       -40.2500   4.2500 -28.7500 Du        
   2280 ****       -40.2500   4.2500 -28.5000 Du        
   2281 ****       -40.2500   4.2500 -28.2500 Du        
   2282 ****       -40.2500   4.2500 -28.0000 Du        
   2283 ****       -40.2500   4.2500 -27.7500 Du        
   2284 ****       -40.2500   4.2500 -27.5000 Du        
   2285 ****       -40.2500   4.2500 -27.2500 Du        
   2286 ****       -40.2500   4.2500 -27.0000 Du        
   2287 ****       -40.2500   4.2500 -26.7500 Du        
   2288 ****       -40.2500   4.2500 -26.5000 Du        
   2289 ****       -40.2500   4.2500 -26.2500 Du        
   2290 ****       -40.2500   4.5000 -29.2500 Du        
   2291 ****       -40.2500   4.5000 -29.0000 Du        
   2292 ****       -40.2500   4.5000 -28.7500 Du        
   2293 ****       -40.2500   4.5000 -28.5000 Du        
   2294 ****       -40.2500   4.5000 -28.2500 Du        
   2295 ****       -40.2500   4.5000 -28.0000 Du        
   2296 ****       -40.2500   4.5000 -27.7500 Du        
   2297 ****       -40.2500   4.5000 -27.5000 Du        
   2298 ****       -40.2500   4.5000 -27.2500 Du        
   2299 ****       -40.2500   4.5000 -27.0000 Du        
   2300 ****       -40.2500   4.5000 -26.7500 Du        
   2301 ****       -40.2500   4.5000 -26.5000 Du        
   2302 ****       -40.2500   4.7500 -29.2500 Du        
   2303 ****       -40.2500   4.7500 -29.0000 Du        
   2304 ****       -40.2500   4.7500 -28.7500 Du        
   2305 ****       -40.2500   4.7500 -28.5000 Du        
   2306 ****       -40.2500   4.7500 -28.2500 Du        
   2307 ****       -40.2500   4.7500 -28.0000 Du        
   2308 ****       -40.2500   4.7500 -27.7500 Du        
   2309 ****       -40.2500   4.7500 -27.5000 Du        
   2310 ****       -40.2500   4.7500 -27.2500 Du        
   2311 ****       -40.2500   4.7500 -27.0000 Du        
   2312 ****       -40.2500   4.7500 -26.7500 Du        
   2313 ****       -40.2500   5.0000 -29.2500 Du        
   2314 ****       -40.2500   5.0000 -29.0000 Du        
   2315 ****       -40.2500   5.0000 -28.7500 Du        
   2316 ****       -40.2500   5.0000 -28.5000 Du        
   2317 ****       -40.2500   5.0000 -28.2500 Du        
   2318 ****       -40.2500   5.0000 -28.0000 Du        
   2319 ****       -40.2500   5.0000 -27.7500 Du        
   2320 ****       -40.2500   5.0000 -27.5000 Du        
   2321 ****       -40.2500   5.0000 -27.2500 Du        
   2322 ****       -40.2500   5.0000 -27.0000 Du        
   2323 ****       -40.2500   5.2500 -29.2500 Du        
   2324 ****       -40.2500   5.2500 -29.0000 Du        
   2325 ****       -40.2500   5.2500 -28.7500 Du        
   2326 ****       -40.2500   5.2500 -28.5000 Du        
   2327 ****       -40.2500   5.2500 -28.2500 Du        
   2328 ****       -40.2500   5.2500 -28.0000 Du        
   2329 ****       -40.2500   5.2500 -27.7500 Du        
   2330 ****       -40.2500   5.2500 -27.5000 Du        
   2331 ****       -40.2500   5.2500 -27.2500 Du        
   2332 ****       -40.2500   5.5000 -29.2500 Du        
   2333 ****       -40.2500   5.5000 -29.0000 Du        
   2334 ****       -40.2500   5.5000 -28.7500 Du        
   2335 ****       -40.2500   5.5000 -28.5000 Du        
   2336 ****       -40.2500   5.5000 -28.2500 Du        
   2337 ****       -40.2500   5.5000 -28.0000 Du        
   2338 ****       -40.2500   5.5000 -27.7500 Du        
   2339 ****       -40.2500   5.5000 -27.5000 Du        
   2340 ****       -40.2500   5.7500 -29.2500 Du        
   2341 ****       -40.2500   5.7500 -29.0000 Du        
   2342 ****       -40.2500   5.7500 -28.7500 Du        
   2343 ****       -40.2500   5.7500 -28.5000 Du        
   2344 ****       -40.2500   5.7500 -28.2500 Du        
   2345 ****       -40.2500   5.7500 -28.0000 Du        
   2346 ****       -40.2500   5.7500 -27.7500 Du        
   2347 ****       -40.2500   5.7500 -27.5000 Du        
   2348 ****       -40.2500   6.0000 -29.2500 Du        
   2349 ****       -40.2500   6.0000 -29.0000 Du        
   2350 ****       -40.2500   6.0000 -28.7500 Du        
   2351 ****       -40.2500   6.0000 -28.5000 Du        
   2352 ****       -40.2500   6.0000 -28.2500 Du        
   2353 ****       -40.2500   6.0000 -28.0000 Du        
   2354 ****       -40.2500   6.0000 -27.7500 Du        
   2355 ****       -40.2500   6.2500 -29.0000 Du        
   2356 ****       -40.2500   6.2500 -28.7500 Du        
   2357 ****       -40.2500   6.2500 -28.5000 Du        
   2358 ****       -40.2500   6.2500 -28.2500 Du        
   2359 ****       -40.2500   6.2500 -28.0000 Du        
   2360 ****       -40.2500   6.2500 -27.7500 Du        
   2361 ****       -40.2500   6.5000 -28.5000 Du        
   2362 ****       -40.2500   6.5000 -28.2500 Du        
   2363 ****       -40.2500   6.5000 -28.0000 Du        
   2364 ****       -40.0000   3.2500 -25.5000 Du        
   2365 ****       -40.0000   3.2500 -25.2500 Du        
   2366 ****       -40.0000   3.5000 -26.0000 Du        
   2367 ****       -40.0000   3.5000 -25.7500 Du        
   2368 ****       -40.0000   3.5000 -25.5000 Du        
   2369 ****       -40.0000   3.5000 -25.2500 Du        
   2370 ****       -40.0000   3.7500 -26.5000 Du        
   2371 ****       -40.0000   3.7500 -26.2500 Du        
   2372 ****       -40.0000   3.7500 -26.0000 Du        
   2373 ****       -40.0000   3.7500 -25.7500 Du        
   2374 ****       -40.0000   3.7500 -25.5000 Du        
   2375 ****       -40.0000   4.0000 -29.0000 Du        
   2376 ****       -40.0000   4.0000 -27.2500 Du        
   2377 ****       -40.0000   4.0000 -27.0000 Du        
   2378 ****       -40.0000   4.0000 -26.7500 Du        
   2379 ****       -40.0000   4.0000 -26.5000 Du        
   2380 ****       -40.0000   4.0000 -26.2500 Du        
   2381 ****       -40.0000   4.0000 -26.0000 Du        
   2382 ****       -40.0000   4.0000 -25.7500 Du        
   2383 ****       -40.0000   4.2500 -29.2500 Du        
   2384 ****       -40.0000   4.2500 -29.0000 Du        
   2385 ****       -40.0000   4.2500 -28.7500 Du        
   2386 ****       -40.0000   4.2500 -28.5000 Du        
   2387 ****       -40.0000   4.2500 -28.2500 Du        
   2388 ****       -40.0000   4.2500 -28.0000 Du        
   2389 ****       -40.0000   4.2500 -27.7500 Du        
   2390 ****       -40.0000   4.2500 -27.5000 Du        
   2391 ****       -40.0000   4.2500 -27.2500 Du        
   2392 ****       -40.0000   4.2500 -27.0000 Du        
   2393 ****       -40.0000   4.2500 -26.7500 Du        
   2394 ****       -40.0000   4.2500 -26.5000 Du        
   2395 ****       -40.0000   4.2500 -26.2500 Du        
   2396 ****       -40.0000   4.5000 -29.2500 Du        
   2397 ****       -40.0000   4.5000 -29.0000 Du        
   2398 ****       -40.0000   4.5000 -28.7500 Du        
   2399 ****       -40.0000   4.5000 -28.5000 Du        
   2400 ****       -40.0000   4.5000 -28.2500 Du        
   2401 ****       -40.0000   4.5000 -28.0000 Du        
   2402 ****       -40.0000   4.5000 -27.7500 Du        
   2403 ****       -40.0000   4.5000 -27.5000 Du        
   2404 ****       -40.0000   4.5000 -27.2500 Du        
   2405 ****       -40.0000   4.5000 -27.0000 Du        
   2406 ****       -40.0000   4.5000 -26.7500 Du        
   2407 ****       -40.0000   4.5000 -26.5000 Du        
   2408 ****       -40.0000   4.7500 -29.2500 Du        
   2409 ****       -40.0000   4.7500 -29.0000 Du        
   2410 ****       -40.0000   4.7500 -28.7500 Du        
   2411 ****       -40.0000   4.7500 -28.5000 Du        
   2412 ****       -40.0000   4.7500 -28.2500 Du        
   2413 ****       -40.0000   4.7500 -28.0000 Du        
   2414 ****       -40.0000   4.7500 -27.7500 Du        
   2415 ****       -40.0000   4.7500 -27.5000 Du        
   2416 ****       -40.0000   4.7500 -27.2500 Du        
   2417 ****       -40.0000   4.7500 -27.0000 Du        
   2418 ****       -40.0000   4.7500 -26.7500 Du        
   2419 ****       -40.0000   5.0000 -29.2500 Du        
   2420 ****       -40.0000   5.0000 -29.0000 Du        
   2421 ****       -40.0000   5.0000 -28.7500 Du        
   2422 ****       -40.0000   5.0000 -28.5000 Du        
   2423 ****       -40.0000   5.0000 -28.2500 Du        
   2424 ****       -40.0000   5.0000 -28.0000 Du        
   2425 ****       -40.0000   5.0000 -27.7500 Du        
   2426 ****       -40.0000   5.0000 -27.5000 Du        
   2427 ****       -40.0000   5.0000 -27.2500 Du        
   2428 ****       -40.0000   5.0000 -27.0000 Du        
   2429 ****       -40.0000   5.2500 -29.2500 Du        
   2430 ****       -40.0000   5.2500 -29.0000 Du        
   2431 ****       -40.0000   5.2500 -28.7500 Du        
   2432 ****       -40.0000   5.2500 -28.5000 Du        
   2433 ****       -40.0000   5.2500 -28.2500 Du        
   2434 ****       -40.0000   5.2500 -28.0000 Du        
   2435 ****       -40.0000   5.2500 -27.7500 Du        
   2436 ****       -40.0000   5.2500 -27.5000 Du        
   2437 ****       -40.0000   5.2500 -27.2500 Du        
   2438 ****       -40.0000   5.5000 -29.2500 Du        
   2439 ****       -40.0000   5.5000 -29.0000 Du        
   2440 ****       -40.0000   5.5000 -28.7500 Du        
   2441 ****       -40.0000   5.5000 -28.5000 Du        
   2442 ****       -40.0000   5.5000 -28.2500 Du        
   2443 ****       -40.0000   5.5000 -28.0000 Du        
   2444 ****       -40.0000   5.5000 -27.7500 Du        
   2445 ****       -40.0000   5.5000 -27.5000 Du        
   2446 ****       -40.0000   5.7500 -29.2500 Du        
   2447 ****       -40.0000   5.7500 -29.0000 Du        
   2448 ****       -40.0000   5.7500 -28.7500 Du        
   2449 ****       -40.0000   5.7500 -28.5000 Du        
   2450 ****       -40.0000   5.7500 -28.2500 Du        
   2451 ****       -40.0000   5.7500 -28.0000 Du        
   2452 ****       -40.0000   5.7500 -27.7500 Du        
   2453 ****       -40.0000   6.0000 -29.2500 Du        
   2454 ****       -40.0000   6.0000 -29.0000 Du        
   2455 ****       -40.0000   6.0000 -28.7500 Du        
   2456 ****       -40.0000   6.0000 -28.5000 Du        
   2457 ****       -40.0000   6.0000 -28.2500 Du        
   2458 ****       -40.0000   6.0000 -28.0000 Du        
   2459 ****       -40.0000   6.0000 -27.7500 Du        
   2460 ****       -40.0000   6.2500 -29.0000 Du        
   2461 ****       -40.0000   6.2500 -28.7500 Du        
   2462 ****       -40.0000   6.2500 -28.5000 Du        
   2463 ****       -40.0000   6.2500 -28.2500 Du        
   2464 ****       -40.0000   6.2500 -28.0000 Du        
   2465 ****       -39.7500   3.5000 -26.0000 Du        
   2466 ****       -39.7500   3.5000 -25.7500 Du        
   2467 ****       -39.7500   3.5000 -25.5000 Du        
   2468 ****       -39.7500   3.7500 -26.7500 Du        
   2469 ****       -39.7500   3.7500 -26.5000 Du        
   2470 ****       -39.7500   3.7500 -26.2500 Du        
   2471 ****       -39.7500   3.7500 -26.0000 Du        
   2472 ****       -39.7500   3.7500 -25.7500 Du        
   2473 ****       -39.7500   4.0000 -29.2500 Du        
   2474 ****       -39.7500   4.0000 -29.0000 Du        
   2475 ****       -39.7500   4.0000 -28.7500 Du        
   2476 ****       -39.7500   4.0000 -28.5000 Du        
   2477 ****       -39.7500   4.0000 -28.2500 Du        
   2478 ****       -39.7500   4.0000 -28.0000 Du        
   2479 ****       -39.7500   4.0000 -27.7500 Du        
   2480 ****       -39.7500   4.0000 -27.5000 Du        
   2481 ****       -39.7500   4.0000 -27.2500 Du        
   2482 ****       -39.7500   4.0000 -27.0000 Du        
   2483 ****       -39.7500   4.0000 -26.7500 Du        
   2484 ****       -39.7500   4.0000 -26.5000 Du        
   2485 ****       -39.7500   4.0000 -26.2500 Du        
   2486 ****       -39.7500   4.0000 -26.0000 Du        
   2487 ****       -39.7500   4.2500 -29.2500 Du        
   2488 ****       -39.7500   4.2500 -29.0000 Du        
   2489 ****       -39.7500   4.2500 -28.7500 Du        
   2490 ****       -39.7500   4.2500 -28.5000 Du        
   2491 ****       -39.7500   4.2500 -28.2500 Du        
   2492 ****       -39.7500   4.2500 -28.0000 Du        
   2493 ****       -39.7500   4.2500 -27.7500 Du        
   2494 ****       -39.7500   4.2500 -27.5000 Du        
   2495 ****       -39.7500   4.2500 -27.2500 Du        
   2496 ****       -39.7500   4.2500 -27.0000 Du        
   2497 ****       -39.7500   4.2500 -26.7500 Du        
   2498 ****       -39.7500   4.2500 -26.5000 Du        
   2499 ****       -39.7500   4.2500 -26.2500 Du        
   2500 ****       -39.7500   4.5000 -29.2500 Du        
   2501 ****       -39.7500   4.5000 -29.0000 Du        
   2502 ****       -39.7500   4.5000 -28.7500 Du        
   2503 ****       -39.7500   4.5000 -28.5000 Du        
   2504 ****       -39.7500   4.5000 -28.2500 Du        
   2505 ****       -39.7500   4.5000 -28.0000 Du        
   2506 ****       -39.7500   4.5000 -27.7500 Du        
   2507 ****       -39.7500   4.5000 -27.5000 Du        
   2508 ****       -39.7500   4.5000 -27.2500 Du        
   2509 ****       -39.7500   4.5000 -27.0000 Du        
   2510 ****       -39.7500   4.5000 -26.7500 Du        
   2511 ****       -39.7500   4.5000 -26.5000 Du        
   2512 ****       -39.7500   4.7500 -29.2500 Du        
   2513 ****       -39.7500   4.7500 -29.0000 Du        
   2514 ****       -39.7500   4.7500 -28.7500 Du        
   2515 ****       -39.7500   4.7500 -28.5000 Du        
   2516 ****       -39.7500   4.7500 -28.2500 Du        
   2517 ****       -39.7500   4.7500 -28.0000 Du        
   2518 ****       -39.7500   4.7500 -27.7500 Du        
   2519 ****       -39.7500   4.7500 -27.5000 Du        
   2520 ****       -39.7500   4.7500 -27.2500 Du        
   2521 ****       -39.7500   4.7500 -27.0000 Du        
   2522 ****       -39.7500   5.0000 -29.5000 Du        
   2523 ****       -39.7500   5.0000 -29.2500 Du        
   2524 ****       -39.7500   5.0000 -29.0000 Du        
   2525 ****       -39.7500   5.0000 -28.7500 Du        
   2526 ****       -39.7500   5.0000 -28.5000 Du        
   2527 ****       -39.7500   5.0000 -28.2500 Du        
   2528 ****       -39.7500   5.0000 -28.0000 Du        
   2529 ****       -39.7500   5.0000 -27.7500 Du        
   2530 ****       -39.7500   5.0000 -27.5000 Du        
   2531 ****       -39.7500   5.0000 -27.2500 Du        
   2532 ****       -39.7500   5.2500 -29.2500 Du        
   2533 ****       -39.7500   5.2500 -29.0000 Du        
   2534 ****       -39.7500   5.2500 -28.7500 Du        
   2535 ****       -39.7500   5.2500 -28.5000 Du        
   2536 ****       -39.7500   5.2500 -28.2500 Du        
   2537 ****       -39.7500   5.2500 -28.0000 Du        
   2538 ****       -39.7500   5.2500 -27.7500 Du        
   2539 ****       -39.7500   5.2500 -27.5000 Du        
   2540 ****       -39.7500   5.5000 -29.2500 Du        
   2541 ****       -39.7500   5.5000 -29.0000 Du        
   2542 ****       -39.7500   5.5000 -28.7500 Du        
   2543 ****       -39.7500   5.5000 -28.5000 Du        
   2544 ****       -39.7500   5.5000 -28.2500 Du        
   2545 ****       -39.7500   5.5000 -28.0000 Du        
   2546 ****       -39.7500   5.5000 -27.7500 Du        
   2547 ****       -39.7500   5.7500 -29.2500 Du        
   2548 ****       -39.7500   5.7500 -29.0000 Du        
   2549 ****       -39.7500   5.7500 -28.7500 Du        
   2550 ****       -39.7500   5.7500 -28.5000 Du        
   2551 ****       -39.7500   5.7500 -28.2500 Du        
   2552 ****       -39.7500   5.7500 -28.0000 Du        
   2553 ****       -39.7500   5.7500 -27.7500 Du        
   2554 ****       -39.7500   6.0000 -29.2500 Du        
   2555 ****       -39.7500   6.0000 -29.0000 Du        
   2556 ****       -39.7500   6.0000 -28.7500 Du        
   2557 ****       -39.7500   6.0000 -28.5000 Du        
   2558 ****       -39.7500   6.0000 -28.2500 Du        
   2559 ****       -39.7500   6.0000 -28.0000 Du        
   2560 ****       -39.7500   6.2500 -28.7500 Du        
   2561 ****       -39.7500   6.2500 -28.5000 Du        
   2562 ****       -39.7500   6.2500 -28.2500 Du        
   2563 ****       -39.5000   3.7500 -27.0000 Du        
   2564 ****       -39.5000   3.7500 -26.7500 Du        
   2565 ****       -39.5000   3.7500 -26.5000 Du        
   2566 ****       -39.5000   3.7500 -26.2500 Du        
   2567 ****       -39.5000   3.7500 -26.0000 Du        
   2568 ****       -39.5000   3.7500 -25.7500 Du        
   2569 ****       -39.5000   4.0000 -29.5000 Du        
   2570 ****       -39.5000   4.0000 -29.2500 Du        
   2571 ****       -39.5000   4.0000 -29.0000 Du        
   2572 ****       -39.5000   4.0000 -28.7500 Du        
   2573 ****       -39.5000   4.0000 -28.5000 Du        
   2574 ****       -39.5000   4.0000 -28.2500 Du        
   2575 ****       -39.5000   4.0000 -28.0000 Du        
   2576 ****       -39.5000   4.0000 -27.7500 Du        
   2577 ****       -39.5000   4.0000 -27.5000 Du        
   2578 ****       -39.5000   4.0000 -27.2500 Du        
   2579 ****       -39.5000   4.0000 -27.0000 Du        
   2580 ****       -39.5000   4.0000 -26.7500 Du        
   2581 ****       -39.5000   4.0000 -26.5000 Du        
   2582 ****       -39.5000   4.0000 -26.2500 Du        
   2583 ****       -39.5000   4.0000 -26.0000 Du        
   2584 ****       -39.5000   4.2500 -29.5000 Du        
   2585 ****       -39.5000   4.2500 -29.2500 Du        
   2586 ****       -39.5000   4.2500 -29.0000 Du        
   2587 ****       -39.5000   4.2500 -28.7500 Du        
   2588 ****       -39.5000   4.2500 -28.5000 Du        
   2589 ****       -39.5000   4.2500 -28.2500 Du        
   2590 ****       -39.5000   4.2500 -28.0000 Du        
   2591 ****       -39.5000   4.2500 -27.7500 Du        
   2592 ****       -39.5000   4.2500 -27.5000 Du        
   2593 ****       -39.5000   4.2500 -27.2500 Du        
   2594 ****       -39.5000   4.2500 -27.0000 Du        
   2595 ****       -39.5000   4.2500 -26.7500 Du        
   2596 ****       -39.5000   4.2500 -26.5000 Du        
   2597 ****       -39.5000   4.5000 -29.5000 Du        
   2598 ****       -39.5000   4.5000 -29.2500 Du        
   2599 ****       -39.5000   4.5000 -29.0000 Du        
   2600 ****       -39.5000   4.5000 -28.7500 Du        
   2601 ****       -39.5000   4.5000 -28.5000 Du        
   2602 ****       -39.5000   4.5000 -28.2500 Du        
   2603 ****       -39.5000   4.5000 -28.0000 Du        
   2604 ****       -39.5000   4.5000 -27.7500 Du        
   2605 ****       -39.5000   4.5000 -27.5000 Du        
   2606 ****       -39.5000   4.5000 -27.2500 Du        
   2607 ****       -39.5000   4.5000 -27.0000 Du        
   2608 ****       -39.5000   4.7500 -29.5000 Du        
   2609 ****       -39.5000   4.7500 -29.2500 Du        
   2610 ****       -39.5000   4.7500 -29.0000 Du        
   2611 ****       -39.5000   4.7500 -28.7500 Du        
   2612 ****       -39.5000   4.7500 -28.5000 Du        
   2613 ****       -39.5000   4.7500 -28.2500 Du        
   2614 ****       -39.5000   4.7500 -28.0000 Du        
   2615 ****       -39.5000   4.7500 -27.7500 Du        
   2616 ****       -39.5000   4.7500 -27.5000 Du        
   2617 ****       -39.5000   4.7500 -27.2500 Du        
   2618 ****       -39.5000   5.0000 -29.5000 Du        
   2619 ****       -39.5000   5.0000 -29.2500 Du        
   2620 ****       -39.5000   5.0000 -29.0000 Du        
   2621 ****       -39.5000   5.0000 -28.7500 Du        
   2622 ****       -39.5000   5.0000 -28.5000 Du        
   2623 ****       -39.5000   5.0000 -28.2500 Du        
   2624 ****       -39.5000   5.0000 -28.0000 Du        
   2625 ****       -39.5000   5.0000 -27.7500 Du        
   2626 ****       -39.5000   5.2500 -29.5000 Du        
   2627 ****       -39.5000   5.2500 -29.2500 Du        
   2628 ****       -39.5000   5.2500 -29.0000 Du        
   2629 ****       -39.5000   5.2500 -28.7500 Du        
   2630 ****       -39.5000   5.2500 -28.5000 Du        
   2631 ****       -39.5000   5.2500 -28.2500 Du        
   2632 ****       -39.5000   5.2500 -28.0000 Du        
   2633 ****       -39.5000   5.2500 -27.7500 Du        
   2634 ****       -39.5000   5.5000 -29.2500 Du        
   2635 ****       -39.5000   5.5000 -29.0000 Du        
   2636 ****       -39.5000   5.5000 -28.7500 Du        
   2637 ****       -39.5000   5.5000 -28.5000 Du        
   2638 ****       -39.5000   5.5000 -28.2500 Du        
   2639 ****       -39.5000   5.5000 -28.0000 Du        
   2640 ****       -39.5000   5.7500 -29.2500 Du        
   2641 ****       -39.5000   5.7500 -29.0000 Du        
   2642 ****       -39.5000   5.7500 -28.7500 Du        
   2643 ****       -39.5000   5.7500 -28.5000 Du        
   2644 ****       -39.5000   5.7500 -28.2500 Du        
   2645 ****       -39.5000   5.7500 -28.0000 Du        
   2646 ****       -39.5000   6.0000 -29.2500 Du        
   2647 ****       -39.5000   6.0000 -29.0000 Du        
   2648 ****       -39.5000   6.0000 -28.7500 Du        
   2649 ****       -39.5000   6.0000 -28.5000 Du        
   2650 ****       -39.5000   6.0000 -28.2500 Du        
   2651 ****       -39.5000   6.2500 -28.7500 Du        
   2652 ****       -39.5000   6.2500 -28.5000 Du        
   2653 ****       -39.2500   3.7500 -27.2500 Du        
   2654 ****       -39.2500   3.7500 -27.0000 Du        
   2655 ****       -39.2500   3.7500 -26.7500 Du        
   2656 ****       -39.2500   3.7500 -26.5000 Du        
   2657 ****       -39.2500   3.7500 -26.2500 Du        
   2658 ****       -39.2500   3.7500 -26.0000 Du        
   2659 ****       -39.2500   4.0000 -29.5000 Du        
   2660 ****       -39.2500   4.0000 -29.2500 Du        
   2661 ****       -39.2500   4.0000 -29.0000 Du        
   2662 ****       -39.2500   4.0000 -28.7500 Du        
   2663 ****       -39.2500   4.0000 -28.5000 Du        
   2664 ****       -39.2500   4.0000 -28.2500 Du        
   2665 ****       -39.2500   4.0000 -28.0000 Du        
   2666 ****       -39.2500   4.0000 -27.7500 Du        
   2667 ****       -39.2500   4.0000 -27.5000 Du        
   2668 ****       -39.2500   4.0000 -27.2500 Du        
   2669 ****       -39.2500   4.0000 -27.0000 Du        
   2670 ****       -39.2500   4.0000 -26.7500 Du        
   2671 ****       -39.2500   4.0000 -26.5000 Du        
   2672 ****       -39.2500   4.0000 -26.2500 Du        
   2673 ****       -39.2500   4.2500 -29.5000 Du        
   2674 ****       -39.2500   4.2500 -29.2500 Du        
   2675 ****       -39.2500   4.2500 -29.0000 Du        
   2676 ****       -39.2500   4.2500 -28.7500 Du        
   2677 ****       -39.2500   4.2500 -28.5000 Du        
   2678 ****       -39.2500   4.2500 -28.2500 Du        
   2679 ****       -39.2500   4.2500 -28.0000 Du        
   2680 ****       -39.2500   4.2500 -27.7500 Du        
   2681 ****       -39.2500   4.2500 -27.5000 Du        
   2682 ****       -39.2500   4.2500 -27.2500 Du        
   2683 ****       -39.2500   4.2500 -27.0000 Du        
   2684 ****       -39.2500   4.5000 -29.5000 Du        
   2685 ****       -39.2500   4.5000 -29.2500 Du        
   2686 ****       -39.2500   4.5000 -29.0000 Du        
   2687 ****       -39.2500   4.5000 -28.7500 Du        
   2688 ****       -39.2500   4.5000 -28.5000 Du        
   2689 ****       -39.2500   4.5000 -28.2500 Du        
   2690 ****       -39.2500   4.5000 -28.0000 Du        
   2691 ****       -39.2500   4.5000 -27.7500 Du        
   2692 ****       -39.2500   4.5000 -27.5000 Du        
   2693 ****       -39.2500   4.7500 -29.5000 Du        
   2694 ****       -39.2500   4.7500 -29.2500 Du        
   2695 ****       -39.2500   4.7500 -29.0000 Du        
   2696 ****       -39.2500   4.7500 -28.7500 Du        
   2697 ****       -39.2500   4.7500 -28.5000 Du        
   2698 ****       -39.2500   4.7500 -28.2500 Du        
   2699 ****       -39.2500   4.7500 -28.0000 Du        
   2700 ****       -39.2500   4.7500 -27.7500 Du        
   2701 ****       -39.2500   5.0000 -29.5000 Du        
   2702 ****       -39.2500   5.0000 -29.2500 Du        
   2703 ****       -39.2500   5.0000 -29.0000 Du        
   2704 ****       -39.2500   5.0000 -28.7500 Du        
   2705 ****       -39.2500   5.0000 -28.5000 Du        
   2706 ****       -39.2500   5.0000 -28.2500 Du        
   2707 ****       -39.2500   5.0000 -28.0000 Du        
   2708 ****       -39.2500   5.2500 -29.5000 Du        
   2709 ****       -39.2500   5.2500 -29.2500 Du        
   2710 ****       -39.2500   5.2500 -29.0000 Du        
   2711 ****       -39.2500   5.2500 -28.7500 Du        
   2712 ****       -39.2500   5.2500 -28.5000 Du        
   2713 ****       -39.2500   5.2500 -28.2500 Du        
   2714 ****       -39.2500   5.2500 -28.0000 Du        
   2715 ****       -39.2500   5.5000 -29.2500 Du        
   2716 ****       -39.2500   5.5000 -29.0000 Du        
   2717 ****       -39.2500   5.5000 -28.7500 Du        
   2718 ****       -39.2500   5.5000 -28.5000 Du        
   2719 ****       -39.2500   5.5000 -28.2500 Du        
   2720 ****       -39.2500   5.7500 -29.2500 Du        
   2721 ****       -39.2500   5.7500 -29.0000 Du        
   2722 ****       -39.2500   5.7500 -28.7500 Du        
   2723 ****       -39.2500   5.7500 -28.5000 Du        
   2724 ****       -39.2500   5.7500 -28.2500 Du        
   2725 ****       -39.2500   6.0000 -29.2500 Du        
   2726 ****       -39.2500   6.0000 -29.0000 Du        
   2727 ****       -39.2500   6.0000 -28.7500 Du        
   2728 ****       -39.2500   6.0000 -28.5000 Du        
   2729 ****       -39.2500   6.2500 -28.7500 Du        
   2730 ****       -39.0000   3.7500 -27.5000 Du        
   2731 ****       -39.0000   3.7500 -27.2500 Du        
   2732 ****       -39.0000   3.7500 -27.0000 Du        
   2733 ****       -39.0000   3.7500 -26.7500 Du        
   2734 ****       -39.0000   3.7500 -26.5000 Du        
   2735 ****       -39.0000   3.7500 -26.2500 Du        
   2736 ****       -39.0000   4.0000 -29.5000 Du        
   2737 ****       -39.0000   4.0000 -29.2500 Du        
   2738 ****       -39.0000   4.0000 -29.0000 Du        
   2739 ****       -39.0000   4.0000 -28.7500 Du        
   2740 ****       -39.0000   4.0000 -28.5000 Du        
   2741 ****       -39.0000   4.0000 -28.2500 Du        
   2742 ****       -39.0000   4.0000 -28.0000 Du        
   2743 ****       -39.0000   4.0000 -27.7500 Du        
   2744 ****       -39.0000   4.0000 -27.5000 Du        
   2745 ****       -39.0000   4.0000 -27.2500 Du        
   2746 ****       -39.0000   4.0000 -27.0000 Du        
   2747 ****       -39.0000   4.0000 -26.7500 Du        
   2748 ****       -39.0000   4.2500 -29.5000 Du        
   2749 ****       -39.0000   4.2500 -29.2500 Du        
   2750 ****       -39.0000   4.2500 -29.0000 Du        
   2751 ****       -39.0000   4.2500 -28.7500 Du        
   2752 ****       -39.0000   4.2500 -28.5000 Du        
   2753 ****       -39.0000   4.2500 -28.2500 Du        
   2754 ****       -39.0000   4.2500 -28.0000 Du        
   2755 ****       -39.0000   4.2500 -27.7500 Du        
   2756 ****       -39.0000   4.2500 -27.5000 Du        
   2757 ****       -39.0000   4.2500 -27.2500 Du        
   2758 ****       -39.0000   4.5000 -29.5000 Du        
   2759 ****       -39.0000   4.5000 -29.2500 Du        
   2760 ****       -39.0000   4.5000 -29.0000 Du        
   2761 ****       -39.0000   4.5000 -28.7500 Du        
   2762 ****       -39.0000   4.5000 -28.5000 Du        
   2763 ****       -39.0000   4.5000 -28.2500 Du        
   2764 ****       -39.0000   4.5000 -28.0000 Du        
   2765 ****       -39.0000   4.5000 -27.7500 Du        
   2766 ****       -39.0000   4.7500 -29.5000 Du        
   2767 ****       -39.0000   4.7500 -29.2500 Du        
   2768 ****       -39.0000   4.7500 -29.0000 Du        
   2769 ****       -39.0000   4.7500 -28.7500 Du        
   2770 ****       -39.0000   4.7500 -28.5000 Du        
   2771 ****       -39.0000   4.7500 -28.2500 Du        
   2772 ****       -39.0000   4.7500 -28.0000 Du        
   2773 ****       -39.0000   5.0000 -29.5000 Du        
   2774 ****       -39.0000   5.0000 -29.2500 Du        
   2775 ****       -39.0000   5.0000 -29.0000 Du        
   2776 ****       -39.0000   5.0000 -28.7500 Du        
   2777 ****       -39.0000   5.0000 -28.5000 Du        
   2778 ****       -39.0000   5.0000 -28.2500 Du        
   2779 ****       -39.0000   5.0000 -28.0000 Du        
   2780 ****       -39.0000   5.2500 -29.2500 Du        
   2781 ****       -39.0000   5.2500 -29.0000 Du        
   2782 ****       -39.0000   5.2500 -28.7500 Du        
   2783 ****       -39.0000   5.2500 -28.5000 Du        
   2784 ****       -39.0000   5.2500 -28.2500 Du        
   2785 ****       -39.0000   5.5000 -29.2500 Du        
   2786 ****       -39.0000   5.5000 -29.0000 Du        
   2787 ****       -39.0000   5.5000 -28.7500 Du        
   2788 ****       -39.0000   5.5000 -28.5000 Du        
   2789 ****       -39.0000   5.7500 -29.2500 Du        
   2790 ****       -39.0000   5.7500 -29.0000 Du        
   2791 ****       -39.0000   5.7500 -28.7500 Du        
   2792 ****       -39.0000   5.7500 -28.5000 Du        
   2793 ****       -39.0000   6.0000 -29.2500 Du        
   2794 ****       -39.0000   6.0000 -29.0000 Du        
   2795 ****       -39.0000   6.0000 -28.7500 Du        
   2796 ****       -38.7500   3.7500 -27.5000 Du        
   2797 ****       -38.7500   3.7500 -27.2500 Du        
   2798 ****       -38.7500   3.7500 -27.0000 Du        
   2799 ****       -38.7500   4.0000 -29.5000 Du        
   2800 ****       -38.7500   4.0000 -29.2500 Du        
   2801 ****       -38.7500   4.0000 -29.0000 Du        
   2802 ****       -38.7500   4.0000 -28.7500 Du        
   2803 ****       -38.7500   4.0000 -28.5000 Du        
   2804 ****       -38.7500   4.0000 -28.2500 Du        
   2805 ****       -38.7500   4.0000 -28.0000 Du        
   2806 ****       -38.7500   4.0000 -27.7500 Du        
   2807 ****       -38.7500   4.0000 -27.5000 Du        
   2808 ****       -38.7500   4.0000 -27.2500 Du        
   2809 ****       -38.7500   4.2500 -29.5000 Du        
   2810 ****       -38.7500   4.2500 -29.2500 Du        
   2811 ****       -38.7500   4.2500 -29.0000 Du        
   2812 ****       -38.7500   4.2500 -28.7500 Du        
   2813 ****       -38.7500   4.2500 -28.5000 Du        
   2814 ****       -38.7500   4.2500 -28.2500 Du        
   2815 ****       -38.7500   4.2500 -28.0000 Du        
   2816 ****       -38.7500   4.2500 -27.7500 Du        
   2817 ****       -38.7500   4.5000 -29.5000 Du        
   2818 ****       -38.7500   4.5000 -29.2500 Du        
   2819 ****       -38.7500   4.5000 -29.0000 Du        
   2820 ****       -38.7500   4.5000 -28.7500 Du        
   2821 ****       -38.7500   4.5000 -28.5000 Du        
   2822 ****       -38.7500   4.5000 -28.2500 Du        
   2823 ****       -38.7500   4.5000 -28.0000 Du        
   2824 ****       -38.7500   4.7500 -29.5000 Du        
   2825 ****       -38.7500   4.7500 -29.2500 Du        
   2826 ****       -38.7500   4.7500 -29.0000 Du        
   2827 ****       -38.7500   4.7500 -28.7500 Du        
   2828 ****       -38.7500   4.7500 -28.5000 Du        
   2829 ****       -38.7500   4.7500 -28.2500 Du        
   2830 ****       -38.7500   5.0000 -29.2500 Du        
   2831 ****       -38.7500   5.0000 -29.0000 Du        
   2832 ****       -38.7500   5.0000 -28.7500 Du        
   2833 ****       -38.7500   5.0000 -28.5000 Du        
   2834 ****       -38.7500   5.0000 -28.2500 Du        
   2835 ****       -38.7500   5.2500 -29.2500 Du        
   2836 ****       -38.7500   5.2500 -29.0000 Du        
   2837 ****       -38.7500   5.2500 -28.7500 Du        
   2838 ****       -38.7500   5.2500 -28.5000 Du        
   2839 ****       -38.7500   5.5000 -29.2500 Du        
   2840 ****       -38.7500   5.5000 -29.0000 Du        
   2841 ****       -38.7500   5.5000 -28.7500 Du        
   2842 ****       -38.7500   5.5000 -28.5000 Du        
   2843 ****       -38.7500   5.7500 -29.2500 Du        
   2844 ****       -38.7500   5.7500 -29.0000 Du        
   2845 ****       -38.7500   5.7500 -28.7500 Du        
   2846 ****       -38.7500   6.0000 -29.2500 Du        
   2847 ****       -38.7500   6.0000 -29.0000 Du        
   2848 ****       -38.7500   6.0000 -28.7500 Du        
   2849 ****       -38.5000   4.0000 -29.2500 Du        
   2850 ****       -38.5000   4.0000 -29.0000 Du        
   2851 ****       -38.5000   4.0000 -28.7500 Du        
   2852 ****       -38.5000   4.0000 -28.5000 Du        
   2853 ****       -38.5000   4.0000 -28.2500 Du        
   2854 ****       -38.5000   4.0000 -28.0000 Du        
   2855 ****       -38.5000   4.0000 -27.7500 Du        
   2856 ****       -38.5000   4.0000 -27.5000 Du        
   2857 ****       -38.5000   4.2500 -29.2500 Du        
   2858 ****       -38.5000   4.2500 -29.0000 Du        
   2859 ****       -38.5000   4.2500 -28.7500 Du        
   2860 ****       -38.5000   4.2500 -28.5000 Du        
   2861 ****       -38.5000   4.2500 -28.2500 Du        
   2862 ****       -38.5000   4.2500 -28.0000 Du        
   2863 ****       -38.5000   4.2500 -27.7500 Du        
   2864 ****       -38.5000   4.5000 -29.2500 Du        
   2865 ****       -38.5000   4.5000 -29.0000 Du        
   2866 ****       -38.5000   4.5000 -28.7500 Du        
   2867 ****       -38.5000   4.5000 -28.5000 Du        
   2868 ****       -38.5000   4.5000 -28.2500 Du        
   2869 ****       -38.5000   4.5000 -28.0000 Du        
   2870 ****       -38.5000   4.7500 -29.2500 Du        
   2871 ****       -38.5000   4.7500 -29.0000 Du        
   2872 ****       -38.5000   4.7500 -28.7500 Du        
   2873 ****       -38.5000   4.7500 -28.5000 Du        
   2874 ****       -38.5000   4.7500 -28.2500 Du        
   2875 ****       -38.5000   5.0000 -29.2500 Du        
   2876 ****       -38.5000   5.0000 -29.0000 Du        
   2877 ****       -38.5000   5.0000 -28.7500 Du        
   2878 ****       -38.5000   5.0000 -28.5000 Du        
   2879 ****       -38.5000   5.2500 -29.2500 Du        
   2880 ****       -38.5000   5.2500 -29.0000 Du        
   2881 ****       -38.5000   5.2500 -28.7500 Du        
   2882 ****       -38.5000   5.2500 -28.5000 Du        
   2883 ****       -38.5000   5.5000 -29.2500 Du        
   2884 ****       -38.5000   5.5000 -29.0000 Du        
   2885 ****       -38.5000   5.5000 -28.7500 Du        
   2886 ****       -38.5000   5.7500 -29.2500 Du        
   2887 ****       -38.5000   5.7500 -29.0000 Du        
   2888 ****       -38.5000   5.7500 -28.7500 Du        
   2889 ****       -38.5000   6.0000 -29.0000 Du        
   2890 ****       -38.2500   4.0000 -28.7500 Du        
   2891 ****       -38.2500   4.0000 -28.5000 Du        
   2892 ****       -38.2500   4.0000 -28.2500 Du        
   2893 ****       -38.2500   4.0000 -28.0000 Du        
   2894 ****       -38.2500   4.2500 -29.2500 Du        
   2895 ****       -38.2500   4.2500 -29.0000 Du        
   2896 ****       -38.2500   4.2500 -28.7500 Du        
   2897 ****       -38.2500   4.2500 -28.5000 Du        
   2898 ****       -38.2500   4.2500 -28.2500 Du        
   2899 ****       -38.2500   4.2500 -28.0000 Du        
   2900 ****       -38.2500   4.5000 -29.2500 Du        
   2901 ****       -38.2500   4.5000 -29.0000 Du        
   2902 ****       -38.2500   4.5000 -28.7500 Du        
   2903 ****       -38.2500   4.5000 -28.5000 Du        
   2904 ****       -38.2500   4.5000 -28.2500 Du        
   2905 ****       -38.2500   4.7500 -29.2500 Du        
   2906 ****       -38.2500   4.7500 -29.0000 Du        
   2907 ****       -38.2500   4.7500 -28.7500 Du        
   2908 ****       -38.2500   4.7500 -28.5000 Du        
   2909 ****       -38.2500   4.7500 -28.2500 Du        
   2910 ****       -38.2500   5.0000 -29.2500 Du        
   2911 ****       -38.2500   5.0000 -29.0000 Du        
   2912 ****       -38.2500   5.0000 -28.7500 Du        
   2913 ****       -38.2500   5.0000 -28.5000 Du        
   2914 ****       -38.2500   5.2500 -29.0000 Du        
   2915 ****       -38.2500   5.2500 -28.7500 Du        
   2916 ****       -38.2500   5.5000 -29.0000 Du        
   2917 ****       -38.2500   5.5000 -28.7500 Du        
   2918 ****       -38.2500   5.7500 -29.0000 Du        
   2919 ****       -38.2500   5.7500 -28.7500 Du        
   2920 ****       -38.2500   6.0000 -29.0000 Du        
   2921 ****       -38.0000   4.2500 -29.0000 Du        
   2922 ****       -38.0000   4.2500 -28.7500 Du        
   2923 ****       -38.0000   4.2500 -28.5000 Du        
   2924 ****       -38.0000   4.2500 -28.2500 Du        
   2925 ****       -38.0000   4.5000 -29.0000 Du        
   2926 ****       -38.0000   4.5000 -28.7500 Du        
   2927 ****       -38.0000   4.5000 -28.5000 Du        
   2928 ****       -38.0000   4.5000 -28.2500 Du        
   2929 ****       -38.0000   4.7500 -29.0000 Du        
   2930 ****       -38.0000   4.7500 -28.7500 Du        
   2931 ****       -38.0000   4.7500 -28.5000 Du        
   2932 ****       -38.0000   5.0000 -29.0000 Du        
   2933 ****       -38.0000   5.0000 -28.7500 Du        
   2934 ****       -38.0000   5.0000 -28.5000 Du        
   2935 ****       -38.0000   5.2500 -29.0000 Du        
   2936 ****       -38.0000   5.2500 -28.7500 Du        
   2937 ****       -38.0000   5.5000 -29.0000 Du        
   2938 ****       -38.0000   5.5000 -28.7500 Du        
   2939 ****       -38.0000   5.7500 -29.0000 Du        
   2940 ****       -37.7500   4.5000 -29.0000 Du        
   2941 ****       -37.7500   4.5000 -28.7500 Du        
   2942 ****       -37.7500   4.5000 -28.5000 Du        
   2943 ****       -37.7500   4.7500 -29.0000 Du        
   2944 ****       -37.7500   4.7500 -28.7500 Du        
   2945 ****       -37.7500   4.7500 -28.5000 Du        
   2946 ****       -37.7500   5.0000 -29.0000 Du        
   2947 ****       -37.7500   5.0000 -28.7500 Du        
   2948 ****       -37.7500   5.2500 -29.0000 Du        
   2949 ****       -37.7500   5.2500 -28.7500 Du        
   2950 ****       -37.5000   4.5000 -29.0000 Du        
   2951 ****       -37.5000   4.5000 -28.7500 Du        
   2952 ****       -37.5000   4.7500 -29.0000 Du        
   2953 ****       -37.5000   4.7500 -28.7500 Du        
   2954 ****       -37.5000   5.0000 -29.0000 Du        
   2955 ****       -37.5000   5.0000 -28.7500 Du        
   2956 ****       -37.5000   5.2500 -28.7500 Du        
   2957 ****       -37.2500   4.7500 -29.0000 Du        
   2958 ****       -37.2500   4.7500 -28.7500 Du        
   2959 ****       -37.2500   5.0000 -29.0000 Du        
   2960 ****       -37.2500   5.0000 -28.7500 Du        
   2961 ****       -37.2500   5.2500 -28.7500 Du        
   2962 ****       -37.0000   5.0000 -29.0000 Du        
