#       Name:                CT1002167954
#       Creating user name   hitesit
#       Creation time:       Sun Apr 16 02:23:28 2023


#       File generated by GOLD software.
#

@<TRIPOS>MOLECULE
CT1002167954|ligand_prepared|mol2|1|dock5
    29    30     1
SMALL
NO_CHARGES


@<TRIPOS>ATOM
      1 C1         -43.7818   6.0200 -30.1709 C.3            1 RES1               0.0000
      2 C2         -42.7150   5.8768 -29.0663 C.ar           1 RES1               0.0000
      3 C3         -43.3628   5.0782 -31.2959 C.2            1 RES1               0.0000
      4 C4         -45.1157   5.6626 -29.5247 C.2            1 RES1               0.0000
      5 C5         -43.8977   7.4509 -30.7459 C.3            1 RES1               0.0000
      6 C6         -42.9898   5.1621 -27.9042 C.ar           1 RES1               0.0000
      7 C7         -41.4530   6.4504 -29.1959 C.ar           1 RES1               0.0000
      8 N8         -44.0772   3.9275 -31.4556 N.am           1 RES1               0.0000
      9 O9         -42.3957   5.3223 -32.0068 O.2            1 RES1               0.0000
     10 N10        -45.7617   4.5374 -29.9655 N.am           1 RES1               0.0000
     11 O11        -45.6052   6.3361 -28.6263 O.2            1 RES1               0.0000
     12 C12        -45.0366   7.6225 -31.7386 C.3            1 RES1               0.0000
     13 C13        -42.0366   5.0233 -26.9090 C.ar           1 RES1               0.0000
     14 C14        -40.5012   6.3106 -28.1994 C.ar           1 RES1               0.0000
     15 C15        -45.2880   3.6367 -30.8803 C.2            1 RES1               0.0000
     16 C16        -40.7917   5.5970 -27.0561 C.ar           1 RES1               0.0000
     17 O17        -45.9030   2.6189 -31.1853 O.2            1 RES1               0.0000
     18 H18        -44.0433   8.1540 -29.9165 H              1 RES1               0.0000
     19 H19        -42.9544   7.7093 -31.2427 H              1 RES1               0.0000
     20 H20        -43.9649   4.7057 -27.7697 H              1 RES1               0.0000
     21 H21        -41.2027   7.0171 -30.0863 H              1 RES1               0.0000
     22 H22        -43.6739   3.2175 -32.0586 H              1 RES1               0.0000
     23 H23        -46.6808   4.3542 -29.5757 H              1 RES1               0.0000
     24 H24        -45.0730   8.6441 -32.1111 H              1 RES1               0.0000
     25 H25        -44.9105   6.9559 -32.5893 H              1 RES1               0.0000
     26 H26        -45.9930   7.3980 -31.2709 H              1 RES1               0.0000
     27 H27        -42.2706   4.4619 -26.0105 H              1 RES1               0.0000
     28 H28        -39.5229   6.7643 -28.3191 H              1 RES1               0.0000
     29 H29        -40.0450   5.4878 -26.2765 H              1 RES1               0.0000
@<TRIPOS>BOND
    1    1    2 1     
    2    1    3 1     
    3    1    4 1     
    4    1    5 1     
    5    2    6 ar    
    6    2    7 ar    
    7    3    8 1     
    8    3    9 2     
    9    4   10 1     
   10    4   11 2     
   11    5   12 1     
   12    5   18 1     
   13    5   19 1     
   14    6   13 ar    
   15    6   20 1     
   16    7   14 ar    
   17    7   21 1     
   18    8   15 1     
   19    8   22 1     
   20   10   15 1     
   21   10   23 1     
   22   12   24 1     
   23   12   25 1     
   24   12   26 1     
   25   13   16 ar    
   26   13   27 1     
   27   14   16 ar    
   28   14   28 1     
   29   15   17 2     
   30   16   29 1     
@<TRIPOS>SUBSTRUCTURE
      1 RES1           1
@<TRIPOS>SET
DONOR_HYDROGENS      STATIC     ATOMS    <user>   **** ""
2 22 23
ATOM$RED        STATIC     ATOMS    COLORGROUP SYSTEM
2 22 23
@<TRIPOS>COMMENT
> <Gold.Version>
2022.3.0

> <Gold.Id.Protein>
unknown|7ta6_clean|pdb

> <Gold.Protein.RotatedTorsions>
[ 1498 1427 1428 1429 ] final  179.83 input  100.76 | X-H torsion
[ 1739 1653 1654 1655 ] final  111.66 input   85.13 | X-H torsion
[ 1831 1781 1782 1783 ] final  -65.32 input   95.59 | X-H torsion
[ 1943 1869 1870 1871 ] final -140.97 input  114.16 | X-H torsion
[ 2010 1974 1975 1976 ] final  142.98 input  -86.06 | X-H torsion
[ 2126 2040 2041 2042 ] final   12.63 input   20.42 | X-H torsion
[ 2266 2174 2175 2176 ] final  -37.00 input   67.72 | X-H torsion
[ 2431 2337 2338 2339 ] final   50.09 input   82.35 | X-H torsion
[ 14714 14666 14667 14668 ] final -105.31 input  114.45 | X-H torsion
[ 14987 14930 14931 14932 ] final   69.95 input  116.70 | X-H torsion
[ 15134 15082 15083 15084 ] final -177.64 input   24.19 | X-H torsion
[ 15259 15184 15185 15186 ] final   10.67 input -115.06 | X-H torsion
[ 15367 15332 15333 15334 ] final   84.69 input  118.12 | X-H torsion
[ 15474 15420 15421 15422 ] final -103.39 input  108.08 | X-H torsion
[ 14842 14770 14771 14772 ] final  -20.39 input   77.85 | X-H torsion
[ 1385 1341 1342 1343 ] final   -2.96 input  112.53 | X-H torsion
[ 6678 6630 6631 6632 ] final  -40.74 input   49.89 | X-H torsion
[ 15573 15534 15535 15536 ] final  -10.80 input   96.27 | X-H torsion
[ 20694 1344 1343 1342 ] final  109.27 input   -0.00 | X-H torsion
[ 20697 1430 1429 1428 ] final   74.27 input    0.00 | X-H torsion
[ 20700 1540 1539 1538 ] final -114.50 input    0.00 | X-H torsion
[ 20703 1656 1655 1654 ] final -161.43 input   -0.00 | X-H torsion
[ 20706 1784 1783 1782 ] final  132.30 input    0.00 | X-H torsion
[ 20709 1872 1871 1870 ] final  126.84 input    0.00 | X-H torsion
[ 20716 1977 1976 1975 ] final -133.49 input    0.00 | X-H torsion
[ 20719 2043 2042 2041 ] final  -40.75 input    0.00 | X-H torsion
[ 20723 2340 2339 2338 ] final  -15.98 input    0.00 | X-H torsion
[ 20725 14555 14554 14553 ] final   38.66 input   -0.00 | X-H torsion
[ 20728 14669 14668 14667 ] final  -12.55 input    0.00 | X-H torsion
[ 20731 14933 14932 14931 ] final  110.82 input    0.00 | X-H torsion
[ 20734 15085 15084 15083 ] final   66.40 input   -0.00 | X-H torsion
[ 20742 14773 14772 14771 ] final  167.98 input    0.00 | X-H torsion
[ 20747 6633 6632 6631 ] final   42.04 input   -0.00 | X-H torsion
[ 20749 15187 15186 15185 ] final -141.05 input    0.00 | X-H torsion
[ 20751 15335 15334 15333 ] final -115.77 input    0.00 | X-H torsion

> <Gold.Protein.ActiveResidues>
 ALA18   ASN19   PRO20   GLN21   ALA22   GLU23   GLY24   GLN25   LEU26   GLN27  
 LEU63   PHE64   LYS65   ILE136  PRO139  ASP140  TYR141  LEU142  ASP143  PHE144 
 ALA145  GLU146  SER147  VAL150 

> <Gold.Protein.RotatedAtoms>
  -34.5820   10.9234  -32.2989 H   0  0  0  0  0  0  0  0  0  0  0  0  # atno 1385 bound_to 1341
  -34.1015    7.5222  -32.2518 H   0  0  0  0  0  0  0  0  0  0  0  0  # atno 1498 bound_to 1427
  -38.8606    4.2512  -34.4905 H   0  0  0  0  0  0  0  0  0  0  0  0  # atno 1739 bound_to 1653
  -38.4429    1.6712  -32.5630 H   0  0  0  0  0  0  0  0  0  0  0  0  # atno 1831 bound_to 1781
  -38.4317    1.2974  -30.5448 H   0  0  0  0  0  0  0  0  0  0  0  0  # atno 1943 bound_to 1869
  -38.8390   -0.3387  -27.0001 H   0  0  0  0  0  0  0  0  0  0  0  0  # atno 2010 bound_to 1974
  -36.3898    1.6964  -26.5543 H   0  0  0  0  0  0  0  0  0  0  0  0  # atno 2126 bound_to 2040
  -33.2404    3.2166  -26.8141 H   0  0  0  0  0  0  0  0  0  0  0  0  # atno 2266 bound_to 2174
  -33.3825    5.1655  -29.1804 H   0  0  0  0  0  0  0  0  0  0  0  0  # atno 2431 bound_to 2337
  -37.7761   12.2980  -22.7689 H   0  0  0  0  0  0  0  0  0  0  0  0  # atno 6678 bound_to 6630
  -38.1463    2.4549  -21.5684 H   0  0  0  0  0  0  0  0  0  0  0  0  # atno 14714 bound_to 14666
  -40.2785    4.1096  -21.3061 H   0  0  0  0  0  0  0  0  0  0  0  0  # atno 14842 bound_to 14770
  -40.2325    5.3399  -22.4055 H   0  0  0  0  0  0  0  0  0  0  0  0  # atno 14987 bound_to 14930
  -41.5018    7.5340  -24.2840 H   0  0  0  0  0  0  0  0  0  0  0  0  # atno 15134 bound_to 15082
  -42.3679    9.5422  -27.5459 H   0  0  0  0  0  0  0  0  0  0  0  0  # atno 15259 bound_to 15184
  -41.7719    9.5077  -29.4512 H   0  0  0  0  0  0  0  0  0  0  0  0  # atno 15367 bound_to 15332
  -40.4611   10.3264  -31.8804 H   0  0  0  0  0  0  0  0  0  0  0  0  # atno 15474 bound_to 15420
  -41.1387   12.7132  -32.9685 H   0  0  0  0  0  0  0  0  0  0  0  0  # atno 15573 bound_to 15534
  -35.9272    9.1928  -33.7060 LP  0  0  0  0  0  0  0  0  0  0  0  0  # atno 20694 bound_to 1344
  -36.9996    9.3873  -32.3599 LP  0  0  0  0  0  0  0  0  0  0  0  0  # atno 20695 bound_to 1344
  -35.5270    7.4651  -31.2422 LP  0  0  0  0  0  0  0  0  0  0  0  0  # atno 20696 bound_to 1427
  -37.1104    5.8561  -30.6473 LP  0  0  0  0  0  0  0  0  0  0  0  0  # atno 20697 bound_to 1430
  -37.4900    4.4118  -31.5246 LP  0  0  0  0  0  0  0  0  0  0  0  0  # atno 20698 bound_to 1430
  -40.3219    3.4999  -31.2452 LP  0  0  0  0  0  0  0  0  0  0  0  0  # atno 20700 bound_to 1540
  -41.5936    4.3913  -32.0122 LP  0  0  0  0  0  0  0  0  0  0  0  0  # atno 20701 bound_to 1540
  -39.3555    4.2500  -32.8113 LP  0  0  0  0  0  0  0  0  0  0  0  0  # atno 20702 bound_to 1653
  -38.3334   -0.2850  -32.1726 LP  0  0  0  0  0  0  0  0  0  0  0  0  # atno 20703 bound_to 1656
  -39.3469   -0.1920  -33.5740 LP  0  0  0  0  0  0  0  0  0  0  0  0  # atno 20704 bound_to 1656
  -37.2459    2.9350  -32.7281 LP  0  0  0  0  0  0  0  0  0  0  0  0  # atno 20705 bound_to 1781
  -37.4135    2.3926  -28.5187 LP  0  0  0  0  0  0  0  0  0  0  0  0  # atno 20706 bound_to 1784
  -35.8238    1.8266  -28.9094 LP  0  0  0  0  0  0  0  0  0  0  0  0  # atno 20707 bound_to 1784
  -37.7405   -0.2832  -30.2708 LP  0  0  0  0  0  0  0  0  0  0  0  0  # atno 20708 bound_to 1869
  -36.5926   -1.3464  -27.6741 LP  0  0  0  0  0  0  0  0  0  0  0  0  # atno 20709 bound_to 1872
  -38.0152   -2.1222  -28.2858 LP  0  0  0  0  0  0  0  0  0  0  0  0  # atno 20710 bound_to 1872
  -38.1703    1.2489  -26.6925 LP  0  0  0  0  0  0  0  0  0  0  0  0  # atno 20715 bound_to 1974
  -34.9780    0.4727  -23.5571 LP  0  0  0  0  0  0  0  0  0  0  0  0  # atno 20716 bound_to 1977
  -35.3728   -1.1349  -24.0667 LP  0  0  0  0  0  0  0  0  0  0  0  0  # atno 20717 bound_to 1977
  -35.9917    0.4846  -25.3589 LP  0  0  0  0  0  0  0  0  0  0  0  0  # atno 20718 bound_to 2040
  -35.8283    2.9816  -27.7176 LP  0  0  0  0  0  0  0  0  0  0  0  0  # atno 20719 bound_to 2043
  -35.7085    4.5719  -27.0417 LP  0  0  0  0  0  0  0  0  0  0  0  0  # atno 20720 bound_to 2043
  -33.5720    3.8684  -25.2214 LP  0  0  0  0  0  0  0  0  0  0  0  0  # atno 20721 bound_to 2174
  -32.1140    4.7388  -28.0509 LP  0  0  0  0  0  0  0  0  0  0  0  0  # atno 20722 bound_to 2337
  -33.4575    5.8529  -31.3822 LP  0  0  0  0  0  0  0  0  0  0  0  0  # atno 20723 bound_to 2340
  -32.8021    7.4239  -31.7024 LP  0  0  0  0  0  0  0  0  0  0  0  0  # atno 20724 bound_to 2340
  -38.2654    3.5369  -23.6130 LP  0  0  0  0  0  0  0  0  0  0  0  0  # atno 20725 bound_to 14555
  -39.7494    3.7204  -22.7389 LP  0  0  0  0  0  0  0  0  0  0  0  0  # atno 20726 bound_to 14555
  -38.4371    2.7259  -19.8687 LP  0  0  0  0  0  0  0  0  0  0  0  0  # atno 20727 bound_to 14666
  -42.5071    2.1584  -21.8478 LP  0  0  0  0  0  0  0  0  0  0  0  0  # atno 20728 bound_to 14669
  -42.9956    3.6615  -21.1395 LP  0  0  0  0  0  0  0  0  0  0  0  0  # atno 20729 bound_to 14669
  -40.5025    6.6959  -21.3377 LP  0  0  0  0  0  0  0  0  0  0  0  0  # atno 20730 bound_to 14930
  -42.5653    5.8993  -24.4572 LP  0  0  0  0  0  0  0  0  0  0  0  0  # atno 20731 bound_to 14933
  -41.0936    5.4960  -25.2766 LP  0  0  0  0  0  0  0  0  0  0  0  0  # atno 20732 bound_to 14933
  -40.9188    9.1375  -24.6693 LP  0  0  0  0  0  0  0  0  0  0  0  0  # atno 20733 bound_to 15082
  -40.4875   10.3073  -26.4808 LP  0  0  0  0  0  0  0  0  0  0  0  0  # atno 20734 bound_to 15085
  -41.6389   11.4599  -25.8928 LP  0  0  0  0  0  0  0  0  0  0  0  0  # atno 20735 bound_to 15085
  -44.0472    9.7747  -27.0926 LP  0  0  0  0  0  0  0  0  0  0  0  0  # atno 20738 bound_to 15184
  -41.5326   11.1369  -28.8718 LP  0  0  0  0  0  0  0  0  0  0  0  0  # atno 20739 bound_to 15332
  -42.1531   10.5439  -31.5059 LP  0  0  0  0  0  0  0  0  0  0  0  0  # atno 20740 bound_to 15420
  -40.5720    3.7510  -19.6173 LP  0  0  0  0  0  0  0  0  0  0  0  0  # atno 20741 bound_to 14770
  -41.8597    8.2354  -22.1759 LP  0  0  0  0  0  0  0  0  0  0  0  0  # atno 20742 bound_to 14773
  -42.9769    7.4768  -21.0913 LP  0  0  0  0  0  0  0  0  0  0  0  0  # atno 20743 bound_to 14773
  -33.8187   11.2732  -30.7672 LP  0  0  0  0  0  0  0  0  0  0  0  0  # atno 20746 bound_to 1341
  -39.2622   10.5047  -23.5048 LP  0  0  0  0  0  0  0  0  0  0  0  0  # atno 20747 bound_to 6633
  -40.8750   10.0001  -23.1251 LP  0  0  0  0  0  0  0  0  0  0  0  0  # atno 20748 bound_to 6633
  -41.3530   12.5612  -30.6965 LP  0  0  0  0  0  0  0  0  0  0  0  0  # atno 20749 bound_to 15187
  -41.8765   13.3773  -29.2612 LP  0  0  0  0  0  0  0  0  0  0  0  0  # atno 20750 bound_to 15187
  -39.5539   12.4191  -32.5651 LP  0  0  0  0  0  0  0  0  0  0  0  0  # atno 20751 bound_to 15335
  -38.4904   11.0568  -32.4513 LP  0  0  0  0  0  0  0  0  0  0  0  0  # atno 20752 bound_to 15335

> <Gold.Score>
     Fitness  S(hb_ext) S(vdw_ext)  S(hb_int)    S(int)      intcor
     27.64       0.00      21.29       0.00      -1.63      -0.77

> <Gold.Goldscore.Fitness>
27.6427

> <Gold.Goldscore.Internal.Vdw>
-1.9845

> <Gold.Goldscore.Internal.Torsion>
-0.4142

> <Gold.Goldscore.External.Vdw>
21.2918

> <Gold.Goldscore.Internal.HBond>
0.0000

> <Gold.Goldscore.External.HBond>
0.0000

> <Gold.Goldscore.Internal.Correction>
-0.7653

> <Gold.Goldscore.Internal.Vdw.Weighted>
-1.9845

> <Gold.Goldscore.Internal.Torsion.Weighted>
-0.4142

> <Gold.Goldscore.External.Vdw.Weighted>
29.2762

> <Gold.Goldscore.Internal.HBond.Weighted>
0.0000

> <Gold.Goldscore.External.HBond.Weighted>
0.0000

> <Gold.Goldscore.Internal.Correction.Weighted>
-0.7653

> <Gold.Rescore>
     Score     S(PLP)   S(hbond)     S(cho)   S(metal)  DE(clash)   DE(tors)     intcor
     18.80     -21.06       0.00       0.00       0.00       1.67       0.30       ----

> <Gold.PLP.Fitness>
18.7995

> <Gold.PLP.PLP>
-21.0647

> <Gold.PLP.part.hbond>
-0.6173

> <Gold.PLP.part.metal>
0.0000

> <Gold.PLP.part.buried>
-1.9261

> <Gold.PLP.part.nonpolar>
-20.1902

> <Gold.PLP.part.repulsive>
0.4609

> <Gold.PLP.ligand.clash>
1.6690

> <Gold.PLP.ligand.torsion>
0.2981

> <Gold.PLP.Chemscore.Hbond>
0.0000

> <Gold.PLP.Chemscore.CHOScore>
0.0000

> <Gold.PLP.Chemscore.Metal>
0.0000

> <Gold.PLP.Chemscore.Internal.Correction>
   9.000000E+99

