#       Name:                CT1002167954
#       Creating user name   hitesit
#       Creation time:       Sun Apr 16 02:23:32 2023


#       File generated by GOLD software.
#

@<TRIPOS>MOLECULE
CT1002167954|ligand_prepared|mol2|1|dock10
    29    30     1
SMALL
NO_CHARGES


@<TRIPOS>ATOM
      1 C1         -45.0059   5.1505 -31.4219 C.3            1 RES1               0.0000
      2 C2         -43.9303   6.0125 -30.7301 C.ar           1 RES1               0.0000
      3 C3         -44.2756   3.9498 -32.0165 C.2            1 RES1               0.0000
      4 C4         -46.0216   4.7893 -30.3437 C.2            1 RES1               0.0000
      5 C5         -45.7562   5.8816 -32.5594 C.3            1 RES1               0.0000
      6 C6         -42.8705   5.4154 -30.0540 C.ar           1 RES1               0.0000
      7 C7         -43.9827   7.4035 -30.7617 C.ar           1 RES1               0.0000
      8 N8         -44.4294   2.7456 -31.3952 N.am           1 RES1               0.0000
      9 O9         -43.5444   4.0657 -32.9923 O.2            1 RES1               0.0000
     10 N10        -46.1382   3.4714 -29.9870 N.am           1 RES1               0.0000
     11 O11        -46.7102   5.6363 -29.7880 O.2            1 RES1               0.0000
     12 C12        -46.5902   4.9600 -33.4354 C.3            1 RES1               0.0000
     13 C13        -41.8968   6.1811 -29.4343 C.ar           1 RES1               0.0000
     14 C14        -43.0080   8.1673 -30.1411 C.ar           1 RES1               0.0000
     15 C15        -45.3665   2.4372 -30.4420 C.2            1 RES1               0.0000
     16 C16        -41.9646   7.5573 -29.4778 C.ar           1 RES1               0.0000
     17 O17        -45.4951   1.2868 -30.0331 O.2            1 RES1               0.0000
     18 H18        -46.4144   6.6400 -32.1178 H              1 RES1               0.0000
     19 H19        -45.0232   6.4000 -33.1899 H              1 RES1               0.0000
     20 H20        -42.8019   4.3337 -30.0070 H              1 RES1               0.0000
     21 H21        -44.7949   7.9050 -31.2768 H              1 RES1               0.0000
     22 H22        -43.7884   2.0060 -31.6640 H              1 RES1               0.0000
     23 H23        -46.8681   3.2399 -29.3206 H              1 RES1               0.0000
     24 H24        -47.0952   5.5235 -34.2171 H              1 RES1               0.0000
     25 H25        -45.9635   4.2082 -33.9106 H              1 RES1               0.0000
     26 H26        -47.3464   4.4468 -32.8450 H              1 RES1               0.0000
     27 H27        -41.0784   5.6961 -28.9124 H              1 RES1               0.0000
     28 H28        -43.0656   9.2502 -30.1774 H              1 RES1               0.0000
     29 H29        -41.2014   8.1569 -28.9927 H              1 RES1               0.0000
@<TRIPOS>BOND
    1    1    2 1     
    2    1    3 1     
    3    1    4 1     
    4    1    5 1     
    5    2    6 ar    
    6    2    7 ar    
    7    3    8 1     
    8    3    9 2     
    9    4   10 1     
   10    4   11 2     
   11    5   12 1     
   12    5   18 1     
   13    5   19 1     
   14    6   13 ar    
   15    6   20 1     
   16    7   14 ar    
   17    7   21 1     
   18    8   15 1     
   19    8   22 1     
   20   10   15 1     
   21   10   23 1     
   22   12   24 1     
   23   12   25 1     
   24   12   26 1     
   25   13   16 ar    
   26   13   27 1     
   27   14   16 ar    
   28   14   28 1     
   29   15   17 2     
   30   16   29 1     
@<TRIPOS>SUBSTRUCTURE
      1 RES1           1
@<TRIPOS>SET
DONOR_HYDROGENS      STATIC     ATOMS    <user>   **** ""
2 22 23
ATOM$RED        STATIC     ATOMS    COLORGROUP SYSTEM
2 22 23
@<TRIPOS>COMMENT
> <Gold.Version>
2022.3.0

> <Gold.Id.Protein>
unknown|7ta6_clean|pdb

> <Gold.Protein.RotatedTorsions>
[ 1498 1427 1428 1429 ] final  131.70 input  100.76 | X-H torsion
[ 1739 1653 1654 1655 ] final -138.46 input   85.13 | X-H torsion
[ 1831 1781 1782 1783 ] final  130.75 input   95.59 | X-H torsion
[ 1943 1869 1870 1871 ] final  -36.31 input  114.16 | X-H torsion
[ 2010 1974 1975 1976 ] final   65.81 input  -86.06 | X-H torsion
[ 2126 2040 2041 2042 ] final   48.54 input   20.42 | X-H torsion
[ 2266 2174 2175 2176 ] final  -57.44 input   67.72 | X-H torsion
[ 2431 2337 2338 2339 ] final -156.71 input   82.35 | X-H torsion
[ 14714 14666 14667 14668 ] final   37.11 input  114.45 | X-H torsion
[ 14987 14930 14931 14932 ] final  -63.30 input  116.70 | X-H torsion
[ 15134 15082 15083 15084 ] final  -23.62 input   24.19 | X-H torsion
[ 15259 15184 15185 15186 ] final  135.26 input -115.06 | X-H torsion
[ 15367 15332 15333 15334 ] final -127.97 input  118.12 | X-H torsion
[ 15474 15420 15421 15422 ] final  -12.86 input  108.08 | X-H torsion
[ 14842 14770 14771 14772 ] final   68.00 input   77.85 | X-H torsion
[ 1385 1341 1342 1343 ] final  128.00 input  112.53 | X-H torsion
[ 6678 6630 6631 6632 ] final  145.51 input   49.89 | X-H torsion
[ 15573 15534 15535 15536 ] final  159.55 input   96.27 | X-H torsion
[ 20694 1344 1343 1342 ] final  133.59 input   -0.00 | X-H torsion
[ 20697 1430 1429 1428 ] final  -33.75 input    0.00 | X-H torsion
[ 20700 1540 1539 1538 ] final  113.91 input    0.00 | X-H torsion
[ 20703 1656 1655 1654 ] final  132.19 input   -0.00 | X-H torsion
[ 20706 1784 1783 1782 ] final   90.00 input    0.00 | X-H torsion
[ 20709 1872 1871 1870 ] final  -36.56 input    0.00 | X-H torsion
[ 20716 1977 1976 1975 ] final   74.53 input    0.00 | X-H torsion
[ 20719 2043 2042 2041 ] final   59.06 input    0.00 | X-H torsion
[ 20723 2340 2339 2338 ] final -170.16 input    0.00 | X-H torsion
[ 20725 14555 14554 14553 ] final   -2.81 input   -0.00 | X-H torsion
[ 20728 14669 14668 14667 ] final   -9.84 input    0.00 | X-H torsion
[ 20731 14933 14932 14931 ] final  -81.56 input    0.00 | X-H torsion
[ 20734 15085 15084 15083 ] final  163.12 input   -0.00 | X-H torsion
[ 20742 14773 14772 14771 ] final  -95.63 input    0.00 | X-H torsion
[ 20747 6633 6632 6631 ] final   36.56 input   -0.00 | X-H torsion
[ 20749 15187 15186 15185 ] final  -28.13 input    0.00 | X-H torsion
[ 20751 15335 15334 15333 ] final  116.72 input    0.00 | X-H torsion

> <Gold.Protein.ActiveResidues>
 ALA18   ASN19   PRO20   GLN21   ALA22   GLU23   GLY24   GLN25   LEU26   GLN27  
 LEU63   PHE64   LYS65   ILE136  PRO139  ASP140  TYR141  LEU142  ASP143  PHE144 
 ALA145  GLU146  SER147  VAL150 

> <Gold.Protein.RotatedAtoms>
  -34.5323   11.4018  -30.7665 H   0  0  0  0  0  0  0  0  0  0  0  0  # atno 1385 bound_to 1341
  -34.1049    6.9780  -31.7779 H   0  0  0  0  0  0  0  0  0  0  0  0  # atno 1498 bound_to 1427
  -39.9845    4.4162  -33.5787 H   0  0  0  0  0  0  0  0  0  0  0  0  # atno 1739 bound_to 1653
  -37.1498    2.8053  -32.9134 H   0  0  0  0  0  0  0  0  0  0  0  0  # atno 1831 bound_to 1781
  -37.3407    0.6549  -29.9546 H   0  0  0  0  0  0  0  0  0  0  0  0  # atno 1943 bound_to 1869
  -37.8964    0.1005  -27.3837 H   0  0  0  0  0  0  0  0  0  0  0  0  # atno 2010 bound_to 1974
  -36.1605    1.2738  -26.8129 H   0  0  0  0  0  0  0  0  0  0  0  0  # atno 2126 bound_to 2040
  -33.5553    3.2493  -26.8312 H   0  0  0  0  0  0  0  0  0  0  0  0  # atno 2266 bound_to 2174
  -32.2320    4.3640  -28.1597 H   0  0  0  0  0  0  0  0  0  0  0  0  # atno 2431 bound_to 2337
  -38.0933   13.4280  -24.1057 H   0  0  0  0  0  0  0  0  0  0  0  0  # atno 6678 bound_to 6630
  -38.5552    3.2053  -20.1379 H   0  0  0  0  0  0  0  0  0  0  0  0  # atno 14714 bound_to 14666
  -39.7302    4.4425  -20.2421 H   0  0  0  0  0  0  0  0  0  0  0  0  # atno 14842 bound_to 14770
  -41.0864    6.4933  -21.6519 H   0  0  0  0  0  0  0  0  0  0  0  0  # atno 14987 bound_to 14930
  -40.6960    8.9267  -24.9171 H   0  0  0  0  0  0  0  0  0  0  0  0  # atno 15134 bound_to 15082
  -43.5026   10.1471  -26.6092 H   0  0  0  0  0  0  0  0  0  0  0  0  # atno 15259 bound_to 15184
  -41.3091   10.8534  -28.5391 H   0  0  0  0  0  0  0  0  0  0  0  0  # atno 15367 bound_to 15332
  -41.1814   11.2959  -31.5461 H   0  0  0  0  0  0  0  0  0  0  0  0  # atno 15474 bound_to 15420
  -42.8137   12.5685  -32.4114 H   0  0  0  0  0  0  0  0  0  0  0  0  # atno 15573 bound_to 15534
  -36.1250    8.8865  -33.7205 LP  0  0  0  0  0  0  0  0  0  0  0  0  # atno 20694 bound_to 1344
  -36.8017    9.6936  -32.3454 LP  0  0  0  0  0  0  0  0  0  0  0  0  # atno 20695 bound_to 1344
  -35.5238    7.9958  -31.7044 LP  0  0  0  0  0  0  0  0  0  0  0  0  # atno 20696 bound_to 1427
  -36.5607    4.7080  -31.2336 LP  0  0  0  0  0  0  0  0  0  0  0  0  # atno 20697 bound_to 1430
  -38.0397    5.5598  -30.9383 LP  0  0  0  0  0  0  0  0  0  0  0  0  # atno 20698 bound_to 1430
  -41.5035    3.7348  -32.2673 LP  0  0  0  0  0  0  0  0  0  0  0  0  # atno 20700 bound_to 1540
  -40.4121    4.1563  -30.9901 LP  0  0  0  0  0  0  0  0  0  0  0  0  # atno 20701 bound_to 1540
  -38.2683    4.0904  -33.6934 LP  0  0  0  0  0  0  0  0  0  0  0  0  # atno 20702 bound_to 1653
  -38.0070   -0.3874  -33.0569 LP  0  0  0  0  0  0  0  0  0  0  0  0  # atno 20703 bound_to 1656
  -39.6733   -0.0896  -32.6896 LP  0  0  0  0  0  0  0  0  0  0  0  0  # atno 20704 bound_to 1656
  -38.5037    1.8320  -32.3872 LP  0  0  0  0  0  0  0  0  0  0  0  0  # atno 20705 bound_to 1781
  -37.1235    2.7859  -28.9083 LP  0  0  0  0  0  0  0  0  0  0  0  0  # atno 20706 bound_to 1784
  -36.1138    1.4333  -28.5198 LP  0  0  0  0  0  0  0  0  0  0  0  0  # atno 20707 bound_to 1784
  -38.8090    0.3461  -30.8488 LP  0  0  0  0  0  0  0  0  0  0  0  0  # atno 20708 bound_to 1869
  -37.9348   -2.0205  -28.4997 LP  0  0  0  0  0  0  0  0  0  0  0  0  # atno 20709 bound_to 1872
  -36.6730   -1.4481  -27.4603 LP  0  0  0  0  0  0  0  0  0  0  0  0  # atno 20710 bound_to 1872
  -39.0837    0.8233  -26.3207 LP  0  0  0  0  0  0  0  0  0  0  0  0  # atno 20715 bound_to 1974
  -35.0271   -1.0413  -24.2847 LP  0  0  0  0  0  0  0  0  0  0  0  0  # atno 20716 bound_to 1977
  -35.3238    0.3791  -23.3390 LP  0  0  0  0  0  0  0  0  0  0  0  0  # atno 20717 bound_to 1977
  -36.2151    0.8963  -25.1069 LP  0  0  0  0  0  0  0  0  0  0  0  0  # atno 20718 bound_to 2040
  -36.2986    3.6888  -26.7006 LP  0  0  0  0  0  0  0  0  0  0  0  0  # atno 20719 bound_to 2043
  -35.2382    3.8646  -28.0587 LP  0  0  0  0  0  0  0  0  0  0  0  0  # atno 20720 bound_to 2043
  -33.2695    3.8370  -25.2050 LP  0  0  0  0  0  0  0  0  0  0  0  0  # atno 20721 bound_to 2174
  -33.2235    5.5118  -29.0353 LP  0  0  0  0  0  0  0  0  0  0  0  0  # atno 20722 bound_to 2337
  -32.7357    7.2335  -32.0328 LP  0  0  0  0  0  0  0  0  0  0  0  0  # atno 20723 bound_to 2340
  -33.5239    6.0433  -31.0519 LP  0  0  0  0  0  0  0  0  0  0  0  0  # atno 20724 bound_to 2340
  -38.3284    4.1124  -23.4103 LP  0  0  0  0  0  0  0  0  0  0  0  0  # atno 20725 bound_to 14555
  -39.6865    3.1450  -22.9416 LP  0  0  0  0  0  0  0  0  0  0  0  0  # atno 20726 bound_to 14555
  -38.0350    1.9878  -21.2755 LP  0  0  0  0  0  0  0  0  0  0  0  0  # atno 20727 bound_to 14666
  -42.5172    2.1397  -21.8129 LP  0  0  0  0  0  0  0  0  0  0  0  0  # atno 20728 bound_to 14669
  -42.9855    3.6802  -21.1744 LP  0  0  0  0  0  0  0  0  0  0  0  0  # atno 20729 bound_to 14669
  -39.6669    5.5671  -22.0752 LP  0  0  0  0  0  0  0  0  0  0  0  0  # atno 20730 bound_to 14930
  -41.1747    5.5811  -25.4217 LP  0  0  0  0  0  0  0  0  0  0  0  0  # atno 20731 bound_to 14933
  -42.4841    5.8142  -24.3121 LP  0  0  0  0  0  0  0  0  0  0  0  0  # atno 20732 bound_to 14933
  -41.7015    7.7847  -24.0543 LP  0  0  0  0  0  0  0  0  0  0  0  0  # atno 20733 bound_to 15082
  -41.1704   11.3096  -26.9331 LP  0  0  0  0  0  0  0  0  0  0  0  0  # atno 20734 bound_to 15085
  -40.9560   10.4575  -25.4405 LP  0  0  0  0  0  0  0  0  0  0  0  0  # atno 20735 bound_to 15085
  -42.9663    9.1986  -27.9848 LP  0  0  0  0  0  0  0  0  0  0  0  0  # atno 20738 bound_to 15184
  -41.9873    9.8152  -29.7677 LP  0  0  0  0  0  0  0  0  0  0  0  0  # atno 20739 bound_to 15332
  -41.4473    9.5938  -31.8335 LP  0  0  0  0  0  0  0  0  0  0  0  0  # atno 20740 bound_to 15420
  -41.1011    3.4298  -20.6441 LP  0  0  0  0  0  0  0  0  0  0  0  0  # atno 20741 bound_to 14770
  -42.8570    7.4178  -22.2381 LP  0  0  0  0  0  0  0  0  0  0  0  0  # atno 20742 bound_to 14773
  -41.9795    8.2944  -21.0291 LP  0  0  0  0  0  0  0  0  0  0  0  0  # atno 20743 bound_to 14773
  -33.8674   10.8048  -32.2674 LP  0  0  0  0  0  0  0  0  0  0  0  0  # atno 20746 bound_to 1341
  -39.2941   10.5435  -23.5705 LP  0  0  0  0  0  0  0  0  0  0  0  0  # atno 20747 bound_to 6633
  -40.8432    9.9612  -23.0594 LP  0  0  0  0  0  0  0  0  0  0  0  0  # atno 20748 bound_to 6633
  -42.4572   13.1697  -29.9928 LP  0  0  0  0  0  0  0  0  0  0  0  0  # atno 20749 bound_to 15187
  -40.7724   12.7688  -29.9648 LP  0  0  0  0  0  0  0  0  0  0  0  0  # atno 20750 bound_to 15187
  -38.9492   11.0780  -33.0642 LP  0  0  0  0  0  0  0  0  0  0  0  0  # atno 20751 bound_to 15335
  -39.0951   12.3980  -31.9522 LP  0  0  0  0  0  0  0  0  0  0  0  0  # atno 20752 bound_to 15335

> <Gold.Score>
     Fitness  S(hb_ext) S(vdw_ext)  S(hb_int)    S(int)      intcor
     20.49       0.00      15.13       0.00      -0.32      -0.77

> <Gold.Goldscore.Fitness>
20.4868

> <Gold.Goldscore.Internal.Vdw>
-0.4653

> <Gold.Goldscore.Internal.Torsion>
-0.6207

> <Gold.Goldscore.External.Vdw>
15.1327

> <Gold.Goldscore.Internal.HBond>
0.0000

> <Gold.Goldscore.External.HBond>
0.0000

> <Gold.Goldscore.Internal.Correction>
-0.7653

> <Gold.Goldscore.Internal.Vdw.Weighted>
-0.4653

> <Gold.Goldscore.Internal.Torsion.Weighted>
-0.6207

> <Gold.Goldscore.External.Vdw.Weighted>
20.8075

> <Gold.Goldscore.Internal.HBond.Weighted>
0.0000

> <Gold.Goldscore.External.HBond.Weighted>
0.0000

> <Gold.Goldscore.Internal.Correction.Weighted>
-0.7653

> <Gold.Rescore>
     Score     S(PLP)   S(hbond)     S(cho)   S(metal)  DE(clash)   DE(tors)     intcor
     19.77     -21.60       0.00       0.00       0.00       0.00       0.91       ----

> <Gold.PLP.Fitness>
19.7668

> <Gold.PLP.PLP>
-21.5957

> <Gold.PLP.part.hbond>
-1.0000

> <Gold.PLP.part.metal>
0.0000

> <Gold.PLP.part.buried>
-2.0465

> <Gold.PLP.part.nonpolar>
-19.5047

> <Gold.PLP.part.repulsive>
0.3071

> <Gold.PLP.ligand.clash>
0.0000

> <Gold.PLP.ligand.torsion>
0.9144

> <Gold.PLP.Chemscore.Hbond>
0.0000

> <Gold.PLP.Chemscore.CHOScore>
0.0000

> <Gold.PLP.Chemscore.Metal>
0.0000

> <Gold.PLP.Chemscore.Internal.Correction>
   9.000000E+99

