#       Name:                CT1002167954
#       Creating user name   hitesit
#       Creation time:       Sun Apr 16 02:23:27 2023


#       File generated by GOLD software.
#

@<TRIPOS>MOLECULE
CT1002167954|ligand_prepared|mol2|1|dock3
    29    30     1
SMALL
NO_CHARGES


@<TRIPOS>ATOM
      1 C1         -40.8743   5.2488 -28.3666 C.3            1 RES1               0.0000
      2 C2         -41.7769   4.6959 -27.2448 C.ar           1 RES1               0.0000
      3 C3         -41.4204   4.6827 -29.6741 C.2            1 RES1               0.0000
      4 C4         -40.9514   6.7682 -28.2662 C.2            1 RES1               0.0000
      5 C5         -39.3898   4.8360 -28.2346 C.3            1 RES1               0.0000
      6 C6         -43.1257   5.0341 -27.1892 C.ar           1 RES1               0.0000
      7 C7         -41.2767   3.8460 -26.2619 C.ar           1 RES1               0.0000
      8 N8         -42.1028   5.5322 -30.4942 N.am           1 RES1               0.0000
      9 O9         -41.2885   3.4997 -29.9627 O.2            1 RES1               0.0000
     10 N10        -41.5328   7.4515 -29.3020 N.am           1 RES1               0.0000
     11 O11        -40.5288   7.3786 -27.2920 O.2            1 RES1               0.0000
     12 C12        -38.4898   5.4337 -29.3045 C.3            1 RES1               0.0000
     13 C13        -43.9455   4.5383 -26.1889 C.ar           1 RES1               0.0000
     14 C14        -42.0982   3.3515 -25.2624 C.ar           1 RES1               0.0000
     15 C15        -42.1396   6.9001 -30.3974 C.2            1 RES1               0.0000
     16 C16        -43.4325   3.6964 -25.2252 C.ar           1 RES1               0.0000
     17 O17        -42.6891   7.5788 -31.2603 O.2            1 RES1               0.0000
     18 H18        -39.0227   5.1485 -27.2493 H              1 RES1               0.0000
     19 H19        -39.3215   3.7423 -28.2865 H              1 RES1               0.0000
     20 H20        -43.5467   5.6972 -27.9375 H              1 RES1               0.0000
     21 H21        -40.2299   3.5620 -26.2707 H              1 RES1               0.0000
     22 H22        -42.6350   5.1116 -31.2493 H              1 RES1               0.0000
     23 H23        -41.5112   8.4651 -29.2518 H              1 RES1               0.0000
     24 H24        -37.4596   5.1123 -29.1657 H              1 RES1               0.0000
     25 H25        -38.8109   5.1230 -30.2966 H              1 RES1               0.0000
     26 H26        -38.5138   6.5208 -29.2655 H              1 RES1               0.0000
     27 H27        -44.9946   4.8138 -26.1633 H              1 RES1               0.0000
     28 H28        -41.6900   2.6897 -24.5056 H              1 RES1               0.0000
     29 H29        -44.0750   3.3078 -24.4420 H              1 RES1               0.0000
@<TRIPOS>BOND
    1    1    2 1     
    2    1    3 1     
    3    1    4 1     
    4    1    5 1     
    5    2    6 ar    
    6    2    7 ar    
    7    3    8 1     
    8    3    9 2     
    9    4   10 1     
   10    4   11 2     
   11    5   12 1     
   12    5   18 1     
   13    5   19 1     
   14    6   13 ar    
   15    6   20 1     
   16    7   14 ar    
   17    7   21 1     
   18    8   15 1     
   19    8   22 1     
   20   10   15 1     
   21   10   23 1     
   22   12   24 1     
   23   12   25 1     
   24   12   26 1     
   25   13   16 ar    
   26   13   27 1     
   27   14   16 ar    
   28   14   28 1     
   29   15   17 2     
   30   16   29 1     
@<TRIPOS>SUBSTRUCTURE
      1 RES1           1
@<TRIPOS>SET
DONOR_HYDROGENS      STATIC     ATOMS    <user>   **** ""
2 22 23
ATOM$RED        STATIC     ATOMS    COLORGROUP SYSTEM
2 22 23
@<TRIPOS>COMMENT
> <Gold.Version>
2022.3.0

> <Gold.Id.Protein>
unknown|7ta6_clean|pdb

> <Gold.Protein.RotatedTorsions>
[ 1498 1427 1428 1429 ] final  -14.61 input  100.76 | X-H torsion
[ 1739 1653 1654 1655 ] final   68.42 input   85.13 | X-H torsion
[ 1831 1781 1782 1783 ] final -146.12 input   95.59 | X-H torsion
[ 1943 1869 1870 1871 ] final  132.59 input  114.16 | X-H torsion
[ 2010 1974 1975 1976 ] final   52.58 input  -86.06 | X-H torsion
[ 2126 2040 2041 2042 ] final  152.42 input   20.42 | X-H torsion
[ 2266 2174 2175 2176 ] final -137.58 input   67.72 | X-H torsion
[ 2431 2337 2338 2339 ] final   64.48 input   82.35 | X-H torsion
[ 14714 14666 14667 14668 ] final -142.85 input  114.45 | X-H torsion
[ 14987 14930 14931 14932 ] final  -23.80 input  116.70 | X-H torsion
[ 15134 15082 15083 15084 ] final  -43.79 input   24.19 | X-H torsion
[ 15259 15184 15185 15186 ] final -168.33 input -115.06 | X-H torsion
[ 15367 15332 15333 15334 ] final -118.97 input  118.12 | X-H torsion
[ 15474 15420 15421 15422 ] final  -75.99 input  108.08 | X-H torsion
[ 14842 14770 14771 14772 ] final -162.32 input   77.85 | X-H torsion
[ 1385 1341 1342 1343 ] final -153.25 input  112.53 | X-H torsion
[ 6678 6630 6631 6632 ] final   94.87 input   49.89 | X-H torsion
[ 15573 15534 15535 15536 ] final    9.03 input   96.27 | X-H torsion
[ 20694 1344 1343 1342 ] final    8.25 input   -0.00 | X-H torsion
[ 20697 1430 1429 1428 ] final -163.37 input    0.00 | X-H torsion
[ 20700 1540 1539 1538 ] final  -67.91 input    0.00 | X-H torsion
[ 20703 1656 1655 1654 ] final   33.28 input   -0.00 | X-H torsion
[ 20706 1784 1783 1782 ] final -173.46 input    0.00 | X-H torsion
[ 20709 1872 1871 1870 ] final  130.58 input    0.00 | X-H torsion
[ 20716 1977 1976 1975 ] final -127.24 input    0.00 | X-H torsion
[ 20719 2043 2042 2041 ] final  -94.90 input    0.00 | X-H torsion
[ 20723 2340 2339 2338 ] final  -48.68 input    0.00 | X-H torsion
[ 20725 14555 14554 14553 ] final   76.72 input   -0.00 | X-H torsion
[ 20728 14669 14668 14667 ] final   -6.67 input    0.00 | X-H torsion
[ 20731 14933 14932 14931 ] final  101.78 input    0.00 | X-H torsion
[ 20734 15085 15084 15083 ] final  -82.08 input   -0.00 | X-H torsion
[ 20742 14773 14772 14771 ] final  -32.90 input    0.00 | X-H torsion
[ 20747 6633 6632 6631 ] final  127.21 input   -0.00 | X-H torsion
[ 20749 15187 15186 15185 ] final  170.79 input    0.00 | X-H torsion
[ 20751 15335 15334 15333 ] final  -60.27 input    0.00 | X-H torsion

> <Gold.Protein.ActiveResidues>
 ALA18   ASN19   PRO20   GLN21   ALA22   GLU23   GLY24   GLN25   LEU26   GLN27  
 LEU63   PHE64   LYS65   ILE136  PRO139  ASP140  TYR141  LEU142  ASP143  PHE144 
 ALA145  GLU146  SER147  VAL150 

> <Gold.Protein.RotatedAtoms>
  -33.4756   11.1279  -31.0162 H   0  0  0  0  0  0  0  0  0  0  0  0  # atno 1385 bound_to 1341
  -35.6053    7.6389  -31.3536 H   0  0  0  0  0  0  0  0  0  0  0  0  # atno 1498 bound_to 1427
  -38.3584    4.1178  -34.0907 H   0  0  0  0  0  0  0  0  0  0  0  0  # atno 1739 bound_to 1653
  -37.5905    1.7946  -33.3233 H   0  0  0  0  0  0  0  0  0  0  0  0  # atno 1831 bound_to 1781
  -38.7795    0.1789  -30.8430 H   0  0  0  0  0  0  0  0  0  0  0  0  # atno 1943 bound_to 1869
  -37.8003    0.2797  -27.3594 H   0  0  0  0  0  0  0  0  0  0  0  0  # atno 2010 bound_to 1974
  -35.8168    0.2805  -25.8968 H   0  0  0  0  0  0  0  0  0  0  0  0  # atno 2126 bound_to 2040
  -34.2954    3.6580  -26.0506 H   0  0  0  0  0  0  0  0  0  0  0  0  # atno 2266 bound_to 2174
  -33.4101    4.9441  -29.1896 H   0  0  0  0  0  0  0  0  0  0  0  0  # atno 2431 bound_to 2337
  -38.2361   12.7052  -24.2997 H   0  0  0  0  0  0  0  0  0  0  0  0  # atno 6678 bound_to 6630
  -38.0261    1.9796  -21.2850 H   0  0  0  0  0  0  0  0  0  0  0  0  # atno 14714 bound_to 14666
  -40.9906    3.4924  -19.9096 H   0  0  0  0  0  0  0  0  0  0  0  0  # atno 14842 bound_to 14770
  -41.2330    6.0668  -22.0427 H   0  0  0  0  0  0  0  0  0  0  0  0  # atno 14987 bound_to 14930
  -40.5922    8.6602  -25.0386 H   0  0  0  0  0  0  0  0  0  0  0  0  # atno 15134 bound_to 15082
  -44.0926    9.8114  -27.1198 H   0  0  0  0  0  0  0  0  0  0  0  0  # atno 15259 bound_to 15184
  -41.3622   10.9573  -28.6129 H   0  0  0  0  0  0  0  0  0  0  0  0  # atno 15367 bound_to 15332
  -40.4915   10.7339  -31.7930 H   0  0  0  0  0  0  0  0  0  0  0  0  # atno 15474 bound_to 15420
  -41.1233   12.7499  -32.6651 H   0  0  0  0  0  0  0  0  0  0  0  0  # atno 15573 bound_to 15534
  -36.2078   10.0591  -32.7275 LP  0  0  0  0  0  0  0  0  0  0  0  0  # atno 20694 bound_to 1344
  -36.7189    8.5211  -33.3384 LP  0  0  0  0  0  0  0  0  0  0  0  0  # atno 20695 bound_to 1344
  -34.0603    7.3512  -32.1183 LP  0  0  0  0  0  0  0  0  0  0  0  0  # atno 20696 bound_to 1427
  -38.1108    4.9272  -31.3101 LP  0  0  0  0  0  0  0  0  0  0  0  0  # atno 20697 bound_to 1430
  -36.4896    5.3407  -30.8618 LP  0  0  0  0  0  0  0  0  0  0  0  0  # atno 20698 bound_to 1430
  -40.4007    4.1313  -30.9922 LP  0  0  0  0  0  0  0  0  0  0  0  0  # atno 20700 bound_to 1540
  -41.5148    3.7598  -32.2652 LP  0  0  0  0  0  0  0  0  0  0  0  0  # atno 20701 bound_to 1540
  -39.8414    4.3790  -33.1980 LP  0  0  0  0  0  0  0  0  0  0  0  0  # atno 20702 bound_to 1653
  -39.1557   -0.2296  -33.6797 LP  0  0  0  0  0  0  0  0  0  0  0  0  # atno 20703 bound_to 1656
  -38.5246   -0.2474  -32.0669 LP  0  0  0  0  0  0  0  0  0  0  0  0  # atno 20704 bound_to 1656
  -38.0750    2.8149  -31.9886 LP  0  0  0  0  0  0  0  0  0  0  0  0  # atno 20705 bound_to 1781
  -37.1833    1.7120  -28.1915 LP  0  0  0  0  0  0  0  0  0  0  0  0  # atno 20706 bound_to 1784
  -36.0541    2.5073  -29.2366 LP  0  0  0  0  0  0  0  0  0  0  0  0  # atno 20707 bound_to 1784
  -37.4000    0.8122  -29.9788 LP  0  0  0  0  0  0  0  0  0  0  0  0  # atno 20708 bound_to 1869
  -36.6057   -1.3668  -27.6229 LP  0  0  0  0  0  0  0  0  0  0  0  0  # atno 20709 bound_to 1872
  -38.0021   -2.1018  -28.3370 LP  0  0  0  0  0  0  0  0  0  0  0  0  # atno 20710 bound_to 1872
  -39.1768    0.6496  -26.3444 LP  0  0  0  0  0  0  0  0  0  0  0  0  # atno 20715 bound_to 1974
  -35.0540    0.4681  -23.5011 LP  0  0  0  0  0  0  0  0  0  0  0  0  # atno 20716 bound_to 1977
  -35.2969   -1.1303  -24.1226 LP  0  0  0  0  0  0  0  0  0  0  0  0  # atno 20717 bound_to 1977
  -36.5500    1.8641  -25.9994 LP  0  0  0  0  0  0  0  0  0  0  0  0  # atno 20718 bound_to 2040
  -35.3589    3.4949  -28.0888 LP  0  0  0  0  0  0  0  0  0  0  0  0  # atno 20719 bound_to 2043
  -36.1779    4.0586  -26.6705 LP  0  0  0  0  0  0  0  0  0  0  0  0  # atno 20720 bound_to 2043
  -32.5586    3.4444  -25.9549 LP  0  0  0  0  0  0  0  0  0  0  0  0  # atno 20721 bound_to 2174
  -32.0873    4.9523  -28.0420 LP  0  0  0  0  0  0  0  0  0  0  0  0  # atno 20722 bound_to 2337
  -33.2826    5.8386  -31.8371 LP  0  0  0  0  0  0  0  0  0  0  0  0  # atno 20723 bound_to 2340
  -32.9769    7.4383  -31.2476 LP  0  0  0  0  0  0  0  0  0  0  0  0  # atno 20724 bound_to 2340
  -38.5377    3.0423  -23.6067 LP  0  0  0  0  0  0  0  0  0  0  0  0  # atno 20725 bound_to 14555
  -39.4771    4.2151  -22.7452 LP  0  0  0  0  0  0  0  0  0  0  0  0  # atno 20726 bound_to 14555
  -38.5553    3.1933  -20.1474 LP  0  0  0  0  0  0  0  0  0  0  0  0  # atno 20727 bound_to 14666
  -42.5297    2.1201  -21.7710 LP  0  0  0  0  0  0  0  0  0  0  0  0  # atno 20728 bound_to 14669
  -42.9730    3.6999  -21.2163 LP  0  0  0  0  0  0  0  0  0  0  0  0  # atno 20729 bound_to 14669
  -39.5234    5.9845  -21.6927 LP  0  0  0  0  0  0  0  0  0  0  0  0  # atno 20730 bound_to 14930
  -42.5092    5.8379  -24.3490 LP  0  0  0  0  0  0  0  0  0  0  0  0  # atno 20731 bound_to 14933
  -41.1496    5.5574  -25.3848 LP  0  0  0  0  0  0  0  0  0  0  0  0  # atno 20732 bound_to 14933
  -41.8023    8.0436  -23.9363 LP  0  0  0  0  0  0  0  0  0  0  0  0  # atno 20733 bound_to 15082
  -41.5330   11.1861  -25.5252 LP  0  0  0  0  0  0  0  0  0  0  0  0  # atno 20734 bound_to 15085
  -40.5934   10.5811  -26.8485 LP  0  0  0  0  0  0  0  0  0  0  0  0  # atno 20735 bound_to 15085
  -42.4044    9.5183  -27.4985 LP  0  0  0  0  0  0  0  0  0  0  0  0  # atno 20738 bound_to 15184
  -41.9351    9.7131  -29.6951 LP  0  0  0  0  0  0  0  0  0  0  0  0  # atno 20739 bound_to 15332
  -42.1232   10.1446  -31.5915 LP  0  0  0  0  0  0  0  0  0  0  0  0  # atno 20740 bound_to 15420
  -39.8848    4.3467  -20.9650 LP  0  0  0  0  0  0  0  0  0  0  0  0  # atno 20741 bound_to 14770
  -43.0752    7.3597  -21.3653 LP  0  0  0  0  0  0  0  0  0  0  0  0  # atno 20742 bound_to 14773
  -41.7613    8.3526  -21.9019 LP  0  0  0  0  0  0  0  0  0  0  0  0  # atno 20743 bound_to 14773
  -34.9019   11.0730  -32.0229 LP  0  0  0  0  0  0  0  0  0  0  0  0  # atno 20746 bound_to 1341
  -39.7063    9.8561  -22.6354 LP  0  0  0  0  0  0  0  0  0  0  0  0  # atno 20747 bound_to 6633
  -40.4309   10.6486  -23.9945 LP  0  0  0  0  0  0  0  0  0  0  0  0  # atno 20748 bound_to 6633
  -40.8412   12.6635  -30.2201 LP  0  0  0  0  0  0  0  0  0  0  0  0  # atno 20749 bound_to 15187
  -42.3883   13.2750  -29.7376 LP  0  0  0  0  0  0  0  0  0  0  0  0  # atno 20750 bound_to 15187
  -39.0627   12.3785  -31.9268 LP  0  0  0  0  0  0  0  0  0  0  0  0  # atno 20751 bound_to 15335
  -38.9816   11.0974  -33.0896 LP  0  0  0  0  0  0  0  0  0  0  0  0  # atno 20752 bound_to 15335

> <Gold.Score>
     Fitness  S(hb_ext) S(vdw_ext)  S(hb_int)    S(int)      intcor
     39.45       3.11      26.44       0.00      -0.02      -0.77

> <Gold.Goldscore.Fitness>
39.4454

> <Gold.Goldscore.Internal.Vdw>
-0.4132

> <Gold.Goldscore.Internal.Torsion>
-0.3776

> <Gold.Goldscore.External.Vdw>
26.4379

> <Gold.Goldscore.Internal.HBond>
0.0000

> <Gold.Goldscore.External.HBond>
3.1148

> <Gold.Goldscore.Internal.Correction>
-0.7693

> <Gold.Goldscore.Hbonds>
donor molecule, donor type, donor heavy atom, donor atom, acceptor molecule, acceptor atom, score
      L1  H    10    23       P1 15332  0.52

> <Gold.Goldscore.Internal.Vdw.Weighted>
-0.4132

> <Gold.Goldscore.Internal.Torsion.Weighted>
-0.3776

> <Gold.Goldscore.External.Vdw.Weighted>
36.3521

> <Gold.Goldscore.Internal.HBond.Weighted>
0.0000

> <Gold.Goldscore.External.HBond.Weighted>
3.1148

> <Gold.Goldscore.Internal.Correction.Weighted>
-0.7693

> <Gold.Rescore>
     Score     S(PLP)   S(hbond)     S(cho)   S(metal)  DE(clash)   DE(tors)     intcor
    -14.02      14.20       0.85       0.00       0.00       0.00       1.19       ----

> <Gold.PLP.Fitness>
-14.0214

> <Gold.PLP.PLP>
14.2006

> <Gold.PLP.part.hbond>
-5.4460

> <Gold.PLP.part.metal>
0.0000

> <Gold.PLP.part.buried>
37.0823

> <Gold.PLP.part.nonpolar>
-34.6234

> <Gold.PLP.part.repulsive>
13.8942

> <Gold.PLP.ligand.clash>
0.0000

> <Gold.PLP.ligand.torsion>
1.1854

> <Gold.PLP.Chemscore.Hbond>
0.8500

> <Gold.PLP.Chemscore.CHOScore>
0.0000

> <Gold.PLP.Chemscore.Metal>
0.0000

> <Gold.Chemscore.Hbonds>
donor molecule, donor type, donor heavy atom, donor atom, acceptor molecule, acceptor atom, score
      L1  H    10    23       P1 15332  1.00

> <Gold.PLP.Chemscore.Internal.Correction>
   9.000000E+99

