#       Name:                CT1002167954
#       Creating user name   hitesit
#       Creation time:       Sun Apr 16 02:23:26 2023


#       File generated by GOLD software.
#

@<TRIPOS>MOLECULE
CT1002167954|ligand_prepared|mol2|1|dock2
    29    30     1
SMALL
NO_CHARGES


@<TRIPOS>ATOM
      1 C1         -40.5616   5.2517 -28.6529 C.3            1 RES1               0.0000
      2 C2         -40.9325   4.6379 -27.2874 C.ar           1 RES1               0.0000
      3 C3         -40.0053   6.6422 -28.3606 C.2            1 RES1               0.0000
      4 C4         -39.5547   4.2999 -29.2891 C.2            1 RES1               0.0000
      5 C5         -41.7601   5.3954 -29.6196 C.3            1 RES1               0.0000
      6 C6         -39.9538   4.0728 -26.4752 C.ar           1 RES1               0.0000
      7 C7         -42.2461   4.6317 -26.8261 C.ar           1 RES1               0.0000
      8 N8         -38.6588   6.8221 -28.4807 N.am           1 RES1               0.0000
      9 O9         -40.7320   7.5567 -27.9921 O.2            1 RES1               0.0000
     10 N10        -38.2757   4.7528 -29.4813 N.am           1 RES1               0.0000
     11 O11        -39.8529   3.1562 -29.6105 O.2            1 RES1               0.0000
     12 C12        -42.4390   6.7545 -29.5568 C.3            1 RES1               0.0000
     13 C13        -40.2762   3.5241 -25.2451 C.ar           1 RES1               0.0000
     14 C14        -42.5664   4.0822 -25.5957 C.ar           1 RES1               0.0000
     15 C15        -37.7742   5.9603 -29.0778 C.2            1 RES1               0.0000
     16 C16        -41.5825   3.5287 -24.8043 C.ar           1 RES1               0.0000
     17 O17        -36.5982   6.2743 -29.2377 O.2            1 RES1               0.0000
     18 H18        -41.4095   5.2228 -30.6446 H              1 RES1               0.0000
     19 H19        -42.4994   4.6202 -29.3831 H              1 RES1               0.0000
     20 H20        -38.9208   4.0578 -26.8065 H              1 RES1               0.0000
     21 H21        -43.0368   5.0606 -27.4323 H              1 RES1               0.0000
     22 H22        -38.2739   7.6763 -28.0903 H              1 RES1               0.0000
     23 H23        -37.6385   4.1324 -29.9707 H              1 RES1               0.0000
     24 H24        -43.2726   6.8019 -30.2543 H              1 RES1               0.0000
     25 H25        -42.8221   6.9485 -28.5571 H              1 RES1               0.0000
     26 H26        -41.7388   7.5475 -29.8112 H              1 RES1               0.0000
     27 H27        -39.4984   3.0885 -24.6267 H              1 RES1               0.0000
     28 H28        -43.5959   4.0875 -25.2531 H              1 RES1               0.0000
     29 H29        -41.8347   3.0992 -23.8405 H              1 RES1               0.0000
@<TRIPOS>BOND
    1    1    2 1     
    2    1    3 1     
    3    1    4 1     
    4    1    5 1     
    5    2    6 ar    
    6    2    7 ar    
    7    3    8 1     
    8    3    9 2     
    9    4   10 1     
   10    4   11 2     
   11    5   12 1     
   12    5   18 1     
   13    5   19 1     
   14    6   13 ar    
   15    6   20 1     
   16    7   14 ar    
   17    7   21 1     
   18    8   15 1     
   19    8   22 1     
   20   10   15 1     
   21   10   23 1     
   22   12   24 1     
   23   12   25 1     
   24   12   26 1     
   25   13   16 ar    
   26   13   27 1     
   27   14   16 ar    
   28   14   28 1     
   29   15   17 2     
   30   16   29 1     
@<TRIPOS>SUBSTRUCTURE
      1 RES1           1
@<TRIPOS>SET
DONOR_HYDROGENS      STATIC     ATOMS    <user>   **** ""
2 22 23
ATOM$RED        STATIC     ATOMS    COLORGROUP SYSTEM
2 22 23
@<TRIPOS>COMMENT
> <Gold.Version>
2022.3.0

> <Gold.Id.Protein>
unknown|7ta6_clean|pdb

> <Gold.Protein.RotatedTorsions>
[ 1498 1427 1428 1429 ] final   -8.33 input  100.76 | X-H torsion
[ 1739 1653 1654 1655 ] final  105.03 input   85.13 | X-H torsion
[ 1831 1781 1782 1783 ] final   55.44 input   95.59 | X-H torsion
[ 1943 1869 1870 1871 ] final -149.78 input  114.16 | X-H torsion
[ 2010 1974 1975 1976 ] final  -94.13 input  -86.06 | X-H torsion
[ 2126 2040 2041 2042 ] final  -73.11 input   20.42 | X-H torsion
[ 2266 2174 2175 2176 ] final   49.34 input   67.72 | X-H torsion
[ 2431 2337 2338 2339 ] final   -6.80 input   82.35 | X-H torsion
[ 14714 14666 14667 14668 ] final  113.53 input  114.45 | X-H torsion
[ 14987 14930 14931 14932 ] final  136.74 input  116.70 | X-H torsion
[ 15134 15082 15083 15084 ] final  -56.14 input   24.19 | X-H torsion
[ 15259 15184 15185 15186 ] final   -8.42 input -115.06 | X-H torsion
[ 15367 15332 15333 15334 ] final  170.20 input  118.12 | X-H torsion
[ 15474 15420 15421 15422 ] final  124.38 input  108.08 | X-H torsion
[ 14842 14770 14771 14772 ] final -139.09 input   77.85 | X-H torsion
[ 1385 1341 1342 1343 ] final -159.19 input  112.53 | X-H torsion
[ 6678 6630 6631 6632 ] final  104.31 input   49.89 | X-H torsion
[ 15573 15534 15535 15536 ] final -143.97 input   96.27 | X-H torsion
[ 20694 1344 1343 1342 ] final -118.27 input   -0.00 | X-H torsion
[ 20697 1430 1429 1428 ] final   92.45 input    0.00 | X-H torsion
[ 20700 1540 1539 1538 ] final -121.64 input    0.00 | X-H torsion
[ 20703 1656 1655 1654 ] final   45.92 input   -0.00 | X-H torsion
[ 20706 1784 1783 1782 ] final   76.68 input    0.00 | X-H torsion
[ 20709 1872 1871 1870 ] final  162.92 input    0.00 | X-H torsion
[ 20716 1977 1976 1975 ] final -152.76 input    0.00 | X-H torsion
[ 20719 2043 2042 2041 ] final   25.69 input    0.00 | X-H torsion
[ 20723 2340 2339 2338 ] final  -55.24 input    0.00 | X-H torsion
[ 20725 14555 14554 14553 ] final  -27.61 input   -0.00 | X-H torsion
[ 20728 14669 14668 14667 ] final -151.33 input    0.00 | X-H torsion
[ 20731 14933 14932 14931 ] final  -37.23 input    0.00 | X-H torsion
[ 20734 15085 15084 15083 ] final   59.58 input   -0.00 | X-H torsion
[ 20742 14773 14772 14771 ] final   26.31 input    0.00 | X-H torsion
[ 20747 6633 6632 6631 ] final   81.78 input   -0.00 | X-H torsion
[ 20749 15187 15186 15185 ] final  119.01 input    0.00 | X-H torsion
[ 20751 15335 15334 15333 ] final  164.32 input    0.00 | X-H torsion

> <Gold.Protein.ActiveResidues>
 ALA18   ASN19   PRO20   GLN21   ALA22   GLU23   GLY24   GLN25   LEU26   GLN27  
 LEU63   PHE64   LYS65   ILE136  PRO139  ASP140  TYR141  LEU142  ASP143  PHE144 
 ALA145  GLU146  SER147  VAL150 

> <Gold.Protein.RotatedAtoms>
  -33.5297   11.1591  -30.9495 H   0  0  0  0  0  0  0  0  0  0  0  0  # atno 1385 bound_to 1341
  -35.5866    7.5613  -31.2987 H   0  0  0  0  0  0  0  0  0  0  0  0  # atno 1498 bound_to 1427
  -38.7661    4.2291  -34.4564 H   0  0  0  0  0  0  0  0  0  0  0  0  # atno 1739 bound_to 1653
  -37.8148    2.9928  -32.0796 H   0  0  0  0  0  0  0  0  0  0  0  0  # atno 1831 bound_to 1781
  -38.5312    1.2313  -30.6090 H   0  0  0  0  0  0  0  0  0  0  0  0  # atno 1943 bound_to 1869
  -38.8892    1.0598  -26.3081 H   0  0  0  0  0  0  0  0  0  0  0  0  # atno 2010 bound_to 1974
  -36.5220    1.6510  -25.3576 H   0  0  0  0  0  0  0  0  0  0  0  0  # atno 2126 bound_to 2040
  -32.5270    3.5107  -25.8654 H   0  0  0  0  0  0  0  0  0  0  0  0  # atno 2266 bound_to 2174
  -32.9233    5.7898  -28.8332 H   0  0  0  0  0  0  0  0  0  0  0  0  # atno 2431 bound_to 2337
  -38.2242   12.8507  -24.3120 H   0  0  0  0  0  0  0  0  0  0  0  0  # atno 6678 bound_to 6630
  -38.2485    2.1807  -19.9344 H   0  0  0  0  0  0  0  0  0  0  0  0  # atno 14714 bound_to 14666
  -41.1251    3.4148  -20.2332 H   0  0  0  0  0  0  0  0  0  0  0  0  # atno 14842 bound_to 14770
  -39.5272    5.7595  -21.8850 H   0  0  0  0  0  0  0  0  0  0  0  0  # atno 14987 bound_to 14930
  -40.5657    8.4759  -25.0801 H   0  0  0  0  0  0  0  0  0  0  0  0  # atno 15134 bound_to 15082
  -42.5001    9.3960  -27.7693 H   0  0  0  0  0  0  0  0  0  0  0  0  # atno 15259 bound_to 15184
  -41.2144    9.9546  -28.4925 H   0  0  0  0  0  0  0  0  0  0  0  0  # atno 15367 bound_to 15332
  -41.9955    9.8746  -31.6716 H   0  0  0  0  0  0  0  0  0  0  0  0  # atno 15474 bound_to 15420
  -42.7298   12.4833  -33.2439 H   0  0  0  0  0  0  0  0  0  0  0  0  # atno 15573 bound_to 15534
  -37.0945    8.7917  -32.7115 LP  0  0  0  0  0  0  0  0  0  0  0  0  # atno 20694 bound_to 1344
  -35.8323    9.7885  -33.3544 LP  0  0  0  0  0  0  0  0  0  0  0  0  # atno 20695 bound_to 1344
  -34.0785    7.4269  -32.1718 LP  0  0  0  0  0  0  0  0  0  0  0  0  # atno 20696 bound_to 1427
  -37.3818    5.8865  -30.6652 LP  0  0  0  0  0  0  0  0  0  0  0  0  # atno 20697 bound_to 1430
  -37.2186    4.3814  -31.5067 LP  0  0  0  0  0  0  0  0  0  0  0  0  # atno 20698 bound_to 1430
  -40.3474    3.4190  -31.3121 LP  0  0  0  0  0  0  0  0  0  0  0  0  # atno 20700 bound_to 1540
  -41.5681    4.4721  -31.9453 LP  0  0  0  0  0  0  0  0  0  0  0  0  # atno 20701 bound_to 1540
  -39.4470    4.2714  -32.8443 LP  0  0  0  0  0  0  0  0  0  0  0  0  # atno 20702 bound_to 1653
  -38.9744   -0.2625  -33.7285 LP  0  0  0  0  0  0  0  0  0  0  0  0  # atno 20703 bound_to 1656
  -38.7059   -0.2145  -32.0181 LP  0  0  0  0  0  0  0  0  0  0  0  0  # atno 20704 bound_to 1656
  -37.8568    1.6496  -33.1982 LP  0  0  0  0  0  0  0  0  0  0  0  0  # atno 20705 bound_to 1781
  -36.9657    2.8421  -29.0191 LP  0  0  0  0  0  0  0  0  0  0  0  0  # atno 20706 bound_to 1784
  -36.2716    1.3772  -28.4090 LP  0  0  0  0  0  0  0  0  0  0  0  0  # atno 20707 bound_to 1784
  -37.6432   -0.2184  -30.2079 LP  0  0  0  0  0  0  0  0  0  0  0  0  # atno 20708 bound_to 1869
  -36.8337   -1.5971  -27.2657 LP  0  0  0  0  0  0  0  0  0  0  0  0  # atno 20709 bound_to 1872
  -37.7741   -1.8714  -28.6942 LP  0  0  0  0  0  0  0  0  0  0  0  0  # atno 20710 bound_to 1872
  -38.1216   -0.1064  -27.3631 LP  0  0  0  0  0  0  0  0  0  0  0  0  # atno 20715 bound_to 1974
  -34.7625    0.4272  -23.7455 LP  0  0  0  0  0  0  0  0  0  0  0  0  # atno 20716 bound_to 1977
  -35.5884   -1.0894  -23.8782 LP  0  0  0  0  0  0  0  0  0  0  0  0  # atno 20717 bound_to 1977
  -35.8629    0.5288  -26.5247 LP  0  0  0  0  0  0  0  0  0  0  0  0  # atno 20718 bound_to 2040
  -36.2951    3.2511  -26.9365 LP  0  0  0  0  0  0  0  0  0  0  0  0  # atno 20719 bound_to 2043
  -35.2417    4.3023  -27.8228 LP  0  0  0  0  0  0  0  0  0  0  0  0  # atno 20720 bound_to 2043
  -34.2574    3.5858  -26.1328 LP  0  0  0  0  0  0  0  0  0  0  0  0  # atno 20721 bound_to 2174
  -32.5569    4.1367  -28.3857 LP  0  0  0  0  0  0  0  0  0  0  0  0  # atno 20722 bound_to 2337
  -33.2395    5.8676  -31.9216 LP  0  0  0  0  0  0  0  0  0  0  0  0  # atno 20723 bound_to 2340
  -33.0201    7.4092  -31.1631 LP  0  0  0  0  0  0  0  0  0  0  0  0  # atno 20724 bound_to 2340
  -38.5387    4.3554  -23.2232 LP  0  0  0  0  0  0  0  0  0  0  0  0  # atno 20725 bound_to 14555
  -39.4761    2.9020  -23.1288 LP  0  0  0  0  0  0  0  0  0  0  0  0  # atno 20726 bound_to 14555
  -38.3366    2.9955  -21.4756 LP  0  0  0  0  0  0  0  0  0  0  0  0  # atno 20727 bound_to 14666
  -42.7977    3.7473  -21.7098 LP  0  0  0  0  0  0  0  0  0  0  0  0  # atno 20728 bound_to 14669
  -42.7050    2.0726  -21.2775 LP  0  0  0  0  0  0  0  0  0  0  0  0  # atno 20729 bound_to 14669
  -41.1927    6.2852  -21.8471 LP  0  0  0  0  0  0  0  0  0  0  0  0  # atno 20730 bound_to 14930
  -41.0470    5.3280  -24.8329 LP  0  0  0  0  0  0  0  0  0  0  0  0  # atno 20731 bound_to 14933
  -42.6119    6.0673  -24.9009 LP  0  0  0  0  0  0  0  0  0  0  0  0  # atno 20732 bound_to 14933
  -41.8281    8.2227  -23.8960 LP  0  0  0  0  0  0  0  0  0  0  0  0  # atno 20733 bound_to 15082
  -40.4868   10.2685  -26.3855 LP  0  0  0  0  0  0  0  0  0  0  0  0  # atno 20734 bound_to 15085
  -41.6396   11.4986  -25.9882 LP  0  0  0  0  0  0  0  0  0  0  0  0  # atno 20735 bound_to 15085
  -43.9213    9.9140  -26.8798 LP  0  0  0  0  0  0  0  0  0  0  0  0  # atno 20738 bound_to 15184
  -42.0803   10.6980  -29.8135 LP  0  0  0  0  0  0  0  0  0  0  0  0  # atno 20739 bound_to 15332
  -40.6494   10.9867  -31.7106 LP  0  0  0  0  0  0  0  0  0  0  0  0  # atno 20740 bound_to 15420
  -39.7550    4.4215  -20.6527 LP  0  0  0  0  0  0  0  0  0  0  0  0  # atno 20741 bound_to 14770
  -42.6215    7.8057  -20.7933 LP  0  0  0  0  0  0  0  0  0  0  0  0  # atno 20742 bound_to 14773
  -42.2150    7.9065  -22.4739 LP  0  0  0  0  0  0  0  0  0  0  0  0  # atno 20743 bound_to 14773
  -34.8490   11.0424  -32.0883 LP  0  0  0  0  0  0  0  0  0  0  0  0  # atno 20746 bound_to 1341
  -39.2597   10.1785  -23.0146 LP  0  0  0  0  0  0  0  0  0  0  0  0  # atno 20747 bound_to 6633
  -40.8775   10.3263  -23.6153 LP  0  0  0  0  0  0  0  0  0  0  0  0  # atno 20748 bound_to 6633
  -40.8680   12.9954  -29.5410 LP  0  0  0  0  0  0  0  0  0  0  0  0  # atno 20749 bound_to 15187
  -42.3615   12.9432  -30.4167 LP  0  0  0  0  0  0  0  0  0  0  0  0  # atno 20750 bound_to 15187
  -39.4266   11.5529  -33.2513 LP  0  0  0  0  0  0  0  0  0  0  0  0  # atno 20751 bound_to 15335
  -38.6177   11.9230  -31.7651 LP  0  0  0  0  0  0  0  0  0  0  0  0  # atno 20752 bound_to 15335

> <Gold.Score>
     Fitness  S(hb_ext) S(vdw_ext)  S(hb_int)    S(int)      intcor
     30.40       1.22      31.53       0.00     -14.17      -0.77

> <Gold.Goldscore.Fitness>
30.4003

> <Gold.Goldscore.Internal.Vdw>
-13.1967

> <Gold.Goldscore.Internal.Torsion>
-1.7444

> <Gold.Goldscore.External.Vdw>
31.5319

> <Gold.Goldscore.Internal.HBond>
0.0000

> <Gold.Goldscore.External.HBond>
1.2158

> <Gold.Goldscore.Internal.Correction>
-0.7693

> <Gold.Goldscore.Hbonds>
donor molecule, donor type, donor heavy atom, donor atom, acceptor molecule, acceptor atom, score
      P1  H 15184 15259       L1     9  0.61

> <Gold.Goldscore.Internal.Vdw.Weighted>
-13.1967

> <Gold.Goldscore.Internal.Torsion.Weighted>
-1.7444

> <Gold.Goldscore.External.Vdw.Weighted>
43.3563

> <Gold.Goldscore.Internal.HBond.Weighted>
0.0000

> <Gold.Goldscore.External.HBond.Weighted>
1.2158

> <Gold.Goldscore.Internal.Correction.Weighted>
-0.7693

> <Gold.Rescore>
     Score     S(PLP)   S(hbond)     S(cho)   S(metal)  DE(clash)   DE(tors)     intcor
    -17.39      15.43       0.54       0.00       0.00       3.11       0.23       ----

> <Gold.PLP.Fitness>
-17.3856

> <Gold.PLP.PLP>
15.4331

> <Gold.PLP.part.hbond>
-2.2902

> <Gold.PLP.part.metal>
0.0000

> <Gold.PLP.part.buried>
49.3848

> <Gold.PLP.part.nonpolar>
-41.9740

> <Gold.PLP.part.repulsive>
8.6603

> <Gold.PLP.ligand.clash>
3.1059

> <Gold.PLP.ligand.torsion>
0.2339

> <Gold.PLP.Chemscore.Hbond>
0.5404

> <Gold.PLP.Chemscore.CHOScore>
0.0000

> <Gold.PLP.Chemscore.Metal>
0.0000

> <Gold.Chemscore.Hbonds>
donor molecule, donor type, donor heavy atom, donor atom, acceptor molecule, acceptor atom, score
      P1  H 15332 15367       L1     9  0.01

> <Gold.PLP.Chemscore.Internal.Correction>
   9.000000E+99

