#       Name:                CT1002167954
#       Creating user name   hitesit
#       Creation time:       Sun Apr 16 02:23:30 2023


#       File generated by GOLD software.
#

@<TRIPOS>MOLECULE
CT1002167954|ligand_prepared|mol2|1|dock8
    29    30     1
SMALL
NO_CHARGES


@<TRIPOS>ATOM
      1 C1         -42.8475   3.4690 -25.2217 C.3            1 RES1               0.0000
      2 C2         -42.0215   4.1410 -26.3375 C.ar           1 RES1               0.0000
      3 C3         -42.5734   4.2635 -23.9482 C.2            1 RES1               0.0000
      4 C4         -44.3005   3.5125 -25.6815 C.2            1 RES1               0.0000
      5 C5         -42.4703   1.9906 -24.9692 C.3            1 RES1               0.0000
      6 C6         -42.6516   4.8417 -27.3615 C.ar           1 RES1               0.0000
      7 C7         -40.6310   4.0711 -26.3548 C.ar           1 RES1               0.0000
      8 N8         -43.5613   5.0852 -23.4912 N.am           1 RES1               0.0000
      9 O9         -41.4925   4.2000 -23.3756 O.2            1 RES1               0.0000
     10 N10        -45.1793   4.2785 -24.9612 N.am           1 RES1               0.0000
     11 O11        -44.6889   2.9036 -26.6708 O.2            1 RES1               0.0000
     12 C12        -43.2511   1.3437 -23.8360 C.3            1 RES1               0.0000
     13 C13        -41.9183   5.4531 -28.3649 C.ar           1 RES1               0.0000
     14 C14        -39.8995   4.6831 -27.3593 C.ar           1 RES1               0.0000
     15 C15        -44.8691   5.0912 -23.9050 C.2            1 RES1               0.0000
     16 C16        -40.5419   5.3746 -28.3642 C.ar           1 RES1               0.0000
     17 O17        -45.7053   5.7922 -23.3426 O.2            1 RES1               0.0000
     18 H18        -42.6449   1.4196 -25.8894 H              1 RES1               0.0000
     19 H19        -41.3996   1.9340 -24.7374 H              1 RES1               0.0000
     20 H20        -43.7341   4.9122 -27.3800 H              1 RES1               0.0000
     21 H21        -40.1044   3.5316 -25.5750 H              1 RES1               0.0000
     22 H22        -43.3038   5.7574 -22.7756 H              1 RES1               0.0000
     23 H23        -46.1551   4.2392 -25.2380 H              1 RES1               0.0000
     24 H24        -42.9479   0.3076 -23.7011 H              1 RES1               0.0000
     25 H25        -43.0809   1.8713 -22.8999 H              1 RES1               0.0000
     26 H26        -44.3188   1.3599 -24.0449 H              1 RES1               0.0000
     27 H27        -42.4287   5.9950 -29.1542 H              1 RES1               0.0000
     28 H28        -38.8165   4.6182 -27.3552 H              1 RES1               0.0000
     29 H29        -39.9676   5.8539 -29.1501 H              1 RES1               0.0000
@<TRIPOS>BOND
    1    1    2 1     
    2    1    3 1     
    3    1    4 1     
    4    1    5 1     
    5    2    6 ar    
    6    2    7 ar    
    7    3    8 1     
    8    3    9 2     
    9    4   10 1     
   10    4   11 2     
   11    5   12 1     
   12    5   18 1     
   13    5   19 1     
   14    6   13 ar    
   15    6   20 1     
   16    7   14 ar    
   17    7   21 1     
   18    8   15 1     
   19    8   22 1     
   20   10   15 1     
   21   10   23 1     
   22   12   24 1     
   23   12   25 1     
   24   12   26 1     
   25   13   16 ar    
   26   13   27 1     
   27   14   16 ar    
   28   14   28 1     
   29   15   17 2     
   30   16   29 1     
@<TRIPOS>SUBSTRUCTURE
      1 RES1           1
@<TRIPOS>SET
DONOR_HYDROGENS      STATIC     ATOMS    <user>   **** ""
2 22 23
ATOM$RED        STATIC     ATOMS    COLORGROUP SYSTEM
2 22 23
@<TRIPOS>COMMENT
> <Gold.Version>
2022.3.0

> <Gold.Id.Protein>
unknown|7ta6_clean|pdb

> <Gold.Protein.RotatedTorsions>
[ 1498 1427 1428 1429 ] final  -60.37 input  100.76 | X-H torsion
[ 1739 1653 1654 1655 ] final  120.80 input   85.13 | X-H torsion
[ 1831 1781 1782 1783 ] final -102.11 input   95.59 | X-H torsion
[ 1943 1869 1870 1871 ] final -145.25 input  114.16 | X-H torsion
[ 2010 1974 1975 1976 ] final  -50.77 input  -86.06 | X-H torsion
[ 2126 2040 2041 2042 ] final   35.97 input   20.42 | X-H torsion
[ 2266 2174 2175 2176 ] final  114.64 input   67.72 | X-H torsion
[ 2431 2337 2338 2339 ] final  107.59 input   82.35 | X-H torsion
[ 14714 14666 14667 14668 ] final  -75.91 input  114.45 | X-H torsion
[ 14987 14930 14931 14932 ] final  -86.45 input  116.70 | X-H torsion
[ 15134 15082 15083 15084 ] final  -17.12 input   24.19 | X-H torsion
[ 15259 15184 15185 15186 ] final -152.01 input -115.06 | X-H torsion
[ 15367 15332 15333 15334 ] final  175.42 input  118.12 | X-H torsion
[ 15474 15420 15421 15422 ] final  -61.69 input  108.08 | X-H torsion
[ 14842 14770 14771 14772 ] final  100.13 input   77.85 | X-H torsion
[ 1385 1341 1342 1343 ] final  -52.52 input  112.53 | X-H torsion
[ 6678 6630 6631 6632 ] final  145.16 input   49.89 | X-H torsion
[ 15573 15534 15535 15536 ] final   45.60 input   96.27 | X-H torsion
[ 20694 1344 1343 1342 ] final  150.37 input   -0.00 | X-H torsion
[ 20697 1430 1429 1428 ] final   71.23 input    0.00 | X-H torsion
[ 20700 1540 1539 1538 ] final  -62.07 input    0.00 | X-H torsion
[ 20703 1656 1655 1654 ] final -137.47 input   -0.00 | X-H torsion
[ 20706 1784 1783 1782 ] final  124.41 input    0.00 | X-H torsion
[ 20709 1872 1871 1870 ] final  171.82 input    0.00 | X-H torsion
[ 20716 1977 1976 1975 ] final   66.96 input    0.00 | X-H torsion
[ 20719 2043 2042 2041 ] final  -60.68 input    0.00 | X-H torsion
[ 20723 2340 2339 2338 ] final    0.18 input    0.00 | X-H torsion
[ 20725 14555 14554 14553 ] final  114.09 input   -0.00 | X-H torsion
[ 20728 14669 14668 14667 ] final  -25.55 input    0.00 | X-H torsion
[ 20731 14933 14932 14931 ] final  -71.61 input    0.00 | X-H torsion
[ 20734 15085 15084 15083 ] final  -81.24 input   -0.00 | X-H torsion
[ 20742 14773 14772 14771 ] final  -64.07 input    0.00 | X-H torsion
[ 20747 6633 6632 6631 ] final  130.25 input   -0.00 | X-H torsion
[ 20749 15187 15186 15185 ] final  -89.12 input    0.00 | X-H torsion
[ 20751 15335 15334 15333 ] final  -36.02 input    0.00 | X-H torsion

> <Gold.Protein.ActiveResidues>
 ALA18   ASN19   PRO20   GLN21   ALA22   GLU23   GLY24   GLN25   LEU26   GLN27  
 LEU63   PHE64   LYS65   ILE136  PRO139  ASP140  TYR141  LEU142  ASP143  PHE144 
 ALA145  GLU146  SER147  VAL150 

> <Gold.Protein.RotatedAtoms>
  -33.8535   10.7956  -32.2791 H   0  0  0  0  0  0  0  0  0  0  0  0  # atno 1385 bound_to 1341
  -35.4613    8.0969  -31.8463 H   0  0  0  0  0  0  0  0  0  0  0  0  # atno 1498 bound_to 1427
  -38.9964    4.2813  -34.5187 H   0  0  0  0  0  0  0  0  0  0  0  0  # atno 1739 bound_to 1653
  -38.1154    1.5482  -32.9997 H   0  0  0  0  0  0  0  0  0  0  0  0  # atno 1831 bound_to 1781
  -38.4812    1.2676  -30.5765 H   0  0  0  0  0  0  0  0  0  0  0  0  # atno 1943 bound_to 1869
  -38.3251    1.2892  -26.5535 H   0  0  0  0  0  0  0  0  0  0  0  0  # atno 2010 bound_to 1974
  -36.2446    1.4395  -26.7571 H   0  0  0  0  0  0  0  0  0  0  0  0  # atno 2126 bound_to 2040
  -33.1409    3.8546  -25.2059 H   0  0  0  0  0  0  0  0  0  0  0  0  # atno 2266 bound_to 2174
  -33.2434    4.3366  -29.0103 H   0  0  0  0  0  0  0  0  0  0  0  0  # atno 2431 bound_to 2337
  -38.0948   13.4240  -24.1090 H   0  0  0  0  0  0  0  0  0  0  0  0  # atno 6678 bound_to 6630
  -38.2858    2.8785  -21.5434 H   0  0  0  0  0  0  0  0  0  0  0  0  # atno 14714 bound_to 14666
  -39.9110    4.2808  -19.8127 H   0  0  0  0  0  0  0  0  0  0  0  0  # atno 14842 bound_to 14770
  -40.8367    6.6533  -21.4581 H   0  0  0  0  0  0  0  0  0  0  0  0  # atno 14987 bound_to 14930
  -40.7438    8.9989  -24.8657 H   0  0  0  0  0  0  0  0  0  0  0  0  # atno 15134 bound_to 15082
  -44.1265    9.6733  -27.3316 H   0  0  0  0  0  0  0  0  0  0  0  0  # atno 15259 bound_to 15184
  -41.2021   10.0284  -28.4638 H   0  0  0  0  0  0  0  0  0  0  0  0  # atno 15367 bound_to 15332
  -40.5830   10.9254  -31.7369 H   0  0  0  0  0  0  0  0  0  0  0  0  # atno 15474 bound_to 15420
  -41.3597   12.7784  -32.1608 H   0  0  0  0  0  0  0  0  0  0  0  0  # atno 15573 bound_to 15534
  -36.2991    8.7142  -33.6585 LP  0  0  0  0  0  0  0  0  0  0  0  0  # atno 20694 bound_to 1344
  -36.6276    9.8660  -32.4073 LP  0  0  0  0  0  0  0  0  0  0  0  0  # atno 20695 bound_to 1344
  -34.2007    6.9044  -31.6377 LP  0  0  0  0  0  0  0  0  0  0  0  0  # atno 20696 bound_to 1427
  -37.0662    5.8438  -30.6486 LP  0  0  0  0  0  0  0  0  0  0  0  0  # atno 20697 bound_to 1430
  -37.5342    4.4241  -31.5233 LP  0  0  0  0  0  0  0  0  0  0  0  0  # atno 20698 bound_to 1430
  -40.4391    4.2107  -30.9879 LP  0  0  0  0  0  0  0  0  0  0  0  0  # atno 20700 bound_to 1540
  -41.4765    3.6805  -32.2695 LP  0  0  0  0  0  0  0  0  0  0  0  0  # atno 20701 bound_to 1540
  -39.2242    4.2209  -32.7841 LP  0  0  0  0  0  0  0  0  0  0  0  0  # atno 20702 bound_to 1653
  -38.6562   -0.2233  -32.0272 LP  0  0  0  0  0  0  0  0  0  0  0  0  # atno 20703 bound_to 1656
  -39.0241   -0.2537  -33.7194 LP  0  0  0  0  0  0  0  0  0  0  0  0  # atno 20704 bound_to 1656
  -37.5645    3.0545  -32.3034 LP  0  0  0  0  0  0  0  0  0  0  0  0  # atno 20705 bound_to 1781
  -37.3891    2.4851  -28.5896 LP  0  0  0  0  0  0  0  0  0  0  0  0  # atno 20706 bound_to 1784
  -35.8483    1.7341  -28.8385 LP  0  0  0  0  0  0  0  0  0  0  0  0  # atno 20707 bound_to 1784
  -37.6921   -0.2539  -30.2398 LP  0  0  0  0  0  0  0  0  0  0  0  0  # atno 20708 bound_to 1869
  -36.9264   -1.6715  -27.2031 LP  0  0  0  0  0  0  0  0  0  0  0  0  # atno 20709 bound_to 1872
  -37.6814   -1.7970  -28.7569 LP  0  0  0  0  0  0  0  0  0  0  0  0  # atno 20710 bound_to 1872
  -38.6683   -0.3286  -27.1253 LP  0  0  0  0  0  0  0  0  0  0  0  0  # atno 20715 bound_to 1974
  -35.1205   -1.0847  -24.2350 LP  0  0  0  0  0  0  0  0  0  0  0  0  # atno 20716 bound_to 1977
  -35.2304    0.4225  -23.3887 LP  0  0  0  0  0  0  0  0  0  0  0  0  # atno 20717 bound_to 1977
  -36.1332    0.7349  -25.1612 LP  0  0  0  0  0  0  0  0  0  0  0  0  # atno 20718 bound_to 2040
  -35.6378    3.1065  -27.9123 LP  0  0  0  0  0  0  0  0  0  0  0  0  # atno 20719 bound_to 2043
  -35.8991    4.4470  -26.8470 LP  0  0  0  0  0  0  0  0  0  0  0  0  # atno 20720 bound_to 2043
  -33.6676    3.2555  -26.7663 LP  0  0  0  0  0  0  0  0  0  0  0  0  # atno 20721 bound_to 2174
  -32.2481    5.5382  -28.2149 LP  0  0  0  0  0  0  0  0  0  0  0  0  # atno 20722 bound_to 2337
  -33.5079    5.9555  -31.1673 LP  0  0  0  0  0  0  0  0  0  0  0  0  # atno 20723 bound_to 2340
  -32.7517    7.3213  -31.9174 LP  0  0  0  0  0  0  0  0  0  0  0  0  # atno 20724 bound_to 2340
  -39.0006    2.7984  -23.4220 LP  0  0  0  0  0  0  0  0  0  0  0  0  # atno 20725 bound_to 14555
  -39.0143    4.4590  -22.9300 LP  0  0  0  0  0  0  0  0  0  0  0  0  # atno 20726 bound_to 14555
  -38.2999    2.3093  -19.8933 LP  0  0  0  0  0  0  0  0  0  0  0  0  # atno 20727 bound_to 14666
  -42.4665    2.2705  -22.0035 LP  0  0  0  0  0  0  0  0  0  0  0  0  # atno 20728 bound_to 14669
  -43.0363    3.5494  -20.9838 LP  0  0  0  0  0  0  0  0  0  0  0  0  # atno 20729 bound_to 14669
  -39.9112    5.4105  -22.2648 LP  0  0  0  0  0  0  0  0  0  0  0  0  # atno 20730 bound_to 14930
  -41.1069    5.5121  -25.3068 LP  0  0  0  0  0  0  0  0  0  0  0  0  # atno 20731 bound_to 14933
  -42.5520    5.8832  -24.4270 LP  0  0  0  0  0  0  0  0  0  0  0  0  # atno 20732 bound_to 14933
  -41.6551    7.7146  -24.1042 LP  0  0  0  0  0  0  0  0  0  0  0  0  # atno 20733 bound_to 15082
  -41.5280   11.1771  -25.5177 LP  0  0  0  0  0  0  0  0  0  0  0  0  # atno 20734 bound_to 15085
  -40.5984   10.5901  -26.8560 LP  0  0  0  0  0  0  0  0  0  0  0  0  # atno 20735 bound_to 15085
  -42.3721    9.6499  -27.2968 LP  0  0  0  0  0  0  0  0  0  0  0  0  # atno 20738 bound_to 15184
  -42.0923   10.6254  -29.8417 LP  0  0  0  0  0  0  0  0  0  0  0  0  # atno 20739 bound_to 15332
  -42.0336    9.9569  -31.6466 LP  0  0  0  0  0  0  0  0  0  0  0  0  # atno 20740 bound_to 15420
  -40.9266    3.5858  -21.0585 LP  0  0  0  0  0  0  0  0  0  0  0  0  # atno 20741 bound_to 14770
  -43.0606    7.3086  -21.8277 LP  0  0  0  0  0  0  0  0  0  0  0  0  # atno 20742 bound_to 14773
  -41.7760    8.4037  -21.4396 LP  0  0  0  0  0  0  0  0  0  0  0  0  # atno 20743 bound_to 14773
  -34.5319   11.3983  -30.7866 LP  0  0  0  0  0  0  0  0  0  0  0  0  # atno 20746 bound_to 1341
  -39.7482    9.8414  -22.6232 LP  0  0  0  0  0  0  0  0  0  0  0  0  # atno 20747 bound_to 6633
  -40.3890   10.6633  -24.0067 LP  0  0  0  0  0  0  0  0  0  0  0  0  # atno 20748 bound_to 6633
  -42.0864   12.7531  -30.6723 LP  0  0  0  0  0  0  0  0  0  0  0  0  # atno 20749 bound_to 15187
  -41.1431   13.1854  -29.2854 LP  0  0  0  0  0  0  0  0  0  0  0  0  # atno 20750 bound_to 15187
  -38.8056   12.1634  -31.7856 LP  0  0  0  0  0  0  0  0  0  0  0  0  # atno 20751 bound_to 15335
  -39.2386   11.3125  -33.2308 LP  0  0  0  0  0  0  0  0  0  0  0  0  # atno 20752 bound_to 15335

> <Gold.Score>
     Fitness  S(hb_ext) S(vdw_ext)  S(hb_int)    S(int)      intcor
     32.92       0.76      25.40       0.00      -2.75      -0.77

> <Gold.Goldscore.Fitness>
32.9233

> <Gold.Goldscore.Internal.Vdw>
-3.1431

> <Gold.Goldscore.Internal.Torsion>
-0.3754

> <Gold.Goldscore.External.Vdw>
25.3954

> <Gold.Goldscore.Internal.HBond>
0.0000

> <Gold.Goldscore.External.HBond>
0.7579

> <Gold.Goldscore.Internal.Correction>
-0.7653

> <Gold.Goldscore.Hbonds>
donor molecule, donor type, donor heavy atom, donor atom, acceptor molecule, acceptor atom, score
      L1  H     8    22       P1 14773  0.38

> <Gold.Goldscore.Internal.Vdw.Weighted>
-3.1431

> <Gold.Goldscore.Internal.Torsion.Weighted>
-0.3754

> <Gold.Goldscore.External.Vdw.Weighted>
34.9187

> <Gold.Goldscore.Internal.HBond.Weighted>
0.0000

> <Gold.Goldscore.External.HBond.Weighted>
0.7579

> <Gold.Goldscore.Internal.Correction.Weighted>
-0.7653

> <Gold.Rescore>
     Score     S(PLP)   S(hbond)     S(cho)   S(metal)  DE(clash)   DE(tors)     intcor
    -15.34      13.08       0.00       0.00       0.00       2.02       0.12       ----

> <Gold.PLP.Fitness>
-15.3393

> <Gold.PLP.PLP>
13.0788

> <Gold.PLP.part.hbond>
-3.1188

> <Gold.PLP.part.metal>
0.0000

> <Gold.PLP.part.buried>
31.3358

> <Gold.PLP.part.nonpolar>
-30.1976

> <Gold.PLP.part.repulsive>
11.6257

> <Gold.PLP.ligand.clash>
2.0190

> <Gold.PLP.ligand.torsion>
0.1208

> <Gold.PLP.Chemscore.Hbond>
0.0000

> <Gold.PLP.Chemscore.CHOScore>
0.0000

> <Gold.PLP.Chemscore.Metal>
0.0000

> <Gold.PLP.Chemscore.Internal.Correction>
   9.000000E+99

