#       Name:                CT1002167954
#       Creating user name   hitesit
#       Creation time:       Sun Apr 16 02:23:29 2023


#       File generated by GOLD software.
#

@<TRIPOS>MOLECULE
CT1002167954|ligand_prepared|mol2|1|dock6
    29    30     1
SMALL
NO_CHARGES


@<TRIPOS>ATOM
      1 C1         -40.8540   5.5387 -28.7252 C.3            1 RES1               0.0000
      2 C2         -41.3062   4.8660 -27.4130 C.ar           1 RES1               0.0000
      3 C3         -41.8355   5.0826 -29.8008 C.2            1 RES1               0.0000
      4 C4         -40.8721   7.0405 -28.4630 C.2            1 RES1               0.0000
      5 C5         -39.4245   5.1480 -29.1672 C.3            1 RES1               0.0000
      6 C6         -40.4061   4.6717 -26.3696 C.ar           1 RES1               0.0000
      7 C7         -42.6184   4.4378 -27.2304 C.ar           1 RES1               0.0000
      8 N8         -42.7543   5.9884 -30.2427 N.am           1 RES1               0.0000
      9 O9         -41.8290   3.9340 -30.2262 O.2            1 RES1               0.0000
     10 N10        -41.7751   7.8027 -29.1569 N.am           1 RES1               0.0000
     11 O11        -40.1238   7.5685 -27.6496 O.2            1 RES1               0.0000
     12 C12        -39.1404   3.6570 -29.0758 C.3            1 RES1               0.0000
     13 C13        -40.8039   4.0736 -25.1854 C.ar           1 RES1               0.0000
     14 C14        -43.0141   3.8397 -26.0455 C.ar           1 RES1               0.0000
     15 C15        -42.7379   7.3405 -30.0122 C.2            1 RES1               0.0000
     16 C16        -42.1082   3.6576 -25.0224 C.ar           1 RES1               0.0000
     17 O17        -43.5497   8.0830 -30.5570 O.2            1 RES1               0.0000
     18 H18        -39.2743   5.4731 -30.2041 H              1 RES1               0.0000
     19 H19        -38.7019   5.6842 -28.5397 H              1 RES1               0.0000
     20 H20        -39.3749   4.9903 -26.4805 H              1 RES1               0.0000
     21 H21        -43.3481   4.5698 -28.0221 H              1 RES1               0.0000
     22 H22        -43.5250   5.6269 -30.7957 H              1 RES1               0.0000
     23 H23        -41.7248   8.8077 -29.0235 H              1 RES1               0.0000
     24 H24        -38.1245   3.4375 -29.3973 H              1 RES1               0.0000
     25 H25        -39.2558   3.3043 -28.0530 H              1 RES1               0.0000
     26 H26        -39.8248   3.0945 -29.7076 H              1 RES1               0.0000
     27 H27        -40.0867   3.9313 -24.3838 H              1 RES1               0.0000
     28 H28        -44.0415   3.5133 -25.9218 H              1 RES1               0.0000
     29 H29        -42.4197   3.1894 -24.0945 H              1 RES1               0.0000
@<TRIPOS>BOND
    1    1    2 1     
    2    1    3 1     
    3    1    4 1     
    4    1    5 1     
    5    2    6 ar    
    6    2    7 ar    
    7    3    8 1     
    8    3    9 2     
    9    4   10 1     
   10    4   11 2     
   11    5   12 1     
   12    5   18 1     
   13    5   19 1     
   14    6   13 ar    
   15    6   20 1     
   16    7   14 ar    
   17    7   21 1     
   18    8   15 1     
   19    8   22 1     
   20   10   15 1     
   21   10   23 1     
   22   12   24 1     
   23   12   25 1     
   24   12   26 1     
   25   13   16 ar    
   26   13   27 1     
   27   14   16 ar    
   28   14   28 1     
   29   15   17 2     
   30   16   29 1     
@<TRIPOS>SUBSTRUCTURE
      1 RES1           1
@<TRIPOS>SET
DONOR_HYDROGENS      STATIC     ATOMS    <user>   **** ""
2 22 23
ATOM$RED        STATIC     ATOMS    COLORGROUP SYSTEM
2 22 23
@<TRIPOS>COMMENT
> <Gold.Version>
2022.3.0

> <Gold.Id.Protein>
unknown|7ta6_clean|pdb

> <Gold.Protein.RotatedTorsions>
[ 1498 1427 1428 1429 ] final -124.58 input  100.76 | X-H torsion
[ 1739 1653 1654 1655 ] final -172.28 input   85.13 | X-H torsion
[ 1831 1781 1782 1783 ] final  -11.05 input   95.59 | X-H torsion
[ 1943 1869 1870 1871 ] final   29.95 input  114.16 | X-H torsion
[ 2010 1974 1975 1976 ] final  147.22 input  -86.06 | X-H torsion
[ 2126 2040 2041 2042 ] final -159.56 input   20.42 | X-H torsion
[ 2266 2174 2175 2176 ] final -179.14 input   67.72 | X-H torsion
[ 2431 2337 2338 2339 ] final  -58.98 input   82.35 | X-H torsion
[ 14714 14666 14667 14668 ] final   39.01 input  114.45 | X-H torsion
[ 14987 14930 14931 14932 ] final  170.32 input  116.70 | X-H torsion
[ 15134 15082 15083 15084 ] final   78.16 input   24.19 | X-H torsion
[ 15259 15184 15185 15186 ] final   89.80 input -115.06 | X-H torsion
[ 15367 15332 15333 15334 ] final  -81.52 input  118.12 | X-H torsion
[ 15474 15420 15421 15422 ] final   22.90 input  108.08 | X-H torsion
[ 14842 14770 14771 14772 ] final    6.22 input   77.85 | X-H torsion
[ 1385 1341 1342 1343 ] final  -66.24 input  112.53 | X-H torsion
[ 6678 6630 6631 6632 ] final -177.58 input   49.89 | X-H torsion
[ 15573 15534 15535 15536 ] final  164.56 input   96.27 | X-H torsion
[ 20694 1344 1343 1342 ] final  149.80 input   -0.00 | X-H torsion
[ 20697 1430 1429 1428 ] final  121.45 input    0.00 | X-H torsion
[ 20700 1540 1539 1538 ] final -160.97 input    0.00 | X-H torsion
[ 20703 1656 1655 1654 ] final  -41.24 input   -0.00 | X-H torsion
[ 20706 1784 1783 1782 ] final -157.94 input    0.00 | X-H torsion
[ 20709 1872 1871 1870 ] final  -69.30 input    0.00 | X-H torsion
[ 20716 1977 1976 1975 ] final  -10.13 input    0.00 | X-H torsion
[ 20719 2043 2042 2041 ] final -140.90 input    0.00 | X-H torsion
[ 20723 2340 2339 2338 ] final  162.69 input    0.00 | X-H torsion
[ 20725 14555 14554 14553 ] final   87.35 input   -0.00 | X-H torsion
[ 20728 14669 14668 14667 ] final   94.77 input    0.00 | X-H torsion
[ 20731 14933 14932 14931 ] final  102.15 input    0.00 | X-H torsion
[ 20734 15085 15084 15083 ] final  -70.75 input   -0.00 | X-H torsion
[ 20742 14773 14772 14771 ] final   83.94 input    0.00 | X-H torsion
[ 20747 6633 6632 6631 ] final   -9.34 input   -0.00 | X-H torsion
[ 20749 15187 15186 15185 ] final -114.69 input    0.00 | X-H torsion
[ 20751 15335 15334 15333 ] final  -14.76 input    0.00 | X-H torsion

> <Gold.Protein.ActiveResidues>
 ALA18   ASN19   PRO20   GLN21   ALA22   GLU23   GLY24   GLN25   LEU26   GLN27  
 LEU63   PHE64   LYS65   ILE136  PRO139  ASP140  TYR141  LEU142  ASP143  PHE144 
 ALA145  GLU146  SER147  VAL150 

> <Gold.Protein.RotatedAtoms>
  -33.6739   10.7977  -32.1688 H   0  0  0  0  0  0  0  0  0  0  0  0  # atno 1385 bound_to 1341
  -34.6792    8.0998  -32.3686 H   0  0  0  0  0  0  0  0  0  0  0  0  # atno 1498 bound_to 1427
  -39.8623    4.4281  -34.0815 H   0  0  0  0  0  0  0  0  0  0  0  0  # atno 1739 bound_to 1653
  -38.4677    2.2749  -32.0259 H   0  0  0  0  0  0  0  0  0  0  0  0  # atno 1831 bound_to 1781
  -37.6320   -0.2314  -30.2001 H   0  0  0  0  0  0  0  0  0  0  0  0  # atno 1943 bound_to 1869
  -38.8893   -0.3224  -26.9608 H   0  0  0  0  0  0  0  0  0  0  0  0  # atno 2010 bound_to 1974
  -36.0231    0.5497  -25.2611 H   0  0  0  0  0  0  0  0  0  0  0  0  # atno 2126 bound_to 2040
  -34.0749    3.8569  -25.4903 H   0  0  0  0  0  0  0  0  0  0  0  0  # atno 2266 bound_to 2174
  -32.3315    5.6925  -28.3283 H   0  0  0  0  0  0  0  0  0  0  0  0  # atno 2431 bound_to 2337
  -37.9120   13.6976  -23.6447 H   0  0  0  0  0  0  0  0  0  0  0  0  # atno 6678 bound_to 6630
  -38.5515    3.1861  -20.1163 H   0  0  0  0  0  0  0  0  0  0  0  0  # atno 14714 bound_to 14666
  -39.9812    4.3157  -21.1128 H   0  0  0  0  0  0  0  0  0  0  0  0  # atno 14842 bound_to 14770
  -39.5499    6.1537  -21.5621 H   0  0  0  0  0  0  0  0  0  0  0  0  # atno 14987 bound_to 14930
  -41.7004    8.8855  -23.9761 H   0  0  0  0  0  0  0  0  0  0  0  0  # atno 15134 bound_to 15082
  -42.8109   10.1168  -26.6608 H   0  0  0  0  0  0  0  0  0  0  0  0  # atno 15259 bound_to 15184
  -41.6424   11.2021  -29.0389 H   0  0  0  0  0  0  0  0  0  0  0  0  # atno 15367 bound_to 15332
  -41.7069   11.1935  -31.4641 H   0  0  0  0  0  0  0  0  0  0  0  0  # atno 15474 bound_to 15420
  -42.8400   12.5569  -32.4835 H   0  0  0  0  0  0  0  0  0  0  0  0  # atno 15573 bound_to 15534
  -36.2929    8.7194  -33.6616 LP  0  0  0  0  0  0  0  0  0  0  0  0  # atno 20694 bound_to 1344
  -36.6339    9.8608  -32.4043 LP  0  0  0  0  0  0  0  0  0  0  0  0  # atno 20695 bound_to 1344
  -34.9636    6.9017  -31.1283 LP  0  0  0  0  0  0  0  0  0  0  0  0  # atno 20696 bound_to 1427
  -37.7869    5.7810  -30.7786 LP  0  0  0  0  0  0  0  0  0  0  0  0  # atno 20697 bound_to 1430
  -36.8135    4.4869  -31.3933 LP  0  0  0  0  0  0  0  0  0  0  0  0  # atno 20698 bound_to 1430
  -40.6397    3.1474  -31.7369 LP  0  0  0  0  0  0  0  0  0  0  0  0  # atno 20700 bound_to 1540
  -41.2759    4.7438  -31.5205 LP  0  0  0  0  0  0  0  0  0  0  0  0  # atno 20701 bound_to 1540
  -38.3865    4.0789  -33.2070 LP  0  0  0  0  0  0  0  0  0  0  0  0  # atno 20702 bound_to 1653
  -39.6894   -0.0922  -32.7875 LP  0  0  0  0  0  0  0  0  0  0  0  0  # atno 20703 bound_to 1656
  -37.9909   -0.3848  -32.9591 LP  0  0  0  0  0  0  0  0  0  0  0  0  # atno 20704 bound_to 1656
  -37.2218    2.3478  -33.2505 LP  0  0  0  0  0  0  0  0  0  0  0  0  # atno 20705 bound_to 1781
  -37.0094    1.5565  -28.1742 LP  0  0  0  0  0  0  0  0  0  0  0  0  # atno 20706 bound_to 1784
  -36.2280    2.6628  -29.2539 LP  0  0  0  0  0  0  0  0  0  0  0  0  # atno 20707 bound_to 1784
  -38.5237    1.2140  -30.6083 LP  0  0  0  0  0  0  0  0  0  0  0  0  # atno 20708 bound_to 1869
  -38.0366   -2.1901  -28.0535 LP  0  0  0  0  0  0  0  0  0  0  0  0  # atno 20709 bound_to 1872
  -36.5712   -1.2785  -27.9065 LP  0  0  0  0  0  0  0  0  0  0  0  0  # atno 20710 bound_to 1872
  -38.1215    1.2331  -26.7306 LP  0  0  0  0  0  0  0  0  0  0  0  0  # atno 20715 bound_to 1974
  -35.8575   -0.7720  -23.5112 LP  0  0  0  0  0  0  0  0  0  0  0  0  # atno 20716 bound_to 1977
  -34.4934    0.1098  -24.1125 LP  0  0  0  0  0  0  0  0  0  0  0  0  # atno 20717 bound_to 1977
  -36.3489    1.6018  -26.6187 LP  0  0  0  0  0  0  0  0  0  0  0  0  # atno 20718 bound_to 2040
  -35.2180    4.1401  -27.9410 LP  0  0  0  0  0  0  0  0  0  0  0  0  # atno 20719 bound_to 2043
  -36.3188    3.4134  -26.8184 LP  0  0  0  0  0  0  0  0  0  0  0  0  # atno 20720 bound_to 2043
  -32.7704    3.2533  -26.4931 LP  0  0  0  0  0  0  0  0  0  0  0  0  # atno 20721 bound_to 2174
  -33.1276    4.2306  -28.8727 LP  0  0  0  0  0  0  0  0  0  0  0  0  # atno 20722 bound_to 2337
  -32.8074    7.4296  -31.6840 LP  0  0  0  0  0  0  0  0  0  0  0  0  # atno 20723 bound_to 2340
  -33.4521    5.8472  -31.4007 LP  0  0  0  0  0  0  0  0  0  0  0  0  # atno 20724 bound_to 2340
  -38.6572    2.9416  -23.5700 LP  0  0  0  0  0  0  0  0  0  0  0  0  # atno 20725 bound_to 14555
  -39.3576    4.3157  -22.7819 LP  0  0  0  0  0  0  0  0  0  0  0  0  # atno 20726 bound_to 14555
  -38.0386    2.0068  -21.2968 LP  0  0  0  0  0  0  0  0  0  0  0  0  # atno 20727 bound_to 14666
  -43.0230    2.7396  -20.6892 LP  0  0  0  0  0  0  0  0  0  0  0  0  # atno 20728 bound_to 14669
  -42.4797    3.0803  -22.2981 LP  0  0  0  0  0  0  0  0  0  0  0  0  # atno 20729 bound_to 14669
  -41.1705    5.8994  -22.1630 LP  0  0  0  0  0  0  0  0  0  0  0  0  # atno 20730 bound_to 14930
  -42.5119    5.8405  -24.3532 LP  0  0  0  0  0  0  0  0  0  0  0  0  # atno 20731 bound_to 14933
  -41.1470    5.5548  -25.3806 LP  0  0  0  0  0  0  0  0  0  0  0  0  # atno 20732 bound_to 14933
  -40.7259    7.8247  -24.9684 LP  0  0  0  0  0  0  0  0  0  0  0  0  # atno 20733 bound_to 15082
  -41.4580   11.0605  -25.4366 LP  0  0  0  0  0  0  0  0  0  0  0  0  # atno 20734 bound_to 15085
  -40.6684   10.7066  -26.9370 LP  0  0  0  0  0  0  0  0  0  0  0  0  # atno 20735 bound_to 15085
  -43.6252    9.2274  -27.9357 LP  0  0  0  0  0  0  0  0  0  0  0  0  # atno 20738 bound_to 15184
  -41.6598    9.4728  -29.2768 LP  0  0  0  0  0  0  0  0  0  0  0  0  # atno 20739 bound_to 15332
  -40.9323    9.6942  -31.9139 LP  0  0  0  0  0  0  0  0  0  0  0  0  # atno 20740 bound_to 15420
  -40.8588    3.5522  -19.8038 LP  0  0  0  0  0  0  0  0  0  0  0  0  # atno 20741 bound_to 14770
  -41.9834    8.2919  -21.0245 LP  0  0  0  0  0  0  0  0  0  0  0  0  # atno 20742 bound_to 14773
  -42.8531    7.4203  -22.2427 LP  0  0  0  0  0  0  0  0  0  0  0  0  # atno 20743 bound_to 14773
  -34.7077   11.3963  -30.8945 LP  0  0  0  0  0  0  0  0  0  0  0  0  # atno 20746 bound_to 1341
  -39.7960   10.7372  -23.9787 LP  0  0  0  0  0  0  0  0  0  0  0  0  # atno 20747 bound_to 6633
  -40.3412    9.7675  -22.6511 LP  0  0  0  0  0  0  0  0  0  0  0  0  # atno 20748 bound_to 6633
  -41.7374   12.6237  -30.7634 LP  0  0  0  0  0  0  0  0  0  0  0  0  # atno 20749 bound_to 15187
  -41.4922   13.3148  -29.1943 LP  0  0  0  0  0  0  0  0  0  0  0  0  # atno 20750 bound_to 15187
  -38.6102   11.9113  -31.7664 LP  0  0  0  0  0  0  0  0  0  0  0  0  # atno 20751 bound_to 15335
  -39.4341   11.5646  -33.2500 LP  0  0  0  0  0  0  0  0  0  0  0  0  # atno 20752 bound_to 15335

> <Gold.Score>
     Fitness  S(hb_ext) S(vdw_ext)  S(hb_int)    S(int)      intcor
     39.93       3.04      29.48       0.00      -3.64      -0.77

> <Gold.Goldscore.Fitness>
39.9313

> <Gold.Goldscore.Internal.Vdw>
-3.7067

> <Gold.Goldscore.Internal.Torsion>
-0.6986

> <Gold.Goldscore.External.Vdw>
29.4775

> <Gold.Goldscore.Internal.HBond>
0.0000

> <Gold.Goldscore.External.HBond>
3.0397

> <Gold.Goldscore.Internal.Correction>
-0.7653

> <Gold.Goldscore.Hbonds>
donor molecule, donor type, donor heavy atom, donor atom, acceptor molecule, acceptor atom, score
      L1  H    10    23       P1 15332  0.51

> <Gold.Goldscore.Internal.Vdw.Weighted>
-3.7067

> <Gold.Goldscore.Internal.Torsion.Weighted>
-0.6986

> <Gold.Goldscore.External.Vdw.Weighted>
40.5315

> <Gold.Goldscore.Internal.HBond.Weighted>
0.0000

> <Gold.Goldscore.External.HBond.Weighted>
3.0397

> <Gold.Goldscore.Internal.Correction.Weighted>
-0.7653

> <Gold.Rescore>
     Score     S(PLP)   S(hbond)     S(cho)   S(metal)  DE(clash)   DE(tors)     intcor
    -10.31      11.47       0.90       0.00       0.00       0.00       0.76       ----

> <Gold.PLP.Fitness>
-10.3084

> <Gold.PLP.PLP>
11.4693

> <Gold.PLP.part.hbond>
-5.7594

> <Gold.PLP.part.metal>
0.0000

> <Gold.PLP.part.buried>
37.5505

> <Gold.PLP.part.nonpolar>
-36.6641

> <Gold.PLP.part.repulsive>
14.2083

> <Gold.PLP.ligand.clash>
0.0000

> <Gold.PLP.ligand.torsion>
0.7635

> <Gold.PLP.Chemscore.Hbond>
0.8960

> <Gold.PLP.Chemscore.CHOScore>
0.0000

> <Gold.PLP.Chemscore.Metal>
0.0000

> <Gold.Chemscore.Hbonds>
donor molecule, donor type, donor heavy atom, donor atom, acceptor molecule, acceptor atom, score
      L1  H    10    23       P1 15332  1.00

> <Gold.PLP.Chemscore.Internal.Correction>
   9.000000E+99

