#       Name:                CT1002167954
#       Creating user name   hitesit
#       Creation time:       Sun Apr 16 02:23:31 2023


#       File generated by GOLD software.
#

@<TRIPOS>MOLECULE
CT1002167954|ligand_prepared|mol2|1|dock9
    29    30     1
SMALL
NO_CHARGES


@<TRIPOS>ATOM
      1 C1         -43.0435   3.5506 -25.4453 C.3            1 RES1               0.0000
      2 C2         -41.8437   4.0510 -26.2753 C.ar           1 RES1               0.0000
      3 C3         -43.5968   2.3344 -26.1823 C.2            1 RES1               0.0000
      4 C4         -42.5007   3.2414 -24.0545 C.2            1 RES1               0.0000
      5 C5         -44.1771   4.5917 -25.2952 C.3            1 RES1               0.0000
      6 C6         -42.0281   4.9681 -27.3057 C.ar           1 RES1               0.0000
      7 C7         -40.5486   3.6075 -26.0212 C.ar           1 RES1               0.0000
      8 N8         -43.3558   1.1052 -25.6430 N.am           1 RES1               0.0000
      9 O9         -44.2012   2.4495 -27.2414 O.2            1 RES1               0.0000
     10 N10        -42.5128   1.9366 -23.6360 N.am           1 RES1               0.0000
     11 O11        -42.0474   4.1136 -23.3237 O.2            1 RES1               0.0000
     12 C12        -45.2337   4.2045 -24.2726 C.3            1 RES1               0.0000
     13 C13        -40.9563   5.4275 -28.0530 C.ar           1 RES1               0.0000
     14 C14        -39.4782   4.0681 -26.7699 C.ar           1 RES1               0.0000
     15 C15        -42.8874   0.8504 -24.3791 C.2            1 RES1               0.0000
     16 C16        -39.6807   4.9783 -27.7854 C.ar           1 RES1               0.0000
     17 O17        -42.8187  -0.2984 -23.9517 O.2            1 RES1               0.0000
     18 H18        -43.7372   5.5528 -25.0019 H              1 RES1               0.0000
     19 H19        -44.6622   4.7284 -26.2696 H              1 RES1               0.0000
     20 H20        -43.0250   5.3311 -27.5325 H              1 RES1               0.0000
     21 H21        -40.3656   2.8907 -25.2279 H              1 RES1               0.0000
     22 H22        -43.5410   0.3011 -26.2340 H              1 RES1               0.0000
     23 H23        -42.2151   1.7585 -22.6821 H              1 RES1               0.0000
     24 H24        -46.0052   4.9688 -24.2067 H              1 RES1               0.0000
     25 H25        -45.7097   3.2652 -24.5464 H              1 RES1               0.0000
     26 H26        -44.7902   4.0848 -23.2862 H              1 RES1               0.0000
     27 H27        -41.1212   6.1428 -28.8520 H              1 RES1               0.0000
     28 H28        -38.4760   3.7113 -26.5562 H              1 RES1               0.0000
     29 H29        -38.8412   5.3386 -28.3707 H              1 RES1               0.0000
@<TRIPOS>BOND
    1    1    2 1     
    2    1    3 1     
    3    1    4 1     
    4    1    5 1     
    5    2    6 ar    
    6    2    7 ar    
    7    3    8 1     
    8    3    9 2     
    9    4   10 1     
   10    4   11 2     
   11    5   12 1     
   12    5   18 1     
   13    5   19 1     
   14    6   13 ar    
   15    6   20 1     
   16    7   14 ar    
   17    7   21 1     
   18    8   15 1     
   19    8   22 1     
   20   10   15 1     
   21   10   23 1     
   22   12   24 1     
   23   12   25 1     
   24   12   26 1     
   25   13   16 ar    
   26   13   27 1     
   27   14   16 ar    
   28   14   28 1     
   29   15   17 2     
   30   16   29 1     
@<TRIPOS>SUBSTRUCTURE
      1 RES1           1
@<TRIPOS>SET
DONOR_HYDROGENS      STATIC     ATOMS    <user>   **** ""
2 22 23
ATOM$RED        STATIC     ATOMS    COLORGROUP SYSTEM
2 22 23
@<TRIPOS>COMMENT
> <Gold.Version>
2022.3.0

> <Gold.Id.Protein>
unknown|7ta6_clean|pdb

> <Gold.Protein.RotatedTorsions>
[ 1498 1427 1428 1429 ] final   64.88 input  100.76 | X-H torsion
[ 1739 1653 1654 1655 ] final  -94.12 input   85.13 | X-H torsion
[ 1831 1781 1782 1783 ] final  101.01 input   95.59 | X-H torsion
[ 1943 1869 1870 1871 ] final   62.41 input  114.16 | X-H torsion
[ 2010 1974 1975 1976 ] final  -83.48 input  -86.06 | X-H torsion
[ 2126 2040 2041 2042 ] final  -61.25 input   20.42 | X-H torsion
[ 2266 2174 2175 2176 ] final   95.10 input   67.72 | X-H torsion
[ 2431 2337 2338 2339 ] final  -43.05 input   82.35 | X-H torsion
[ 14714 14666 14667 14668 ] final -144.49 input  114.45 | X-H torsion
[ 14987 14930 14931 14932 ] final   24.57 input  116.70 | X-H torsion
[ 15134 15082 15083 15084 ] final -138.15 input   24.19 | X-H torsion
[ 15259 15184 15185 15186 ] final -118.78 input -115.06 | X-H torsion
[ 15367 15332 15333 15334 ] final -149.85 input  118.12 | X-H torsion
[ 15474 15420 15421 15422 ] final   69.19 input  108.08 | X-H torsion
[ 14842 14770 14771 14772 ] final -116.24 input   77.85 | X-H torsion
[ 1385 1341 1342 1343 ] final  -21.04 input  112.53 | X-H torsion
[ 6678 6630 6631 6632 ] final -155.06 input   49.89 | X-H torsion
[ 15573 15534 15535 15536 ] final  -16.30 input   96.27 | X-H torsion
[ 20694 1344 1343 1342 ] final   20.29 input   -0.00 | X-H torsion
[ 20697 1430 1429 1428 ] final -127.21 input    0.00 | X-H torsion
[ 20700 1540 1539 1538 ] final  -18.86 input    0.00 | X-H torsion
[ 20703 1656 1655 1654 ] final   99.28 input   -0.00 | X-H torsion
[ 20706 1784 1783 1782 ] final   91.56 input    0.00 | X-H torsion
[ 20709 1872 1871 1870 ] final   39.44 input    0.00 | X-H torsion
[ 20716 1977 1976 1975 ] final -179.34 input    0.00 | X-H torsion
[ 20719 2043 2042 2041 ] final  -72.10 input    0.00 | X-H torsion
[ 20723 2340 2339 2338 ] final   93.12 input    0.00 | X-H torsion
[ 20725 14555 14554 14553 ] final  177.63 input   -0.00 | X-H torsion
[ 20728 14669 14668 14667 ] final   64.62 input    0.00 | X-H torsion
[ 20731 14933 14932 14931 ] final -168.93 input    0.00 | X-H torsion
[ 20734 15085 15084 15083 ] final  110.98 input   -0.00 | X-H torsion
[ 20742 14773 14772 14771 ] final  -56.27 input    0.00 | X-H torsion
[ 20747 6633 6632 6631 ] final  -64.95 input   -0.00 | X-H torsion
[ 20749 15187 15186 15185 ] final -111.87 input    0.00 | X-H torsion
[ 20751 15335 15334 15333 ] final    4.68 input    0.00 | X-H torsion

> <Gold.Protein.ActiveResidues>
 ALA18   ASN19   PRO20   GLN21   ALA22   GLU23   GLY24   GLN25   LEU26   GLN27  
 LEU63   PHE64   LYS65   ILE136  PRO139  ASP140  TYR141  LEU142  ASP143  PHE144 
 ALA145  GLU146  SER147  VAL150 

> <Gold.Protein.RotatedAtoms>
  -34.3213   10.8548  -32.3635 H   0  0  0  0  0  0  0  0  0  0  0  0  # atno 1385 bound_to 1341
  -34.8414    6.8277  -31.1581 H   0  0  0  0  0  0  0  0  0  0  0  0  # atno 1498 bound_to 1427
  -39.7052    4.3140  -32.9767 H   0  0  0  0  0  0  0  0  0  0  0  0  # atno 1739 bound_to 1653
  -37.3196    3.0262  -32.5538 H   0  0  0  0  0  0  0  0  0  0  0  0  # atno 1831 bound_to 1781
  -38.0312   -0.3812  -30.4481 H   0  0  0  0  0  0  0  0  0  0  0  0  # atno 1943 bound_to 1869
  -38.7595    1.1551  -26.3444 H   0  0  0  0  0  0  0  0  0  0  0  0  # atno 2010 bound_to 1974
  -36.5521    1.7563  -25.5041 H   0  0  0  0  0  0  0  0  0  0  0  0  # atno 2126 bound_to 2040
  -32.8730    3.7735  -25.3230 H   0  0  0  0  0  0  0  0  0  0  0  0  # atno 2266 bound_to 2174
  -32.4990    5.7977  -28.4762 H   0  0  0  0  0  0  0  0  0  0  0  0  # atno 2431 bound_to 2337
  -37.8038   13.6917  -23.3142 H   0  0  0  0  0  0  0  0  0  0  0  0  # atno 6678 bound_to 6630
  -38.0232    1.9635  -21.2658 H   0  0  0  0  0  0  0  0  0  0  0  0  # atno 14714 bound_to 14666
  -41.1482    3.4212  -20.5854 H   0  0  0  0  0  0  0  0  0  0  0  0  # atno 14842 bound_to 14770
  -40.8831    5.5411  -22.3957 H   0  0  0  0  0  0  0  0  0  0  0  0  # atno 14987 bound_to 14930
  -41.0676    7.4981  -24.6956 H   0  0  0  0  0  0  0  0  0  0  0  0  # atno 15134 bound_to 15082
  -43.9750    9.4058  -27.7432 H   0  0  0  0  0  0  0  0  0  0  0  0  # atno 15259 bound_to 15184
  -41.2172   10.5526  -28.4257 H   0  0  0  0  0  0  0  0  0  0  0  0  # atno 15367 bound_to 15332
  -42.1449   10.6563  -31.4861 H   0  0  0  0  0  0  0  0  0  0  0  0  # atno 15474 bound_to 15420
  -41.1614   12.7010  -33.0499 H   0  0  0  0  0  0  0  0  0  0  0  0  # atno 15573 bound_to 15534
  -36.0891   10.0527  -32.8648 LP  0  0  0  0  0  0  0  0  0  0  0  0  # atno 20694 bound_to 1344
  -36.8376    8.5274  -33.2011 LP  0  0  0  0  0  0  0  0  0  0  0  0  # atno 20695 bound_to 1344
  -34.8054    8.1425  -32.3090 LP  0  0  0  0  0  0  0  0  0  0  0  0  # atno 20696 bound_to 1427
  -37.7842    4.5399  -31.4895 LP  0  0  0  0  0  0  0  0  0  0  0  0  # atno 20697 bound_to 1430
  -36.8162    5.7280  -30.6824 LP  0  0  0  0  0  0  0  0  0  0  0  0  # atno 20698 bound_to 1430
  -40.8558    4.6636  -31.1554 LP  0  0  0  0  0  0  0  0  0  0  0  0  # atno 20700 bound_to 1540
  -41.0598    3.2276  -32.1021 LP  0  0  0  0  0  0  0  0  0  0  0  0  # atno 20701 bound_to 1540
  -38.5385    4.1893  -34.2758 LP  0  0  0  0  0  0  0  0  0  0  0  0  # atno 20702 bound_to 1653
  -38.2433   -0.3713  -33.4865 LP  0  0  0  0  0  0  0  0  0  0  0  0  # atno 20703 bound_to 1656
  -39.4370   -0.1057  -32.2600 LP  0  0  0  0  0  0  0  0  0  0  0  0  # atno 20704 bound_to 1656
  -38.3385    1.6171  -32.7370 LP  0  0  0  0  0  0  0  0  0  0  0  0  # atno 20705 bound_to 1781
  -37.1404    2.7769  -28.8945 LP  0  0  0  0  0  0  0  0  0  0  0  0  # atno 20706 bound_to 1784
  -36.0969    1.4424  -28.5337 LP  0  0  0  0  0  0  0  0  0  0  0  0  # atno 20707 bound_to 1784
  -38.1328    1.3607  -30.3655 LP  0  0  0  0  0  0  0  0  0  0  0  0  # atno 20708 bound_to 1869
  -37.0940   -1.4176  -28.7582 LP  0  0  0  0  0  0  0  0  0  0  0  0  # atno 20709 bound_to 1872
  -37.5138   -2.0510  -27.2017 LP  0  0  0  0  0  0  0  0  0  0  0  0  # atno 20710 bound_to 1872
  -38.2473   -0.1987  -27.3279 LP  0  0  0  0  0  0  0  0  0  0  0  0  # atno 20715 bound_to 1974
  -34.5452    0.2278  -24.0131 LP  0  0  0  0  0  0  0  0  0  0  0  0  # atno 20716 bound_to 1977
  -35.8056   -0.8900  -23.6107 LP  0  0  0  0  0  0  0  0  0  0  0  0  # atno 20717 bound_to 1977
  -35.8336    0.4262  -26.3820 LP  0  0  0  0  0  0  0  0  0  0  0  0  # atno 20718 bound_to 2040
  -35.5342    3.2157  -27.9964 LP  0  0  0  0  0  0  0  0  0  0  0  0  # atno 20719 bound_to 2043
  -36.0026    4.3378  -26.7629 LP  0  0  0  0  0  0  0  0  0  0  0  0  # atno 20720 bound_to 2043
  -33.9250    3.3333  -26.6538 LP  0  0  0  0  0  0  0  0  0  0  0  0  # atno 20721 bound_to 2174
  -32.9660    4.1290  -28.7301 LP  0  0  0  0  0  0  0  0  0  0  0  0  # atno 20722 bound_to 2337
  -33.2376    7.1383  -30.8434 LP  0  0  0  0  0  0  0  0  0  0  0  0  # atno 20723 bound_to 2340
  -33.0219    6.1385  -32.2413 LP  0  0  0  0  0  0  0  0  0  0  0  0  # atno 20724 bound_to 2340
  -39.6892    3.1504  -22.9385 LP  0  0  0  0  0  0  0  0  0  0  0  0  # atno 20725 bound_to 14555
  -38.3256    4.1070  -23.4134 LP  0  0  0  0  0  0  0  0  0  0  0  0  # atno 20726 bound_to 14555
  -38.5582    3.2092  -20.1663 LP  0  0  0  0  0  0  0  0  0  0  0  0  # atno 20727 bound_to 14666
  -42.9003    2.3405  -20.8584 LP  0  0  0  0  0  0  0  0  0  0  0  0  # atno 20728 bound_to 14669
  -42.6024    3.4794  -22.1289 LP  0  0  0  0  0  0  0  0  0  0  0  0  # atno 20729 bound_to 14669
  -39.8657    6.4989  -21.3473 LP  0  0  0  0  0  0  0  0  0  0  0  0  # atno 20730 bound_to 14930
  -42.2483    6.1016  -25.5083 LP  0  0  0  0  0  0  0  0  0  0  0  0  # atno 20731 bound_to 14933
  -41.4105    5.2938  -24.2255 LP  0  0  0  0  0  0  0  0  0  0  0  0  # atno 20732 bound_to 14933
  -41.3405    9.1725  -24.2695 LP  0  0  0  0  0  0  0  0  0  0  0  0  # atno 20733 bound_to 15082
  -40.6812   10.7265  -26.9480 LP  0  0  0  0  0  0  0  0  0  0  0  0  # atno 20734 bound_to 15085
  -41.4452   11.0407  -25.4256 LP  0  0  0  0  0  0  0  0  0  0  0  0  # atno 20735 bound_to 15085
  -42.5164    9.9047  -26.9047 LP  0  0  0  0  0  0  0  0  0  0  0  0  # atno 20738 bound_to 15184
  -42.0775   10.1106  -29.8790 LP  0  0  0  0  0  0  0  0  0  0  0  0  # atno 20739 bound_to 15332
  -40.5031   10.2207  -31.8923 LP  0  0  0  0  0  0  0  0  0  0  0  0  # atno 20740 bound_to 15420
  -39.7326    4.4154  -20.3128 LP  0  0  0  0  0  0  0  0  0  0  0  0  # atno 20741 bound_to 14770
  -43.0828    7.3063  -21.7120 LP  0  0  0  0  0  0  0  0  0  0  0  0  # atno 20742 bound_to 14773
  -41.7538    8.4059  -21.5552 LP  0  0  0  0  0  0  0  0  0  0  0  0  # atno 20743 bound_to 14773
  -34.0740   11.3403  -30.7039 LP  0  0  0  0  0  0  0  0  0  0  0  0  # atno 20746 bound_to 1341
  -40.5867   10.5794  -23.9270 LP  0  0  0  0  0  0  0  0  0  0  0  0  # atno 20747 bound_to 6633
  -39.5505    9.9254  -22.7029 LP  0  0  0  0  0  0  0  0  0  0  0  0  # atno 20748 bound_to 6633
  -41.7782   12.6350  -30.7608 LP  0  0  0  0  0  0  0  0  0  0  0  0  # atno 20749 bound_to 15187
  -41.4513   13.3036  -29.1968 LP  0  0  0  0  0  0  0  0  0  0  0  0  # atno 20750 bound_to 15187
  -38.4800   11.6593  -31.8374 LP  0  0  0  0  0  0  0  0  0  0  0  0  # atno 20751 bound_to 15335
  -39.5642   11.8166  -33.1790 LP  0  0  0  0  0  0  0  0  0  0  0  0  # atno 20752 bound_to 15335

> <Gold.Score>
     Fitness  S(hb_ext) S(vdw_ext)  S(hb_int)    S(int)      intcor
     33.82       1.75      23.83       0.00      -0.69      -0.77

> <Gold.Goldscore.Fitness>
33.8242

> <Gold.Goldscore.Internal.Vdw>
-0.9107

> <Gold.Goldscore.Internal.Torsion>
-0.5461

> <Gold.Goldscore.External.Vdw>
23.8291

> <Gold.Goldscore.Internal.HBond>
0.0000

> <Gold.Goldscore.External.HBond>
1.7508

> <Gold.Goldscore.Internal.Correction>
-0.7653

> <Gold.Goldscore.Hbonds>
donor molecule, donor type, donor heavy atom, donor atom, acceptor molecule, acceptor atom, score
      P1  H 14930 14987       L1    11  0.83
      L1  H    10    23       P1 14669  0.05

> <Gold.Goldscore.Internal.Vdw.Weighted>
-0.9107

> <Gold.Goldscore.Internal.Torsion.Weighted>
-0.5461

> <Gold.Goldscore.External.Vdw.Weighted>
32.7650

> <Gold.Goldscore.Internal.HBond.Weighted>
0.0000

> <Gold.Goldscore.External.HBond.Weighted>
1.7508

> <Gold.Goldscore.Internal.Correction.Weighted>
-0.7653

> <Gold.Rescore>
     Score     S(PLP)   S(hbond)     S(cho)   S(metal)  DE(clash)   DE(tors)     intcor
     -1.03       1.65       0.70       0.00       0.00       1.41       0.04       ----

> <Gold.PLP.Fitness>
-1.0277

> <Gold.PLP.PLP>
1.6507

> <Gold.PLP.part.hbond>
-2.4773

> <Gold.PLP.part.metal>
0.0000

> <Gold.PLP.part.buried>
18.3507

> <Gold.PLP.part.nonpolar>
-26.6189

> <Gold.PLP.part.repulsive>
9.4780

> <Gold.PLP.ligand.clash>
1.4149

> <Gold.PLP.ligand.torsion>
0.0364

> <Gold.PLP.Chemscore.Hbond>
0.7036

> <Gold.PLP.Chemscore.CHOScore>
0.0000

> <Gold.PLP.Chemscore.Metal>
0.0000

> <Gold.Chemscore.Hbonds>
donor molecule, donor type, donor heavy atom, donor atom, acceptor molecule, acceptor atom, score
      L1  H    10    23       P1 14669  0.50
      P1  H 14930 14987       L1    11  1.00

> <Gold.PLP.Chemscore.Internal.Correction>
   9.000000E+99

