#       Name:                CT1002167954
#       Creating user name   hitesit
#       Creation time:       Sun Apr 16 20:36:23 2023


#       File generated by GOLD software.
#

@<TRIPOS>MOLECULE
CT1002167954|ligand_prepared|mol2|1|dock5
    29    30     1
SMALL
NO_CHARGES


@<TRIPOS>ATOM
      1 C1         228.7474   1.2123  44.0920 C.3            1 RES1               0.0000
      2 C2         228.3376   2.5100  44.8178 C.ar           1 RES1               0.0000
      3 C3         227.9464   0.0872  44.7409 C.2            1 RES1               0.0000
      4 C4         228.4308   1.4304  42.6166 C.2            1 RES1               0.0000
      5 C5         230.2522   0.8771  44.2133 C.3            1 RES1               0.0000
      6 C6         229.0300   3.6962  44.5936 C.ar           1 RES1               0.0000
      7 C7         227.2696   2.5372  45.7106 C.ar           1 RES1               0.0000
      8 N8         226.9081  -0.4399  44.0311 N.am           1 RES1               0.0000
      9 O9         228.1972  -0.3044  45.8740 O.2            1 RES1               0.0000
     10 N10        227.4524   0.6571  42.0486 N.am           1 RES1               0.0000
     11 O11        229.0082   2.2764  41.9449 O.2            1 RES1               0.0000
     12 C12        230.6429  -0.4361  43.5537 C.3            1 RES1               0.0000
     13 C13        228.6662   4.8678  45.2364 C.ar           1 RES1               0.0000
     14 C14        226.9075   3.7099  46.3526 C.ar           1 RES1               0.0000
     15 C15        226.6555  -0.2469  42.6967 C.2            1 RES1               0.0000
     16 C16        227.6045   4.8756  46.1159 C.ar           1 RES1               0.0000
     17 O17        225.7597  -0.8649  42.1286 O.2            1 RES1               0.0000
     18 H18        230.8325   1.6881  43.7563 H              1 RES1               0.0000
     19 H19        230.5192   0.8314  45.2763 H              1 RES1               0.0000
     20 H20        229.8698   3.7088  43.9068 H              1 RES1               0.0000
     21 H21        226.7075   1.6318  45.9130 H              1 RES1               0.0000
     22 H22        226.2593  -1.0324  44.5394 H              1 RES1               0.0000
     23 H23        227.3046   0.7653  41.0502 H              1 RES1               0.0000
     24 H24        231.7086  -0.6231  43.6680 H              1 RES1               0.0000
     25 H25        230.1030  -1.2681  44.0010 H              1 RES1               0.0000
     26 H26        230.4145  -0.4165  42.4901 H              1 RES1               0.0000
     27 H27        229.2188   5.7822  45.0478 H              1 RES1               0.0000
     28 H28        226.0717   3.7113  47.0444 H              1 RES1               0.0000
     29 H29        227.3194   5.7936  46.6191 H              1 RES1               0.0000
@<TRIPOS>BOND
    1    1    2 1     
    2    1    3 1     
    3    1    4 1     
    4    1    5 1     
    5    2    6 ar    
    6    2    7 ar    
    7    3    8 1     
    8    3    9 2     
    9    4   10 1     
   10    4   11 2     
   11    5   12 1     
   12    5   18 1     
   13    5   19 1     
   14    6   13 ar    
   15    6   20 1     
   16    7   14 ar    
   17    7   21 1     
   18    8   15 1     
   19    8   22 1     
   20   10   15 1     
   21   10   23 1     
   22   12   24 1     
   23   12   25 1     
   24   12   26 1     
   25   13   16 ar    
   26   13   27 1     
   27   14   16 ar    
   28   14   28 1     
   29   15   17 2     
   30   16   29 1     
@<TRIPOS>SUBSTRUCTURE
      1 RES1           1
@<TRIPOS>SET
DONOR_HYDROGENS      STATIC     ATOMS    <user>   **** ""
2 22 23
ATOM$RED        STATIC     ATOMS    COLORGROUP SYSTEM
2 22 23
@<TRIPOS>COMMENT
> <Gold.Version>
2022.3.0

> <Gold.Id.Protein>
unknown|4d1n_clean|pdb

> <Gold.Protein.RotatedTorsions>
[ 1594 1544 1543 1542 ] final  -19.35 input   60.00 | X-H torsion
[ 4304 4284 4283 4280 ] final   48.48 input   59.98 | X-H torsion
[ 4344 4323 4324 4325 ] final   55.24 input  122.59 | X-H torsion
[ 4348 4328 4327 4324 ] final   22.62 input   59.99 | X-H torsion
[ 6708 6672 6671 6669 ] final  -99.89 input   60.02 | X-H torsion
[ 23762 23712 23713 23714 ] final   91.08 input   58.31 | X-H torsion
[ 23800 23787 23788 23789 ] final   31.09 input  -92.91 | X-H torsion
[ 6926 6895 6896 6897 ] final   12.34 input  109.21 | X-H torsion
[ 4168 4129 4130 4131 ] final -121.61 input  118.46 | X-H torsion
[ 4085 4052 4053 4054 ] final   46.70 input  111.71 | X-H torsion
[ 1354 1313 1314 1315 ] final   62.16 input  117.91 | X-H torsion
[ 1584 1536 1537 1538 ] final  -18.68 input   95.51 | X-H torsion
[ 23828 23815 23816 23817 ] final -174.66 input  -25.33 | X-H torsion
[ 1288 1260 1258 1255 ] final   -3.78 input   59.99 | X-H torsion
[ 25744 25716 25717 25718 ] final -144.09 input   66.04 | X-H torsion
[ 27193 4055 4054 4053 ] final    3.63 input   -0.00 | X-H torsion
[ 27195 4282 4281 4280 ] final   28.06 input    0.00 | X-H torsion
[ 27200 4326 4325 4324 ] final  138.96 input    0.00 | X-H torsion
[ 27211 23656 23655 23654 ] final  162.52 input   -0.00 | X-H torsion
[ 27214 23715 23714 23713 ] final -118.81 input    0.00 | X-H torsion
[ 27218 6898 6897 6896 ] final  179.75 input   -0.00 | X-H torsion
[ 27220 25719 25718 25717 ] final  -33.03 input   -0.00 | X-H torsion
[ 27226 1316 1315 1314 ] final   77.17 input    0.00 | X-H torsion
[ 27230 23818 23817 23816 ] final  -75.45 input    0.00 | X-H torsion
[ 27232 1257 1256 1255 ] final -110.35 input    0.00 | X-H torsion

> <Gold.Protein.ActiveResidues>
 ARG304  THR320  LEU321  LEU323  LYS324  GLN369  TYR370  SER372  SER373  TYR408 
 HIS412  ARG415  ASN416  TRP426  GLU670  CYS673  ARG674  GLY675  GLY676  TYR703 
 LEU705  THR706  PRO707 

> <Gold.Protein.RotatedAtoms>
  221.9786    5.1983   36.5321 H   0  0  0  0  0  0  0  0  0  0  0  0  # atno 1288 bound_to 1260
  223.4814    7.7835   37.0331 H   0  0  0  0  0  0  0  0  0  0  0  0  # atno 1354 bound_to 1313
  223.3914   10.0406   43.0851 H   0  0  0  0  0  0  0  0  0  0  0  0  # atno 1584 bound_to 1536
  223.7691    4.1598   45.7382 H   0  0  0  0  0  0  0  0  0  0  0  0  # atno 1594 bound_to 1544
  222.3054    4.1263   44.9613 H   0  0  0  0  0  0  0  0  0  0  0  0  # atno 1595 bound_to 1544
  223.1024    2.7098   45.2895 H   0  0  0  0  0  0  0  0  0  0  0  0  # atno 1596 bound_to 1544
  228.9168    0.5887   51.6371 H   0  0  0  0  0  0  0  0  0  0  0  0  # atno 4085 bound_to 4052
  230.3617   -0.1697   49.5185 H   0  0  0  0  0  0  0  0  0  0  0  0  # atno 4168 bound_to 4129
  225.0591   -3.7383   46.6900 H   0  0  0  0  0  0  0  0  0  0  0  0  # atno 4304 bound_to 4284
  229.0764   -4.1104   47.9037 H   0  0  0  0  0  0  0  0  0  0  0  0  # atno 4344 bound_to 4323
  231.7160   -5.0100   46.7392 H   0  0  0  0  0  0  0  0  0  0  0  0  # atno 4348 bound_to 4328
  231.3150   -0.3958   46.7103 H   0  0  0  0  0  0  0  0  0  0  0  0  # atno 6708 bound_to 6672
  238.9669    3.0308   44.0015 H   0  0  0  0  0  0  0  0  0  0  0  0  # atno 6926 bound_to 6895
  227.5176    0.6630   34.9171 H   0  0  0  0  0  0  0  0  0  0  0  0  # atno 23762 bound_to 23712
  226.2125    2.8514   36.0173 H   0  0  0  0  0  0  0  0  0  0  0  0  # atno 23800 bound_to 23787
  225.1639    4.9313   34.5979 H   0  0  0  0  0  0  0  0  0  0  0  0  # atno 23828 bound_to 23815
  232.1524   10.3211   45.6140 H   0  0  0  0  0  0  0  0  0  0  0  0  # atno 25744 bound_to 25716
  228.6980   -1.3169   47.6390 LP  0  0  0  0  0  0  0  0  0  0  0  0  # atno 27193 bound_to 4055
  230.0488   -2.2349   48.2157 LP  0  0  0  0  0  0  0  0  0  0  0  0  # atno 27194 bound_to 4055
  226.2437   -5.7155   46.3996 LP  0  0  0  0  0  0  0  0  0  0  0  0  # atno 27195 bound_to 4282
  227.8812   -6.0824   45.9707 LP  0  0  0  0  0  0  0  0  0  0  0  0  # atno 27196 bound_to 4282
  226.2856   -2.8034   46.1703 LP  0  0  0  0  0  0  0  0  0  0  0  0  # atno 27197 bound_to 4284
  224.9006   -2.1187   46.6990 LP  0  0  0  0  0  0  0  0  0  0  0  0  # atno 27198 bound_to 4284
  227.8727   -3.5491   46.7656 LP  0  0  0  0  0  0  0  0  0  0  0  0  # atno 27199 bound_to 4323
  231.0421   -7.0372   44.7162 LP  0  0  0  0  0  0  0  0  0  0  0  0  # atno 27200 bound_to 4326
  229.6051   -6.3125   44.0762 LP  0  0  0  0  0  0  0  0  0  0  0  0  # atno 27201 bound_to 4326
  231.8888   -3.5967   47.5273 LP  0  0  0  0  0  0  0  0  0  0  0  0  # atno 27202 bound_to 4328
  232.7982   -3.9162   46.2091 LP  0  0  0  0  0  0  0  0  0  0  0  0  # atno 27203 bound_to 4328
  231.9614   -0.0257   45.2632 LP  0  0  0  0  0  0  0  0  0  0  0  0  # atno 27204 bound_to 6672
  231.9790    1.0711   46.4729 LP  0  0  0  0  0  0  0  0  0  0  0  0  # atno 27205 bound_to 6672
  226.4088   -0.9931   37.6621 LP  0  0  0  0  0  0  0  0  0  0  0  0  # atno 27211 bound_to 23656
  225.9551   -2.3810   36.7306 LP  0  0  0  0  0  0  0  0  0  0  0  0  # atno 27212 bound_to 23656
  226.3329   -0.3992   35.6469 LP  0  0  0  0  0  0  0  0  0  0  0  0  # atno 27213 bound_to 23712
  224.6243    3.0306   38.1874 LP  0  0  0  0  0  0  0  0  0  0  0  0  # atno 27214 bound_to 23715
  226.2560    3.6060   38.2673 LP  0  0  0  0  0  0  0  0  0  0  0  0  # atno 27215 bound_to 23715
  225.1248    1.6623   35.3413 LP  0  0  0  0  0  0  0  0  0  0  0  0  # atno 27216 bound_to 23787
  238.1056    1.5755   43.5814 LP  0  0  0  0  0  0  0  0  0  0  0  0  # atno 27217 bound_to 6895
  236.6782    6.5285   42.4829 LP  0  0  0  0  0  0  0  0  0  0  0  0  # atno 27218 bound_to 6898
  235.8564    5.1147   41.9119 LP  0  0  0  0  0  0  0  0  0  0  0  0  # atno 27219 bound_to 6898
  231.1754    7.2590   47.1770 LP  0  0  0  0  0  0  0  0  0  0  0  0  # atno 27220 bound_to 25719
  232.1263    6.0317   46.4091 LP  0  0  0  0  0  0  0  0  0  0  0  0  # atno 27221 bound_to 25719
  229.8408   -0.8410   51.0419 LP  0  0  0  0  0  0  0  0  0  0  0  0  # atno 27222 bound_to 4129
  227.2129    0.6172   51.2667 LP  0  0  0  0  0  0  0  0  0  0  0  0  # atno 27223 bound_to 4052
  222.6559    6.4998   37.8799 LP  0  0  0  0  0  0  0  0  0  0  0  0  # atno 27225 bound_to 1313
  225.8012    8.4142   41.0501 LP  0  0  0  0  0  0  0  0  0  0  0  0  # atno 27226 bound_to 1316
  224.1364    8.6515   41.4648 LP  0  0  0  0  0  0  0  0  0  0  0  0  # atno 27227 bound_to 1316
  223.1414    8.3633   42.6616 LP  0  0  0  0  0  0  0  0  0  0  0  0  # atno 27228 bound_to 1536
  226.7052    4.3896   35.2126 LP  0  0  0  0  0  0  0  0  0  0  0  0  # atno 27229 bound_to 23815
  228.7891    5.2121   36.0907 LP  0  0  0  0  0  0  0  0  0  0  0  0  # atno 27230 bound_to 23818
  229.4135    4.8593   34.5141 LP  0  0  0  0  0  0  0  0  0  0  0  0  # atno 27231 bound_to 23818
  221.9803    8.2544   39.8344 LP  0  0  0  0  0  0  0  0  0  0  0  0  # atno 27232 bound_to 1257
  221.3083    6.6591   39.7768 LP  0  0  0  0  0  0  0  0  0  0  0  0  # atno 27233 bound_to 1257
  220.6436    4.3369   36.1789 LP  0  0  0  0  0  0  0  0  0  0  0  0  # atno 27234 bound_to 1260
  221.2686    4.2979   37.6871 LP  0  0  0  0  0  0  0  0  0  0  0  0  # atno 27235 bound_to 1260

> <Gold.Score>
     Fitness  S(hb_ext) S(vdw_ext)  S(hb_int)    S(int)      intcor
     35.58       5.59      23.03       0.00      -1.69      -0.76

> <Gold.Goldscore.Fitness>
35.5757

> <Gold.Goldscore.Internal.Vdw>
-2.0654

> <Gold.Goldscore.Internal.Torsion>
-0.3811

> <Gold.Goldscore.External.Vdw>
23.0339

> <Gold.Goldscore.Internal.HBond>
0.0000

> <Gold.Goldscore.External.HBond>
5.5921

> <Gold.Goldscore.Internal.Correction>
-0.7585

> <Gold.Goldscore.Hbonds>
donor molecule, donor type, donor heavy atom, donor atom, acceptor molecule, acceptor atom, score
      P1  H 23719 23770       L1    11  0.87
      P1  H 23722 23774       L1    11  0.06

> <Gold.Goldscore.Internal.Vdw.Weighted>
-2.0654

> <Gold.Goldscore.Internal.Torsion.Weighted>
-0.3811

> <Gold.Goldscore.External.Vdw.Weighted>
31.6716

> <Gold.Goldscore.Internal.HBond.Weighted>
0.0000

> <Gold.Goldscore.External.HBond.Weighted>
5.5921

> <Gold.Goldscore.Internal.Correction.Weighted>
-0.7585

> <Gold.Rescore>
     Score     S(PLP)   S(hbond)     S(cho)   S(metal)  DE(clash)   DE(tors)     intcor
     36.59     -35.49       0.85       0.00       0.00       1.37       0.03       ----

> <Gold.PLP.Fitness>
36.5925

> <Gold.PLP.PLP>
-35.4901

> <Gold.PLP.part.hbond>
-1.4159

> <Gold.PLP.part.metal>
0.0000

> <Gold.PLP.part.buried>
-6.3300

> <Gold.PLP.part.nonpolar>
-29.5397

> <Gold.PLP.part.repulsive>
0.1393

> <Gold.PLP.ligand.clash>
1.3740

> <Gold.PLP.ligand.torsion>
0.0338

> <Gold.PLP.Chemscore.Hbond>
0.8480

> <Gold.PLP.Chemscore.CHOScore>
0.0000

> <Gold.PLP.Chemscore.Metal>
0.0000

> <Gold.Chemscore.Hbonds>
donor molecule, donor type, donor heavy atom, donor atom, acceptor molecule, acceptor atom, score
      P1  H 23719 23770       L1    11  1.00
      P1  H 23722 23774       L1    11  0.19

> <Gold.PLP.Chemscore.Internal.Correction>
   9.000000E+99

