#       Name:                CT1002167954
#       Creating user name   hitesit
#       Creation time:       Sun Apr 16 20:36:22 2023


#       File generated by GOLD software.
#

@<TRIPOS>MOLECULE
CT1002167954|ligand_prepared|mol2|1|dock3
    29    30     1
SMALL
NO_CHARGES


@<TRIPOS>ATOM
      1 C1         228.1905   1.4504  44.4330 C.3            1 RES1               0.0000
      2 C2         228.3279   2.8837  44.9858 C.ar           1 RES1               0.0000
      3 C3         227.0705   0.7890  45.2308 C.2            1 RES1               0.0000
      4 C4         227.8931   1.5939  42.9445 C.2            1 RES1               0.0000
      5 C5         229.4713   0.5970  44.5842 C.3            1 RES1               0.0000
      6 C6         229.4568   3.6469  44.7033 C.ar           1 RES1               0.0000
      7 C7         227.3347   3.4562  45.7759 C.ar           1 RES1               0.0000
      8 N8         225.8727   0.6052  44.6053 N.am           1 RES1               0.0000
      9 O9         227.2238   0.4696  46.4033 O.2            1 RES1               0.0000
     10 N10        226.6685   1.1779  42.4914 N.am           1 RES1               0.0000
     11 O11        228.7018   2.0787  42.1627 O.2            1 RES1               0.0000
     12 C12        229.2714  -0.8731  44.2510 C.3            1 RES1               0.0000
     13 C13        229.5868   4.9369  45.1905 C.ar           1 RES1               0.0000
     14 C14        227.4668   4.7463  46.2624 C.ar           1 RES1               0.0000
     15 C15        225.6334   0.7185  43.2593 C.2            1 RES1               0.0000
     16 C16        228.5919   5.4876  45.9699 C.ar           1 RES1               0.0000
     17 O17        224.5426   0.4149  42.7850 O.2            1 RES1               0.0000
     18 H18        230.2478   1.0058  43.9259 H              1 RES1               0.0000
     19 H19        229.8304   0.6791  45.6175 H              1 RES1               0.0000
     20 H20        230.2512   3.2295  44.0936 H              1 RES1               0.0000
     21 H21        226.4414   2.8913  46.0197 H              1 RES1               0.0000
     22 H22        225.0816   0.3610  45.1926 H              1 RES1               0.0000
     23 H23        226.5144   1.2140  41.4888 H              1 RES1               0.0000
     24 H24        230.2004  -1.4261  44.3734 H              1 RES1               0.0000
     25 H25        228.5235  -1.3183  44.9038 H              1 RES1               0.0000
     26 H26        228.9383  -0.9936  43.2223 H              1 RES1               0.0000
     27 H27        230.4748   5.5156  44.9586 H              1 RES1               0.0000
     28 H28        226.6816   5.1755  46.8760 H              1 RES1               0.0000
     29 H29        228.6938   6.4983  46.3512 H              1 RES1               0.0000
@<TRIPOS>BOND
    1    1    2 1     
    2    1    3 1     
    3    1    4 1     
    4    1    5 1     
    5    2    6 ar    
    6    2    7 ar    
    7    3    8 1     
    8    3    9 2     
    9    4   10 1     
   10    4   11 2     
   11    5   12 1     
   12    5   18 1     
   13    5   19 1     
   14    6   13 ar    
   15    6   20 1     
   16    7   14 ar    
   17    7   21 1     
   18    8   15 1     
   19    8   22 1     
   20   10   15 1     
   21   10   23 1     
   22   12   24 1     
   23   12   25 1     
   24   12   26 1     
   25   13   16 ar    
   26   13   27 1     
   27   14   16 ar    
   28   14   28 1     
   29   15   17 2     
   30   16   29 1     
@<TRIPOS>SUBSTRUCTURE
      1 RES1           1
@<TRIPOS>SET
DONOR_HYDROGENS      STATIC     ATOMS    <user>   **** ""
2 22 23
ATOM$RED        STATIC     ATOMS    COLORGROUP SYSTEM
2 22 23
@<TRIPOS>COMMENT
> <Gold.Version>
2022.3.0

> <Gold.Id.Protein>
unknown|4d1n_clean|pdb

> <Gold.Protein.RotatedTorsions>
[ 1594 1544 1543 1542 ] final    9.86 input   60.00 | X-H torsion
[ 4304 4284 4283 4280 ] final  161.41 input   59.98 | X-H torsion
[ 4344 4323 4324 4325 ] final  174.88 input  122.59 | X-H torsion
[ 4348 4328 4327 4324 ] final   61.65 input   59.99 | X-H torsion
[ 6708 6672 6671 6669 ] final  -44.51 input   60.02 | X-H torsion
[ 23762 23712 23713 23714 ] final  178.02 input   58.31 | X-H torsion
[ 23800 23787 23788 23789 ] final   85.67 input  -92.91 | X-H torsion
[ 6926 6895 6896 6897 ] final  -64.63 input  109.21 | X-H torsion
[ 4168 4129 4130 4131 ] final   90.90 input  118.46 | X-H torsion
[ 4085 4052 4053 4054 ] final -178.96 input  111.71 | X-H torsion
[ 1354 1313 1314 1315 ] final -143.47 input  117.91 | X-H torsion
[ 1584 1536 1537 1538 ] final  -25.33 input   95.51 | X-H torsion
[ 23828 23815 23816 23817 ] final  177.12 input  -25.33 | X-H torsion
[ 1288 1260 1258 1255 ] final   26.08 input   59.99 | X-H torsion
[ 25744 25716 25717 25718 ] final   44.36 input   66.04 | X-H torsion
[ 27193 4055 4054 4053 ] final  -90.04 input   -0.00 | X-H torsion
[ 27195 4282 4281 4280 ] final -161.83 input    0.00 | X-H torsion
[ 27200 4326 4325 4324 ] final  -54.69 input    0.00 | X-H torsion
[ 27211 23656 23655 23654 ] final -143.74 input   -0.00 | X-H torsion
[ 27214 23715 23714 23713 ] final  -10.53 input    0.00 | X-H torsion
[ 27218 6898 6897 6896 ] final  120.81 input   -0.00 | X-H torsion
[ 27220 25719 25718 25717 ] final  -88.76 input   -0.00 | X-H torsion
[ 27226 1316 1315 1314 ] final   -8.68 input    0.00 | X-H torsion
[ 27230 23818 23817 23816 ] final -171.97 input    0.00 | X-H torsion
[ 27232 1257 1256 1255 ] final  -77.38 input    0.00 | X-H torsion

> <Gold.Protein.ActiveResidues>
 ARG304  THR320  LEU321  LEU323  LYS324  GLN369  TYR370  SER372  SER373  TYR408 
 HIS412  ARG415  ASN416  TRP426  GLU670  CYS673  ARG674  GLY675  GLY676  TYR703 
 LEU705  THR706  PRO707 

> <Gold.Protein.RotatedAtoms>
  222.0666    5.1095   36.9983 H   0  0  0  0  0  0  0  0  0  0  0  0  # atno 1288 bound_to 1260
  222.8810    6.2952   37.6398 H   0  0  0  0  0  0  0  0  0  0  0  0  # atno 1354 bound_to 1313
  223.3078   10.0320   43.1441 H   0  0  0  0  0  0  0  0  0  0  0  0  # atno 1584 bound_to 1536
  223.4543    4.4958   45.5938 H   0  0  0  0  0  0  0  0  0  0  0  0  # atno 1594 bound_to 1544
  222.2132    3.6593   44.8817 H   0  0  0  0  0  0  0  0  0  0  0  0  # atno 1595 bound_to 1544
  223.5095    2.8409   45.5135 H   0  0  0  0  0  0  0  0  0  0  0  0  # atno 1596 bound_to 1544
  227.4839    1.2373   51.2640 H   0  0  0  0  0  0  0  0  0  0  0  0  # atno 4085 bound_to 4052
  230.1911   -0.5207   51.1571 H   0  0  0  0  0  0  0  0  0  0  0  0  # atno 4168 bound_to 4129
  224.8222   -2.1961   46.7356 H   0  0  0  0  0  0  0  0  0  0  0  0  # atno 4304 bound_to 4284
  228.4859   -2.9846   47.0465 H   0  0  0  0  0  0  0  0  0  0  0  0  # atno 4344 bound_to 4323
  232.1372   -4.9393   46.2824 H   0  0  0  0  0  0  0  0  0  0  0  0  # atno 4348 bound_to 4328
  231.5121    0.3855   47.0395 H   0  0  0  0  0  0  0  0  0  0  0  0  # atno 6708 bound_to 6672
  238.8821    2.5513   43.0287 H   0  0  0  0  0  0  0  0  0  0  0  0  # atno 6926 bound_to 6895
  227.6015   -0.3288   35.6312 H   0  0  0  0  0  0  0  0  0  0  0  0  # atno 23762 bound_to 23712
  225.7149    2.4686   36.5303 H   0  0  0  0  0  0  0  0  0  0  0  0  # atno 23800 bound_to 23787
  225.1426    4.9740   34.7146 H   0  0  0  0  0  0  0  0  0  0  0  0  # atno 23828 bound_to 23815
  231.1208    8.9875   46.1374 H   0  0  0  0  0  0  0  0  0  0  0  0  # atno 25744 bound_to 25716
  228.8788   -2.3234   48.3809 LP  0  0  0  0  0  0  0  0  0  0  0  0  # atno 27193 bound_to 4055
  229.8680   -1.2284   47.4738 LP  0  0  0  0  0  0  0  0  0  0  0  0  # atno 27194 bound_to 4055
  227.8592   -5.9875   45.8575 LP  0  0  0  0  0  0  0  0  0  0  0  0  # atno 27195 bound_to 4282
  226.2657   -5.8104   46.5128 LP  0  0  0  0  0  0  0  0  0  0  0  0  # atno 27196 bound_to 4282
  225.1568   -3.7863   46.6496 LP  0  0  0  0  0  0  0  0  0  0  0  0  # atno 27197 bound_to 4284
  226.2679   -2.6884   46.1737 LP  0  0  0  0  0  0  0  0  0  0  0  0  # atno 27198 bound_to 4284
  228.4467   -4.6437   47.5990 LP  0  0  0  0  0  0  0  0  0  0  0  0  # atno 27199 bound_to 4323
  229.5142   -6.4769   44.1602 LP  0  0  0  0  0  0  0  0  0  0  0  0  # atno 27200 bound_to 4326
  231.1330   -6.8728   44.6322 LP  0  0  0  0  0  0  0  0  0  0  0  0  # atno 27201 bound_to 4326
  231.5494   -4.1260   47.5636 LP  0  0  0  0  0  0  0  0  0  0  0  0  # atno 27202 bound_to 4328
  232.7133   -3.4582   46.6330 LP  0  0  0  0  0  0  0  0  0  0  0  0  # atno 27203 bound_to 4328
  231.5525   -0.6202   45.7604 LP  0  0  0  0  0  0  0  0  0  0  0  0  # atno 27204 bound_to 6672
  232.1896    0.8789   45.6443 LP  0  0  0  0  0  0  0  0  0  0  0  0  # atno 27205 bound_to 6672
  225.6789   -1.0063   37.3794 LP  0  0  0  0  0  0  0  0  0  0  0  0  # atno 27211 bound_to 23656
  226.6851   -2.3678   37.0132 LP  0  0  0  0  0  0  0  0  0  0  0  0  # atno 27212 bound_to 23656
  226.2518    0.5590   34.9570 LP  0  0  0  0  0  0  0  0  0  0  0  0  # atno 27213 bound_to 23712
  225.8970    2.7718   38.7199 LP  0  0  0  0  0  0  0  0  0  0  0  0  # atno 27214 bound_to 23715
  224.9833    3.8648   37.7348 LP  0  0  0  0  0  0  0  0  0  0  0  0  # atno 27215 bound_to 23715
  225.6108    2.0361   34.8403 LP  0  0  0  0  0  0  0  0  0  0  0  0  # atno 27216 bound_to 23787
  238.1899    2.0519   44.5478 LP  0  0  0  0  0  0  0  0  0  0  0  0  # atno 27217 bound_to 6895
  235.9446    6.2941   42.8475 LP  0  0  0  0  0  0  0  0  0  0  0  0  # atno 27218 bound_to 6898
  236.5900    5.3491   41.5473 LP  0  0  0  0  0  0  0  0  0  0  0  0  # atno 27219 bound_to 6898
  231.4519    6.6521   47.6359 LP  0  0  0  0  0  0  0  0  0  0  0  0  # atno 27220 bound_to 25719
  231.8499    6.6386   45.9502 LP  0  0  0  0  0  0  0  0  0  0  0  0  # atno 27221 bound_to 25719
  230.0093   -0.4942   49.4225 LP  0  0  0  0  0  0  0  0  0  0  0  0  # atno 27222 bound_to 4129
  228.6295   -0.0241   51.6356 LP  0  0  0  0  0  0  0  0  0  0  0  0  # atno 27223 bound_to 4052
  223.2467    7.9641   37.2830 LP  0  0  0  0  0  0  0  0  0  0  0  0  # atno 27225 bound_to 1313
  224.9205    7.6690   41.2962 LP  0  0  0  0  0  0  0  0  0  0  0  0  # atno 27226 bound_to 1316
  225.0171    9.3967   41.2187 LP  0  0  0  0  0  0  0  0  0  0  0  0  # atno 27227 bound_to 1316
  223.2230    8.3717   42.6041 LP  0  0  0  0  0  0  0  0  0  0  0  0  # atno 27228 bound_to 1536
  226.7261    4.3476   35.0979 LP  0  0  0  0  0  0  0  0  0  0  0  0  # atno 27229 bound_to 23815
  229.8193    5.5149   35.3715 LP  0  0  0  0  0  0  0  0  0  0  0  0  # atno 27230 bound_to 23818
  228.3832    4.5565   35.2333 LP  0  0  0  0  0  0  0  0  0  0  0  0  # atno 27231 bound_to 23818
  221.5138    8.3048   39.6882 LP  0  0  0  0  0  0  0  0  0  0  0  0  # atno 27232 bound_to 1257
  221.7748    6.6087   39.9230 LP  0  0  0  0  0  0  0  0  0  0  0  0  # atno 27233 bound_to 1257
  220.9365    4.6328   35.9285 LP  0  0  0  0  0  0  0  0  0  0  0  0  # atno 27234 bound_to 1260
  220.8871    4.0914   37.4683 LP  0  0  0  0  0  0  0  0  0  0  0  0  # atno 27235 bound_to 1260

> <Gold.Score>
     Fitness  S(hb_ext) S(vdw_ext)  S(hb_int)    S(int)      intcor
     37.38       6.13      23.63       0.00      -1.25      -0.76

> <Gold.Goldscore.Fitness>
37.3750

> <Gold.Goldscore.Internal.Vdw>
-1.4934

> <Gold.Goldscore.Internal.Torsion>
-0.5127

> <Gold.Goldscore.External.Vdw>
23.6284

> <Gold.Goldscore.Internal.HBond>
0.0000

> <Gold.Goldscore.External.HBond>
6.1335

> <Gold.Goldscore.Internal.Correction>
-0.7585

> <Gold.Goldscore.Hbonds>
donor molecule, donor type, donor heavy atom, donor atom, acceptor molecule, acceptor atom, score
      P1  H 23719 23770       L1    11  1.00
      P1  H 23722 23774       L1    11  0.02

> <Gold.Goldscore.Internal.Vdw.Weighted>
-1.4934

> <Gold.Goldscore.Internal.Torsion.Weighted>
-0.5127

> <Gold.Goldscore.External.Vdw.Weighted>
32.4891

> <Gold.Goldscore.Internal.HBond.Weighted>
0.0000

> <Gold.Goldscore.External.HBond.Weighted>
6.1335

> <Gold.Goldscore.Internal.Correction.Weighted>
-0.7585

> <Gold.Rescore>
     Score     S(PLP)   S(hbond)     S(cho)   S(metal)  DE(clash)   DE(tors)     intcor
     34.92     -34.25       0.74       0.00       0.00       0.96       0.29       ----

> <Gold.PLP.Fitness>
34.9150

> <Gold.PLP.PLP>
-34.2524

> <Gold.PLP.part.hbond>
-1.1774

> <Gold.PLP.part.metal>
0.0000

> <Gold.PLP.part.buried>
-3.6482

> <Gold.PLP.part.nonpolar>
-31.0011

> <Gold.PLP.part.repulsive>
0.2055

> <Gold.PLP.ligand.clash>
0.9588

> <Gold.PLP.ligand.torsion>
0.2933

> <Gold.PLP.Chemscore.Hbond>
0.7360

> <Gold.PLP.Chemscore.CHOScore>
0.0000

> <Gold.PLP.Chemscore.Metal>
0.0000

> <Gold.Chemscore.Hbonds>
donor molecule, donor type, donor heavy atom, donor atom, acceptor molecule, acceptor atom, score
      P1  H 23719 23770       L1    11  0.94

> <Gold.PLP.Chemscore.Internal.Correction>
   9.000000E+99

