#       Name:                CT1002167954
#       Creating user name   hitesit
#       Creation time:       Sun Apr 16 20:36:26 2023


#       File generated by GOLD software.
#

@<TRIPOS>MOLECULE
CT1002167954|ligand_prepared|mol2|1|dock9
    29    30     1
SMALL
NO_CHARGES


@<TRIPOS>ATOM
      1 C1         228.2493   1.2922  44.1466 C.3            1 RES1               0.0000
      2 C2         228.0745   2.7680  44.5590 C.ar           1 RES1               0.0000
      3 C3         227.5671   1.1427  42.7900 C.2            1 RES1               0.0000
      4 C4         229.7514   1.0318  44.1197 C.2            1 RES1               0.0000
      5 C5         227.6080   0.2879  45.1323 C.3            1 RES1               0.0000
      6 C6         227.5259   3.0984  45.7946 C.ar           1 RES1               0.0000
      7 C7         228.4590   3.8083  43.7172 C.ar           1 RES1               0.0000
      8 N8         228.3657   1.0200  41.6913 N.am           1 RES1               0.0000
      9 O9         226.3474   1.1718  42.6815 O.2            1 RES1               0.0000
     10 N10        230.3327   0.7507  42.9111 N.am           1 RES1               0.0000
     11 O11        230.4395   1.0839  45.1317 O.2            1 RES1               0.0000
     12 C12        227.6800  -1.1582  44.6677 C.3            1 RES1               0.0000
     13 C13        227.3699   4.4206  46.1761 C.ar           1 RES1               0.0000
     14 C14        228.3019   5.1300  44.1006 C.ar           1 RES1               0.0000
     15 C15        229.7132   0.7633  41.6912 C.2            1 RES1               0.0000
     16 C16        227.7582   5.4372  45.3297 C.ar           1 RES1               0.0000
     17 O17        230.3151   0.5537  40.6419 O.2            1 RES1               0.0000
     18 H18        228.1138   0.3728  46.1020 H              1 RES1               0.0000
     19 H19        226.5552   0.5597  45.2783 H              1 RES1               0.0000
     20 H20        227.2123   2.3119  46.4729 H              1 RES1               0.0000
     21 H21        228.8880   3.5902  42.7451 H              1 RES1               0.0000
     22 H22        227.9197   1.1293  40.7860 H              1 RES1               0.0000
     23 H23        231.3187   0.5097  42.9218 H              1 RES1               0.0000
     24 H24        227.2159  -1.8207  45.3954 H              1 RES1               0.0000
     25 H25        227.1648  -1.2843  43.7177 H              1 RES1               0.0000
     26 H26        228.7141  -1.4701  44.5365 H              1 RES1               0.0000
     27 H27        226.9402   4.6572  47.1439 H              1 RES1               0.0000
     28 H28        228.6083   5.9268  43.4309 H              1 RES1               0.0000
     29 H29        227.6362   6.4730  45.6289 H              1 RES1               0.0000
@<TRIPOS>BOND
    1    1    2 1     
    2    1    3 1     
    3    1    4 1     
    4    1    5 1     
    5    2    6 ar    
    6    2    7 ar    
    7    3    8 1     
    8    3    9 2     
    9    4   10 1     
   10    4   11 2     
   11    5   12 1     
   12    5   18 1     
   13    5   19 1     
   14    6   13 ar    
   15    6   20 1     
   16    7   14 ar    
   17    7   21 1     
   18    8   15 1     
   19    8   22 1     
   20   10   15 1     
   21   10   23 1     
   22   12   24 1     
   23   12   25 1     
   24   12   26 1     
   25   13   16 ar    
   26   13   27 1     
   27   14   16 ar    
   28   14   28 1     
   29   15   17 2     
   30   16   29 1     
@<TRIPOS>SUBSTRUCTURE
      1 RES1           1
@<TRIPOS>SET
DONOR_HYDROGENS      STATIC     ATOMS    <user>   **** ""
2 22 23
ATOM$RED        STATIC     ATOMS    COLORGROUP SYSTEM
2 22 23
@<TRIPOS>COMMENT
> <Gold.Version>
2022.3.0

> <Gold.Id.Protein>
unknown|4d1n_clean|pdb

> <Gold.Protein.RotatedTorsions>
[ 1594 1544 1543 1542 ] final -107.92 input   60.00 | X-H torsion
[ 4304 4284 4283 4280 ] final   38.29 input   59.98 | X-H torsion
[ 4344 4323 4324 4325 ] final  -90.44 input  122.59 | X-H torsion
[ 4348 4328 4327 4324 ] final   62.76 input   59.99 | X-H torsion
[ 6708 6672 6671 6669 ] final  -80.04 input   60.02 | X-H torsion
[ 23762 23712 23713 23714 ] final  -15.82 input   58.31 | X-H torsion
[ 23800 23787 23788 23789 ] final -148.82 input  -92.91 | X-H torsion
[ 6926 6895 6896 6897 ] final   56.17 input  109.21 | X-H torsion
[ 4168 4129 4130 4131 ] final  129.86 input  118.46 | X-H torsion
[ 4085 4052 4053 4054 ] final   -6.33 input  111.71 | X-H torsion
[ 1354 1313 1314 1315 ] final   28.07 input  117.91 | X-H torsion
[ 1584 1536 1537 1538 ] final   89.91 input   95.51 | X-H torsion
[ 23828 23815 23816 23817 ] final  -94.25 input  -25.33 | X-H torsion
[ 1288 1260 1258 1255 ] final  -42.41 input   59.99 | X-H torsion
[ 25744 25716 25717 25718 ] final -171.68 input   66.04 | X-H torsion
[ 27193 4055 4054 4053 ] final  -49.21 input   -0.00 | X-H torsion
[ 27195 4282 4281 4280 ] final   44.17 input    0.00 | X-H torsion
[ 27200 4326 4325 4324 ] final    0.07 input    0.00 | X-H torsion
[ 27211 23656 23655 23654 ] final  172.62 input   -0.00 | X-H torsion
[ 27214 23715 23714 23713 ] final  158.11 input    0.00 | X-H torsion
[ 27218 6898 6897 6896 ] final  -28.22 input   -0.00 | X-H torsion
[ 27220 25719 25718 25717 ] final  -57.38 input   -0.00 | X-H torsion
[ 27226 1316 1315 1314 ] final  -25.63 input    0.00 | X-H torsion
[ 27230 23818 23817 23816 ] final  104.15 input    0.00 | X-H torsion
[ 27232 1257 1256 1255 ] final -123.44 input    0.00 | X-H torsion

> <Gold.Protein.ActiveResidues>
 ARG304  THR320  LEU321  LEU323  LYS324  GLN369  TYR370  SER372  SER373  TYR408 
 HIS412  ARG415  ASN416  TRP426  GLU670  CYS673  ARG674  GLY675  GLY676  TYR703 
 LEU705  THR706  PRO707 

> <Gold.Protein.RotatedAtoms>
  221.6058    5.0844   36.0506 H   0  0  0  0  0  0  0  0  0  0  0  0  # atno 1288 bound_to 1260
  223.1577    8.0064   37.3672 H   0  0  0  0  0  0  0  0  0  0  0  0  # atno 1354 bound_to 1313
  223.9038    8.9441   42.3117 H   0  0  0  0  0  0  0  0  0  0  0  0  # atno 1584 bound_to 1536
  223.5364    2.8605   45.5295 H   0  0  0  0  0  0  0  0  0  0  0  0  # atno 1594 bound_to 1544
  223.4255    4.5135   45.5794 H   0  0  0  0  0  0  0  0  0  0  0  0  # atno 1595 bound_to 1544
  222.2149    3.6220   44.8800 H   0  0  0  0  0  0  0  0  0  0  0  0  # atno 1596 bound_to 1544
  228.5468   -0.1013   51.6404 H   0  0  0  0  0  0  0  0  0  0  0  0  # atno 4085 bound_to 4052
  230.5757   -0.1449   50.9263 H   0  0  0  0  0  0  0  0  0  0  0  0  # atno 4168 bound_to 4129
  225.2052   -3.7943   46.6337 H   0  0  0  0  0  0  0  0  0  0  0  0  # atno 4304 bound_to 4284
  227.7638   -4.0498   46.8334 H   0  0  0  0  0  0  0  0  0  0  0  0  # atno 4344 bound_to 4323
  232.1502   -4.9317   46.2721 H   0  0  0  0  0  0  0  0  0  0  0  0  # atno 4348 bound_to 4328
  231.3444   -0.1459   46.9127 H   0  0  0  0  0  0  0  0  0  0  0  0  # atno 6708 bound_to 6672
  238.6757    2.7620   44.5197 H   0  0  0  0  0  0  0  0  0  0  0  0  # atno 6926 bound_to 6895
  226.1128    0.4410   35.0697 H   0  0  0  0  0  0  0  0  0  0  0  0  # atno 23762 bound_to 23712
  225.1081    1.6530   35.3311 H   0  0  0  0  0  0  0  0  0  0  0  0  # atno 23800 bound_to 23787
  226.0133    4.3885   34.0731 H   0  0  0  0  0  0  0  0  0  0  0  0  # atno 23828 bound_to 23815
  231.9071   10.4611   45.9277 H   0  0  0  0  0  0  0  0  0  0  0  0  # atno 25744 bound_to 25716
  228.5359   -1.9124   48.1006 LP  0  0  0  0  0  0  0  0  0  0  0  0  # atno 27193 bound_to 4055
  230.2109   -1.6394   47.7541 LP  0  0  0  0  0  0  0  0  0  0  0  0  # atno 27194 bound_to 4055
  226.2600   -5.5739   46.2032 LP  0  0  0  0  0  0  0  0  0  0  0  0  # atno 27195 bound_to 4282
  227.8649   -6.2241   46.1672 LP  0  0  0  0  0  0  0  0  0  0  0  0  # atno 27196 bound_to 4282
  226.2560   -2.6387   46.1769 LP  0  0  0  0  0  0  0  0  0  0  0  0  # atno 27197 bound_to 4284
  224.7831   -2.2269   46.7491 LP  0  0  0  0  0  0  0  0  0  0  0  0  # atno 27198 bound_to 4284
  229.1487   -3.6081   47.8061 LP  0  0  0  0  0  0  0  0  0  0  0  0  # atno 27199 bound_to 4323
  230.0920   -5.9722   43.9460 LP  0  0  0  0  0  0  0  0  0  0  0  0  # atno 27200 bound_to 4326
  230.5552   -7.3775   44.8464 LP  0  0  0  0  0  0  0  0  0  0  0  0  # atno 27201 bound_to 4326
  231.5430   -4.1427   47.5595 LP  0  0  0  0  0  0  0  0  0  0  0  0  # atno 27202 bound_to 4328
  232.7066   -3.4491   46.6475 LP  0  0  0  0  0  0  0  0  0  0  0  0  # atno 27203 bound_to 4328
  231.8177   -0.2997   45.3631 LP  0  0  0  0  0  0  0  0  0  0  0  0  # atno 27204 bound_to 6672
  232.0931    1.0934   46.1693 LP  0  0  0  0  0  0  0  0  0  0  0  0  # atno 27205 bound_to 6672
  226.2668   -0.9450   37.6348 LP  0  0  0  0  0  0  0  0  0  0  0  0  # atno 27211 bound_to 23656
  226.0972   -2.4291   36.7579 LP  0  0  0  0  0  0  0  0  0  0  0  0  # atno 27212 bound_to 23656
  227.6902   -0.1848   35.4995 LP  0  0  0  0  0  0  0  0  0  0  0  0  # atno 27213 bound_to 23712
  225.1318    3.9493   37.7207 LP  0  0  0  0  0  0  0  0  0  0  0  0  # atno 27214 bound_to 23715
  225.7486    2.6872   38.7340 LP  0  0  0  0  0  0  0  0  0  0  0  0  # atno 27215 bound_to 23715
  226.2033    2.8326   36.0114 LP  0  0  0  0  0  0  0  0  0  0  0  0  # atno 27216 bound_to 23787
  238.3950    1.8426   43.0665 LP  0  0  0  0  0  0  0  0  0  0  0  0  # atno 27217 bound_to 6895
  236.1971    5.1383   41.6700 LP  0  0  0  0  0  0  0  0  0  0  0  0  # atno 27218 bound_to 6898
  236.3375    6.5049   42.7248 LP  0  0  0  0  0  0  0  0  0  0  0  0  # atno 27219 bound_to 6898
  231.2520    7.0354   47.4555 LP  0  0  0  0  0  0  0  0  0  0  0  0  # atno 27220 bound_to 25719
  232.0498    6.2553   46.1307 LP  0  0  0  0  0  0  0  0  0  0  0  0  # atno 27221 bound_to 25719
  229.6293   -0.8655   49.6506 LP  0  0  0  0  0  0  0  0  0  0  0  0  # atno 27222 bound_to 4129
  227.5786    1.2994   51.2635 LP  0  0  0  0  0  0  0  0  0  0  0  0  # atno 27223 bound_to 4052
  222.9744    6.2804   37.5512 LP  0  0  0  0  0  0  0  0  0  0  0  0  # atno 27225 bound_to 1313
  224.6782    7.7230   41.3560 LP  0  0  0  0  0  0  0  0  0  0  0  0  # atno 27226 bound_to 1316
  225.2594    9.3427   41.1589 LP  0  0  0  0  0  0  0  0  0  0  0  0  # atno 27227 bound_to 1316
  222.6411    9.4339   43.4167 LP  0  0  0  0  0  0  0  0  0  0  0  0  # atno 27228 bound_to 1536
  225.8703    4.9232   35.7285 LP  0  0  0  0  0  0  0  0  0  0  0  0  # atno 27229 bound_to 23815
  229.4086    4.8558   34.5130 LP  0  0  0  0  0  0  0  0  0  0  0  0  # atno 27230 bound_to 23818
  228.7939    5.2156   36.0918 LP  0  0  0  0  0  0  0  0  0  0  0  0  # atno 27231 bound_to 23818
  222.1432    8.1592   39.8926 LP  0  0  0  0  0  0  0  0  0  0  0  0  # atno 27232 bound_to 1257
  221.1454    6.7542   39.7186 LP  0  0  0  0  0  0  0  0  0  0  0  0  # atno 27233 bound_to 1257
  220.5289    4.0719   36.7316 LP  0  0  0  0  0  0  0  0  0  0  0  0  # atno 27234 bound_to 1260
  221.7585    4.6776   37.6191 LP  0  0  0  0  0  0  0  0  0  0  0  0  # atno 27235 bound_to 1260

> <Gold.Score>
     Fitness  S(hb_ext) S(vdw_ext)  S(hb_int)    S(int)      intcor
     35.82       3.17      24.31       0.00      -0.78      -0.76

> <Gold.Goldscore.Fitness>
35.8170

> <Gold.Goldscore.Internal.Vdw>
-1.1279

> <Gold.Goldscore.Internal.Torsion>
-0.4066

> <Gold.Goldscore.External.Vdw>
24.3107

> <Gold.Goldscore.Internal.HBond>
0.0000

> <Gold.Goldscore.External.HBond>
3.1658

> <Gold.Goldscore.Internal.Correction>
-0.7585

> <Gold.Goldscore.Hbonds>
donor molecule, donor type, donor heavy atom, donor atom, acceptor molecule, acceptor atom, score
      L1  H    10    23       P1  6904  0.53

> <Gold.Goldscore.Internal.Vdw.Weighted>
-1.1279

> <Gold.Goldscore.Internal.Torsion.Weighted>
-0.4066

> <Gold.Goldscore.External.Vdw.Weighted>
33.4272

> <Gold.Goldscore.Internal.HBond.Weighted>
0.0000

> <Gold.Goldscore.External.HBond.Weighted>
3.1658

> <Gold.Goldscore.Internal.Correction.Weighted>
-0.7585

> <Gold.Rescore>
     Score     S(PLP)   S(hbond)     S(cho)   S(metal)  DE(clash)   DE(tors)     intcor
     34.75     -34.16       0.21       0.00       0.00       0.00       0.02       ----

> <Gold.PLP.Fitness>
34.7525

> <Gold.PLP.PLP>
-34.1638

> <Gold.PLP.part.hbond>
-1.0787

> <Gold.PLP.part.metal>
0.0000

> <Gold.PLP.part.buried>
-3.2785

> <Gold.PLP.part.nonpolar>
-30.6620

> <Gold.PLP.part.repulsive>
0.4926

> <Gold.PLP.ligand.clash>
0.0000

> <Gold.PLP.ligand.torsion>
0.0177

> <Gold.PLP.Chemscore.Hbond>
0.2080

> <Gold.PLP.Chemscore.CHOScore>
0.0000

> <Gold.PLP.Chemscore.Metal>
0.0000

> <Gold.Chemscore.Hbonds>
donor molecule, donor type, donor heavy atom, donor atom, acceptor molecule, acceptor atom, score
      L1  H    10    23       P1  6904  0.25

> <Gold.PLP.Chemscore.Internal.Correction>
   9.000000E+99

