#       Name:                CT1002167954
#       Creating user name   hitesit
#       Creation time:       Sun Apr 16 20:36:26 2023


#       File generated by GOLD software.
#

@<TRIPOS>MOLECULE
CT1002167954|ligand_prepared|mol2|1|dock8
    29    30     1
SMALL
NO_CHARGES


@<TRIPOS>ATOM
      1 C1         227.8469   0.2819  42.4699 C.3            1 RES1               0.0000
      2 C2         226.6969   0.7283  41.5441 C.ar           1 RES1               0.0000
      3 C3         227.8226  -1.2438  42.4783 C.2            1 RES1               0.0000
      4 C4         229.1217   0.8805  41.8857 C.2            1 RES1               0.0000
      5 C5         227.7073   0.7834  43.9261 C.3            1 RES1               0.0000
      6 C6         226.2381  -0.1077  40.5305 C.ar           1 RES1               0.0000
      7 C7         226.0843   1.9697  41.6929 C.ar           1 RES1               0.0000
      8 N8         228.8002  -1.8951  41.7855 N.am           1 RES1               0.0000
      9 O9         226.9363  -1.8656  43.0511 O.2            1 RES1               0.0000
     10 N10        230.0675   0.0204  41.3923 N.am           1 RES1               0.0000
     11 O11        229.3084   2.0899  41.8331 O.2            1 RES1               0.0000
     12 C12        228.6442   0.0930  44.9048 C.3            1 RES1               0.0000
     13 C13        225.2023   0.2821  39.6976 C.ar           1 RES1               0.0000
     14 C14        225.0488   2.3576  40.8587 C.ar           1 RES1               0.0000
     15 C15        229.9511  -1.3389  41.2878 C.2            1 RES1               0.0000
     16 C16        224.6068   1.5146  39.8614 C.ar           1 RES1               0.0000
     17 O17        230.8228  -2.0400  40.7820 O.2            1 RES1               0.0000
     18 H18        227.9055   1.8621  43.9486 H              1 RES1               0.0000
     19 H19        226.6731   0.6255  44.2563 H              1 RES1               0.0000
     20 H20        226.6961  -1.0803  40.3849 H              1 RES1               0.0000
     21 H21        226.4163   2.6497  42.4700 H              1 RES1               0.0000
     22 H22        228.6629  -2.8875  41.6224 H              1 RES1               0.0000
     23 H23        230.9390   0.4316  41.0735 H              1 RES1               0.0000
     24 H24        228.5053   0.4819  45.9113 H              1 RES1               0.0000
     25 H25        228.4576  -0.9786  44.9268 H              1 RES1               0.0000
     26 H26        229.6827   0.2505  44.6209 H              1 RES1               0.0000
     27 H27        224.8590  -0.3845  38.9134 H              1 RES1               0.0000
     28 H28        224.5834   3.3288  40.9909 H              1 RES1               0.0000
     29 H29        223.7952   1.8195  39.2091 H              1 RES1               0.0000
@<TRIPOS>BOND
    1    1    2 1     
    2    1    3 1     
    3    1    4 1     
    4    1    5 1     
    5    2    6 ar    
    6    2    7 ar    
    7    3    8 1     
    8    3    9 2     
    9    4   10 1     
   10    4   11 2     
   11    5   12 1     
   12    5   18 1     
   13    5   19 1     
   14    6   13 ar    
   15    6   20 1     
   16    7   14 ar    
   17    7   21 1     
   18    8   15 1     
   19    8   22 1     
   20   10   15 1     
   21   10   23 1     
   22   12   24 1     
   23   12   25 1     
   24   12   26 1     
   25   13   16 ar    
   26   13   27 1     
   27   14   16 ar    
   28   14   28 1     
   29   15   17 2     
   30   16   29 1     
@<TRIPOS>SUBSTRUCTURE
      1 RES1           1
@<TRIPOS>SET
DONOR_HYDROGENS      STATIC     ATOMS    <user>   **** ""
2 22 23
ATOM$RED        STATIC     ATOMS    COLORGROUP SYSTEM
2 22 23
@<TRIPOS>COMMENT
> <Gold.Version>
2022.3.0

> <Gold.Id.Protein>
unknown|4d1n_clean|pdb

> <Gold.Protein.RotatedTorsions>
[ 1594 1544 1543 1542 ] final  -16.03 input   60.00 | X-H torsion
[ 4304 4284 4283 4280 ] final -100.10 input   59.98 | X-H torsion
[ 4344 4323 4324 4325 ] final -178.06 input  122.59 | X-H torsion
[ 4348 4328 4327 4324 ] final -168.93 input   59.99 | X-H torsion
[ 6708 6672 6671 6669 ] final -133.70 input   60.02 | X-H torsion
[ 23762 23712 23713 23714 ] final  175.16 input   58.31 | X-H torsion
[ 23800 23787 23788 23789 ] final   32.40 input  -92.91 | X-H torsion
[ 6926 6895 6896 6897 ] final   67.14 input  109.21 | X-H torsion
[ 4168 4129 4130 4131 ] final -100.86 input  118.46 | X-H torsion
[ 4085 4052 4053 4054 ] final -104.89 input  111.71 | X-H torsion
[ 1354 1313 1314 1315 ] final    2.40 input  117.91 | X-H torsion
[ 1584 1536 1537 1538 ] final   30.56 input   95.51 | X-H torsion
[ 23828 23815 23816 23817 ] final   81.27 input  -25.33 | X-H torsion
[ 1288 1260 1258 1255 ] final   89.23 input   59.99 | X-H torsion
[ 25744 25716 25717 25718 ] final -176.00 input   66.04 | X-H torsion
[ 27193 4055 4054 4053 ] final -118.49 input   -0.00 | X-H torsion
[ 27195 4282 4281 4280 ] final  -32.77 input    0.00 | X-H torsion
[ 27200 4326 4325 4324 ] final  -11.68 input    0.00 | X-H torsion
[ 27211 23656 23655 23654 ] final  -90.45 input   -0.00 | X-H torsion
[ 27214 23715 23714 23713 ] final -117.08 input    0.00 | X-H torsion
[ 27218 6898 6897 6896 ] final  120.44 input   -0.00 | X-H torsion
[ 27220 25719 25718 25717 ] final  126.03 input   -0.00 | X-H torsion
[ 27226 1316 1315 1314 ] final -110.22 input    0.00 | X-H torsion
[ 27230 23818 23817 23816 ] final   59.99 input    0.00 | X-H torsion
[ 27232 1257 1256 1255 ] final  178.11 input    0.00 | X-H torsion

> <Gold.Protein.ActiveResidues>
 ARG304  THR320  LEU321  LEU323  LYS324  GLN369  TYR370  SER372  SER373  TYR408 
 HIS412  ARG415  ASN416  TRP426  GLU670  CYS673  ARG674  GLY675  GLY676  TYR703 
 LEU705  THR706  PRO707 

> <Gold.Protein.RotatedAtoms>
  221.6195    4.5606   37.6770 H   0  0  0  0  0  0  0  0  0  0  0  0  # atno 1288 bound_to 1260
  222.8857    7.9772   37.6465 H   0  0  0  0  0  0  0  0  0  0  0  0  # atno 1354 bound_to 1313
  223.8891    9.7647   42.6171 H   0  0  0  0  0  0  0  0  0  0  0  0  # atno 1584 bound_to 1536
  223.7413    4.2063   45.7266 H   0  0  0  0  0  0  0  0  0  0  0  0  # atno 1594 bound_to 1544
  222.2844    4.0771   44.9469 H   0  0  0  0  0  0  0  0  0  0  0  0  # atno 1595 bound_to 1544
  223.1513    2.7126   45.3155 H   0  0  0  0  0  0  0  0  0  0  0  0  # atno 1596 bound_to 1544
  227.2872    0.2025   51.3433 H   0  0  0  0  0  0  0  0  0  0  0  0  # atno 4085 bound_to 4052
  230.1333   -0.3646   49.4198 H   0  0  0  0  0  0  0  0  0  0  0  0  # atno 4168 bound_to 4129
  226.1326   -2.3682   46.2204 H   0  0  0  0  0  0  0  0  0  0  0  0  # atno 4304 bound_to 4284
  228.3989   -3.0099   46.9856 H   0  0  0  0  0  0  0  0  0  0  0  0  # atno 4344 bound_to 4323
  232.6451   -3.3953   46.7564 H   0  0  0  0  0  0  0  0  0  0  0  0  # atno 4348 bound_to 4328
  231.3833   -0.6426   46.2297 H   0  0  0  0  0  0  0  0  0  0  0  0  # atno 6708 bound_to 6672
  238.5831    2.6440   44.5932 H   0  0  0  0  0  0  0  0  0  0  0  0  # atno 6926 bound_to 6895
  227.6290   -0.3003   35.6108 H   0  0  0  0  0  0  0  0  0  0  0  0  # atno 23762 bound_to 23712
  226.2049    2.8476   36.0356 H   0  0  0  0  0  0  0  0  0  0  0  0  # atno 23800 bound_to 23787
  225.9304    4.8987   35.7546 H   0  0  0  0  0  0  0  0  0  0  0  0  # atno 23828 bound_to 23815
  231.8620   10.4659   45.9766 H   0  0  0  0  0  0  0  0  0  0  0  0  # atno 25744 bound_to 25716
  229.2761   -2.4596   48.4499 LP  0  0  0  0  0  0  0  0  0  0  0  0  # atno 27193 bound_to 4055
  229.4707   -1.0922   47.4048 LP  0  0  0  0  0  0  0  0  0  0  0  0  # atno 27194 bound_to 4055
  226.7134   -6.2780   46.8813 LP  0  0  0  0  0  0  0  0  0  0  0  0  # atno 27195 bound_to 4282
  227.4115   -5.5200   45.4891 LP  0  0  0  0  0  0  0  0  0  0  0  0  # atno 27196 bound_to 4282
  224.6234   -2.4724   46.8202 LP  0  0  0  0  0  0  0  0  0  0  0  0  # atno 27197 bound_to 4284
  225.4820   -3.8290   46.5218 LP  0  0  0  0  0  0  0  0  0  0  0  0  # atno 27198 bound_to 4284
  228.5313   -4.6191   47.6582 LP  0  0  0  0  0  0  0  0  0  0  0  0  # atno 27199 bound_to 4323
  229.9283   -6.0387   43.9614 LP  0  0  0  0  0  0  0  0  0  0  0  0  # atno 27200 bound_to 4326
  230.7189   -7.3110   44.8310 LP  0  0  0  0  0  0  0  0  0  0  0  0  # atno 27201 bound_to 4326
  232.2483   -4.8719   46.1990 LP  0  0  0  0  0  0  0  0  0  0  0  0  # atno 27202 bound_to 4328
  231.5029   -4.2674   47.5202 LP  0  0  0  0  0  0  0  0  0  0  0  0  # atno 27203 bound_to 4328
  232.1405    0.4873   45.3359 LP  0  0  0  0  0  0  0  0  0  0  0  0  # atno 27204 bound_to 6672
  231.7312    0.8064   46.8842 LP  0  0  0  0  0  0  0  0  0  0  0  0  # atno 27205 bound_to 6672
  225.3599   -1.5698   36.9505 LP  0  0  0  0  0  0  0  0  0  0  0  0  # atno 27211 bound_to 23656
  227.0040   -1.8043   37.4422 LP  0  0  0  0  0  0  0  0  0  0  0  0  # atno 27212 bound_to 23656
  226.2253    0.5315   34.9766 LP  0  0  0  0  0  0  0  0  0  0  0  0  # atno 27213 bound_to 23712
  224.6311    3.0104   38.2026 LP  0  0  0  0  0  0  0  0  0  0  0  0  # atno 27214 bound_to 23715
  226.2492    3.6261   38.2520 LP  0  0  0  0  0  0  0  0  0  0  0  0  # atno 27215 bound_to 23715
  225.1322    1.6660   35.3234 LP  0  0  0  0  0  0  0  0  0  0  0  0  # atno 27216 bound_to 23787
  238.4870    1.9598   42.9935 LP  0  0  0  0  0  0  0  0  0  0  0  0  # atno 27217 bound_to 6895
  235.9403    6.2906   42.8479 LP  0  0  0  0  0  0  0  0  0  0  0  0  # atno 27218 bound_to 6898
  236.5943    5.3526   41.5469 LP  0  0  0  0  0  0  0  0  0  0  0  0  # atno 27219 bound_to 6898
  232.0652    6.2187   46.1635 LP  0  0  0  0  0  0  0  0  0  0  0  0  # atno 27220 bound_to 25719
  231.2365    7.0720   47.4226 LP  0  0  0  0  0  0  0  0  0  0  0  0  # atno 27221 bound_to 25719
  230.0665   -0.6485   51.1395 LP  0  0  0  0  0  0  0  0  0  0  0  0  # atno 27222 bound_to 4129
  228.8240    0.9990   51.5572 LP  0  0  0  0  0  0  0  0  0  0  0  0  # atno 27223 bound_to 4052
  223.2420    6.3091   37.2764 LP  0  0  0  0  0  0  0  0  0  0  0  0  # atno 27225 bound_to 1313
  224.1573    8.7609   41.4562 LP  0  0  0  0  0  0  0  0  0  0  0  0  # atno 27226 bound_to 1316
  225.7803    8.3048   41.0587 LP  0  0  0  0  0  0  0  0  0  0  0  0  # atno 27227 bound_to 1316
  222.6554    8.6326   43.1186 LP  0  0  0  0  0  0  0  0  0  0  0  0  # atno 27228 bound_to 1536
  225.9518    4.4217   34.0757 LP  0  0  0  0  0  0  0  0  0  0  0  0  # atno 27229 bound_to 23815
  228.8416    4.5575   34.6287 LP  0  0  0  0  0  0  0  0  0  0  0  0  # atno 27230 bound_to 23818
  229.3610    5.5139   35.9760 LP  0  0  0  0  0  0  0  0  0  0  0  0  # atno 27231 bound_to 23818
  222.4695    7.3976   40.0616 LP  0  0  0  0  0  0  0  0  0  0  0  0  # atno 27232 bound_to 1257
  220.8191    7.5159   39.5496 LP  0  0  0  0  0  0  0  0  0  0  0  0  # atno 27233 bound_to 1257
  221.7463    5.1463   36.1638 LP  0  0  0  0  0  0  0  0  0  0  0  0  # atno 27234 bound_to 1260
  220.5273    4.1305   36.5497 LP  0  0  0  0  0  0  0  0  0  0  0  0  # atno 27235 bound_to 1260

> <Gold.Score>
     Fitness  S(hb_ext) S(vdw_ext)  S(hb_int)    S(int)      intcor
     34.27      11.10      17.53       0.00      -0.93      -0.76

> <Gold.Goldscore.Fitness>
34.2744

> <Gold.Goldscore.Internal.Vdw>
-1.0407

> <Gold.Goldscore.Internal.Torsion>
-0.6507

> <Gold.Goldscore.External.Vdw>
17.5331

> <Gold.Goldscore.Internal.HBond>
0.0000

> <Gold.Goldscore.External.HBond>
11.0993

> <Gold.Goldscore.Internal.Correction>
-0.7585

> <Gold.Goldscore.Hbonds>
donor molecule, donor type, donor heavy atom, donor atom, acceptor molecule, acceptor atom, score
      P1  H  7111  7161       L1    17  0.99
      P1  H 23719 23770       L1    11  0.83
      P1  H 23722 23774       L1    11  0.03

> <Gold.Goldscore.Internal.Vdw.Weighted>
-1.0407

> <Gold.Goldscore.Internal.Torsion.Weighted>
-0.6507

> <Gold.Goldscore.External.Vdw.Weighted>
24.1080

> <Gold.Goldscore.Internal.HBond.Weighted>
0.0000

> <Gold.Goldscore.External.HBond.Weighted>
11.0993

> <Gold.Goldscore.Internal.Correction.Weighted>
-0.7585

> <Gold.Rescore>
     Score     S(PLP)   S(hbond)     S(cho)   S(metal)  DE(clash)   DE(tors)     intcor
     30.12     -24.92       2.58       0.00       0.00       0.77       0.89       ----

> <Gold.PLP.Fitness>
30.1178

> <Gold.PLP.PLP>
-24.9201

> <Gold.PLP.part.hbond>
-3.5205

> <Gold.PLP.part.metal>
0.0000

> <Gold.PLP.part.buried>
-2.1434

> <Gold.PLP.part.nonpolar>
-20.9602

> <Gold.PLP.part.repulsive>
0.8995

> <Gold.PLP.ligand.clash>
0.7672

> <Gold.PLP.ligand.torsion>
0.8894

> <Gold.PLP.Chemscore.Hbond>
2.5813

> <Gold.PLP.Chemscore.CHOScore>
0.0000

> <Gold.PLP.Chemscore.Metal>
0.0000

> <Gold.Chemscore.Hbonds>
donor molecule, donor type, donor heavy atom, donor atom, acceptor molecule, acceptor atom, score
      P1  H  7111  7161       L1    17  1.00
      P1  H 23719 23770       L1    11  1.00
      P1  H 23722 23774       L1    11  0.30

> <Gold.PLP.Chemscore.Internal.Correction>
   9.000000E+99

