#       Name:                CT1002167954
#       Creating user name   hitesit
#       Creation time:       Sun Apr 16 20:36:25 2023


#       File generated by GOLD software.
#

@<TRIPOS>MOLECULE
CT1002167954|ligand_prepared|mol2|1|dock7
    29    30     1
SMALL
NO_CHARGES


@<TRIPOS>ATOM
      1 C1         228.5155  -0.2580  43.4405 C.3            1 RES1               0.0000
      2 C2         227.6347   0.2604  42.2853 C.ar           1 RES1               0.0000
      3 C3         228.4933  -1.7808  43.3461 C.2            1 RES1               0.0000
      4 C4         229.8949   0.3580  43.2348 C.2            1 RES1               0.0000
      5 C5         228.0124   0.1546  44.8434 C.3            1 RES1               0.0000
      6 C6         227.2959   1.6076  42.2021 C.ar           1 RES1               0.0000
      7 C7         227.1567  -0.5945  41.2958 C.ar           1 RES1               0.0000
      8 N8         229.6154  -2.4015  42.8819 N.am           1 RES1               0.0000
      9 O9         227.4927  -2.4245  43.6372 O.2            1 RES1               0.0000
     10 N10        230.9365  -0.4829  42.9418 N.am           1 RES1               0.0000
     11 O11        230.0861   1.5657  43.3073 O.2            1 RES1               0.0000
     12 C12        228.8518  -0.4003  45.9835 C.3            1 RES1               0.0000
     13 C13        226.5101   2.0835  41.1656 C.ar           1 RES1               0.0000
     14 C14        226.3708  -0.1166  40.2603 C.ar           1 RES1               0.0000
     15 C15        230.8533  -1.8315  42.7257 C.2            1 RES1               0.0000
     16 C16        226.0474   1.2220  40.1939 C.ar           1 RES1               0.0000
     17 O17        231.8258  -2.5119  42.4123 O.2            1 RES1               0.0000
     18 H18        228.0077   1.2496  44.9089 H              1 RES1               0.0000
     19 H19        226.9790  -0.1929  44.9643 H              1 RES1               0.0000
     20 H20        227.6488   2.3001  42.9591 H              1 RES1               0.0000
     21 H21        227.3975  -1.6517  41.3283 H              1 RES1               0.0000
     22 H22        229.5258  -3.3800  42.6272 H              1 RES1               0.0000
     23 H23        231.8593  -0.0649  42.8791 H              1 RES1               0.0000
     24 H24        228.4556  -0.0809  46.9451 H              1 RES1               0.0000
     25 H25        228.8579  -1.4882  45.9639 H              1 RES1               0.0000
     26 H26        229.8806  -0.0542  45.9089 H              1 RES1               0.0000
     27 H27        226.2573   3.1376  41.1187 H              1 RES1               0.0000
     28 H28        226.0083  -0.7983  39.4980 H              1 RES1               0.0000
     29 H29        225.4321   1.5952  39.3818 H              1 RES1               0.0000
@<TRIPOS>BOND
    1    1    2 1     
    2    1    3 1     
    3    1    4 1     
    4    1    5 1     
    5    2    6 ar    
    6    2    7 ar    
    7    3    8 1     
    8    3    9 2     
    9    4   10 1     
   10    4   11 2     
   11    5   12 1     
   12    5   18 1     
   13    5   19 1     
   14    6   13 ar    
   15    6   20 1     
   16    7   14 ar    
   17    7   21 1     
   18    8   15 1     
   19    8   22 1     
   20   10   15 1     
   21   10   23 1     
   22   12   24 1     
   23   12   25 1     
   24   12   26 1     
   25   13   16 ar    
   26   13   27 1     
   27   14   16 ar    
   28   14   28 1     
   29   15   17 2     
   30   16   29 1     
@<TRIPOS>SUBSTRUCTURE
      1 RES1           1
@<TRIPOS>SET
DONOR_HYDROGENS      STATIC     ATOMS    <user>   **** ""
2 22 23
ATOM$RED        STATIC     ATOMS    COLORGROUP SYSTEM
2 22 23
@<TRIPOS>COMMENT
> <Gold.Version>
2022.3.0

> <Gold.Id.Protein>
unknown|4d1n_clean|pdb

> <Gold.Protein.RotatedTorsions>
[ 1594 1544 1543 1542 ] final   33.22 input   60.00 | X-H torsion
[ 4304 4284 4283 4280 ] final  -46.40 input   59.98 | X-H torsion
[ 4344 4323 4324 4325 ] final -146.06 input  122.59 | X-H torsion
[ 4348 4328 4327 4324 ] final  -70.59 input   59.99 | X-H torsion
[ 6708 6672 6671 6669 ] final  -19.70 input   60.02 | X-H torsion
[ 23762 23712 23713 23714 ] final  -25.28 input   58.31 | X-H torsion
[ 23800 23787 23788 23789 ] final  -27.27 input  -92.91 | X-H torsion
[ 6926 6895 6896 6897 ] final -111.66 input  109.21 | X-H torsion
[ 4168 4129 4130 4131 ] final  -82.23 input  118.46 | X-H torsion
[ 4085 4052 4053 4054 ] final  -70.50 input  111.71 | X-H torsion
[ 1354 1313 1314 1315 ] final  -90.97 input  117.91 | X-H torsion
[ 1584 1536 1537 1538 ] final   79.06 input   95.51 | X-H torsion
[ 23828 23815 23816 23817 ] final  -36.04 input  -25.33 | X-H torsion
[ 1288 1260 1258 1255 ] final  -91.72 input   59.99 | X-H torsion
[ 25744 25716 25717 25718 ] final  -60.41 input   66.04 | X-H torsion
[ 27193 4055 4054 4053 ] final -103.20 input   -0.00 | X-H torsion
[ 27195 4282 4281 4280 ] final  154.94 input    0.00 | X-H torsion
[ 27200 4326 4325 4324 ] final  124.53 input    0.00 | X-H torsion
[ 27211 23656 23655 23654 ] final  -32.76 input   -0.00 | X-H torsion
[ 27214 23715 23714 23713 ] final  103.24 input    0.00 | X-H torsion
[ 27218 6898 6897 6896 ] final -141.49 input   -0.00 | X-H torsion
[ 27220 25719 25718 25717 ] final   86.97 input   -0.00 | X-H torsion
[ 27226 1316 1315 1314 ] final  -16.21 input    0.00 | X-H torsion
[ 27230 23818 23817 23816 ] final   38.60 input    0.00 | X-H torsion
[ 27232 1257 1256 1255 ] final  -88.53 input    0.00 | X-H torsion

> <Gold.Protein.ActiveResidues>
 ARG304  THR320  LEU321  LEU323  LYS324  GLN369  TYR370  SER372  SER373  TYR408 
 HIS412  ARG415  ASN416  TRP426  GLU670  CYS673  ARG674  GLY675  GLY676  TYR703 
 LEU705  THR706  PRO707 

> <Gold.Protein.RotatedAtoms>
  220.9637    4.6571   35.9253 H   0  0  0  0  0  0  0  0  0  0  0  0  # atno 1288 bound_to 1260
  222.4876    6.8286   38.0477 H   0  0  0  0  0  0  0  0  0  0  0  0  # atno 1354 bound_to 1313
  223.9575    9.1016   42.3284 H   0  0  0  0  0  0  0  0  0  0  0  0  # atno 1584 bound_to 1536
  223.1252    4.6149   45.4275 H   0  0  0  0  0  0  0  0  0  0  0  0  # atno 1594 bound_to 1544
  222.2949    3.2809   44.9001 H   0  0  0  0  0  0  0  0  0  0  0  0  # atno 1595 bound_to 1544
  223.7568    3.1001   45.6614 H   0  0  0  0  0  0  0  0  0  0  0  0  # atno 1596 bound_to 1544
  227.6353   -0.1642   51.4583 H   0  0  0  0  0  0  0  0  0  0  0  0  # atno 4085 bound_to 4052
  229.9233   -0.5555   49.4267 H   0  0  0  0  0  0  0  0  0  0  0  0  # atno 4168 bound_to 4129
  226.2366   -3.2075   46.2055 H   0  0  0  0  0  0  0  0  0  0  0  0  # atno 4304 bound_to 4284
  228.0368   -3.2700   46.7850 H   0  0  0  0  0  0  0  0  0  0  0  0  # atno 4344 bound_to 4323
  231.6353   -3.9463   47.5837 H   0  0  0  0  0  0  0  0  0  0  0  0  # atno 4348 bound_to 4328
  231.6876    0.7305   46.9295 H   0  0  0  0  0  0  0  0  0  0  0  0  # atno 6708 bound_to 6672
  238.5130    1.9611   42.9857 H   0  0  0  0  0  0  0  0  0  0  0  0  # atno 6926 bound_to 6895
  226.0603    0.3296   35.1496 H   0  0  0  0  0  0  0  0  0  0  0  0  # atno 23762 bound_to 23712
  226.2270    2.7032   35.1682 H   0  0  0  0  0  0  0  0  0  0  0  0  # atno 23800 bound_to 23787
  226.6587    4.2401   34.6160 H   0  0  0  0  0  0  0  0  0  0  0  0  # atno 23828 bound_to 23815
  232.1250    9.2206   45.1870 H   0  0  0  0  0  0  0  0  0  0  0  0  # atno 25744 bound_to 25716
  229.0532   -2.4057   48.4281 LP  0  0  0  0  0  0  0  0  0  0  0  0  # atno 27193 bound_to 4055
  229.6937   -1.1461   47.4266 LP  0  0  0  0  0  0  0  0  0  0  0  0  # atno 27194 bound_to 4055
  227.5080   -5.5799   45.5146 LP  0  0  0  0  0  0  0  0  0  0  0  0  # atno 27195 bound_to 4282
  226.6169   -6.2180   46.8558 LP  0  0  0  0  0  0  0  0  0  0  0  0  # atno 27196 bound_to 4282
  225.2506   -1.9609   46.5550 LP  0  0  0  0  0  0  0  0  0  0  0  0  # atno 27197 bound_to 4284
  224.7501   -3.4955   46.8020 LP  0  0  0  0  0  0  0  0  0  0  0  0  # atno 27198 bound_to 4284
  228.8833   -4.3662   47.8532 LP  0  0  0  0  0  0  0  0  0  0  0  0  # atno 27199 bound_to 4323
  231.1369   -6.8629   44.6269 LP  0  0  0  0  0  0  0  0  0  0  0  0  # atno 27200 bound_to 4326
  229.5103   -6.4867   44.1655 LP  0  0  0  0  0  0  0  0  0  0  0  0  # atno 27201 bound_to 4326
  232.7723   -3.5748   46.4802 LP  0  0  0  0  0  0  0  0  0  0  0  0  # atno 27202 bound_to 4328
  231.9960   -5.0095   46.4057 LP  0  0  0  0  0  0  0  0  0  0  0  0  # atno 27203 bound_to 4328
  231.4057   -0.6621   46.1356 LP  0  0  0  0  0  0  0  0  0  0  0  0  # atno 27204 bound_to 6672
  232.1597    0.5736   45.3798 LP  0  0  0  0  0  0  0  0  0  0  0  0  # atno 27205 bound_to 6672
  225.7549   -2.2682   36.7169 LP  0  0  0  0  0  0  0  0  0  0  0  0  # atno 27211 bound_to 23656
  226.6090   -1.1059   37.6758 LP  0  0  0  0  0  0  0  0  0  0  0  0  # atno 27212 bound_to 23656
  227.7410   -0.0771   35.4223 LP  0  0  0  0  0  0  0  0  0  0  0  0  # atno 27213 bound_to 23712
  225.9042    3.9811   37.9185 LP  0  0  0  0  0  0  0  0  0  0  0  0  # atno 27214 bound_to 23715
  224.9761    2.6555   38.5362 LP  0  0  0  0  0  0  0  0  0  0  0  0  # atno 27215 bound_to 23715
  225.1106    1.8071   36.1705 LP  0  0  0  0  0  0  0  0  0  0  0  0  # atno 27216 bound_to 23787
  238.5565    2.6383   44.5905 LP  0  0  0  0  0  0  0  0  0  0  0  0  # atno 27217 bound_to 6895
  236.9785    6.2940   42.0525 LP  0  0  0  0  0  0  0  0  0  0  0  0  # atno 27218 bound_to 6898
  235.5561    5.3492   42.3423 LP  0  0  0  0  0  0  0  0  0  0  0  0  # atno 27219 bound_to 6898
  231.8166    6.6936   45.9444 LP  0  0  0  0  0  0  0  0  0  0  0  0  # atno 27220 bound_to 25719
  231.4852    6.5971   47.6417 LP  0  0  0  0  0  0  0  0  0  0  0  0  # atno 27221 bound_to 25719
  230.2741   -0.4598   51.1327 LP  0  0  0  0  0  0  0  0  0  0  0  0  # atno 27222 bound_to 4129
  228.4798    1.3616   51.4435 LP  0  0  0  0  0  0  0  0  0  0  0  0  # atno 27223 bound_to 4052
  223.6337    7.4393   36.8817 LP  0  0  0  0  0  0  0  0  0  0  0  0  # atno 27225 bound_to 1313
  224.8110    7.6839   41.3235 LP  0  0  0  0  0  0  0  0  0  0  0  0  # atno 27226 bound_to 1316
  225.1266    9.3818   41.1914 LP  0  0  0  0  0  0  0  0  0  0  0  0  # atno 27227 bound_to 1316
  222.5886    9.2801   43.4005 LP  0  0  0  0  0  0  0  0  0  0  0  0  # atno 27228 bound_to 1536
  225.2358    5.0690   35.1948 LP  0  0  0  0  0  0  0  0  0  0  0  0  # atno 27229 bound_to 23815
  228.6011    4.5050   34.8354 LP  0  0  0  0  0  0  0  0  0  0  0  0  # atno 27230 bound_to 23818
  229.6015    5.5664   35.7694 LP  0  0  0  0  0  0  0  0  0  0  0  0  # atno 27231 bound_to 23818
  221.6746    8.3194   39.7356 LP  0  0  0  0  0  0  0  0  0  0  0  0  # atno 27232 bound_to 1257
  221.6140    6.5941   39.8756 LP  0  0  0  0  0  0  0  0  0  0  0  0  # atno 27233 bound_to 1257
  220.8622    4.0812   37.4441 LP  0  0  0  0  0  0  0  0  0  0  0  0  # atno 27234 bound_to 1260
  222.0716    5.0984   37.0328 LP  0  0  0  0  0  0  0  0  0  0  0  0  # atno 27235 bound_to 1260

> <Gold.Score>
     Fitness  S(hb_ext) S(vdw_ext)  S(hb_int)    S(int)      intcor
     33.54       5.99      21.29       0.00      -1.73      -0.76

> <Gold.Goldscore.Fitness>
33.5436

> <Gold.Goldscore.Internal.Vdw>
-2.1090

> <Gold.Goldscore.Internal.Torsion>
-0.3762

> <Gold.Goldscore.External.Vdw>
21.2941

> <Gold.Goldscore.Internal.HBond>
0.0000

> <Gold.Goldscore.External.HBond>
5.9908

> <Gold.Goldscore.Internal.Correction>
-0.7585

> <Gold.Goldscore.Hbonds>
donor molecule, donor type, donor heavy atom, donor atom, acceptor molecule, acceptor atom, score
      P1  H 23722 23774       L1    11  0.17
      L1  H    10    23       P1  6904  0.83

> <Gold.Goldscore.Internal.Vdw.Weighted>
-2.1090

> <Gold.Goldscore.Internal.Torsion.Weighted>
-0.3762

> <Gold.Goldscore.External.Vdw.Weighted>
29.2794

> <Gold.Goldscore.Internal.HBond.Weighted>
0.0000

> <Gold.Goldscore.External.HBond.Weighted>
5.9908

> <Gold.Goldscore.Internal.Correction.Weighted>
-0.7585

> <Gold.Rescore>
     Score     S(PLP)   S(hbond)     S(cho)   S(metal)  DE(clash)   DE(tors)     intcor
     30.35     -23.59       2.76       0.00       0.00       1.11       0.21       ----

> <Gold.PLP.Fitness>
30.3485

> <Gold.PLP.PLP>
-23.5876

> <Gold.PLP.part.hbond>
-3.3097

> <Gold.PLP.part.metal>
0.0000

> <Gold.PLP.part.buried>
-0.4240

> <Gold.PLP.part.nonpolar>
-21.5078

> <Gold.PLP.part.repulsive>
0.6453

> <Gold.PLP.ligand.clash>
1.1054

> <Gold.PLP.ligand.torsion>
0.2069

> <Gold.PLP.Chemscore.Hbond>
2.7600

> <Gold.PLP.Chemscore.CHOScore>
0.0000

> <Gold.PLP.Chemscore.Metal>
0.0000

> <Gold.Chemscore.Hbonds>
donor molecule, donor type, donor heavy atom, donor atom, acceptor molecule, acceptor atom, score
      L1  H    10    23       P1  6904  1.00

> <Gold.PLP.Chemscore.Internal.Correction>
   9.000000E+99

