#       Name:                CT1002167954
#       Creating user name   hitesit
#       Creation time:       Sun Apr 16 20:36:21 2023


#       File generated by GOLD software.
#

@<TRIPOS>MOLECULE
CT1002167954|ligand_prepared|mol2|1|dock1
    29    30     1
SMALL
NO_CHARGES


@<TRIPOS>ATOM
      1 C1         227.9394   2.5014  44.0406 C.3            1 RES1               0.0000
      2 C2         228.1340   3.8164  44.8228 C.ar           1 RES1               0.0000
      3 C3         229.3348   1.9272  43.8141 C.2            1 RES1               0.0000
      4 C4         227.0372   1.6231  44.9004 C.2            1 RES1               0.0000
      5 C5         227.2557   2.6874  42.6660 C.3            1 RES1               0.0000
      6 C6         228.6749   4.9376  44.2006 C.ar           1 RES1               0.0000
      7 C7         227.7754   3.9242  46.1638 C.ar           1 RES1               0.0000
      8 N8         229.7001   0.8431  44.5565 N.am           1 RES1               0.0000
      9 O9         230.1172   2.4418  43.0246 O.2            1 RES1               0.0000
     10 N10        227.5660   0.4678  45.4136 N.am           1 RES1               0.0000
     11 O11        225.8782   1.9294  45.1517 O.2            1 RES1               0.0000
     12 C12        226.8753   1.3803  41.9885 C.3            1 RES1               0.0000
     13 C13        228.8484   6.1244  44.8932 C.ar           1 RES1               0.0000
     14 C14        227.9500   5.1120  46.8546 C.ar           1 RES1               0.0000
     15 C15        228.8656   0.0534  45.3060 C.2            1 RES1               0.0000
     16 C16        228.4857   6.2126  46.2203 C.ar           1 RES1               0.0000
     17 O17        229.2793  -0.9707  45.8418 O.2            1 RES1               0.0000
     18 H18        226.3503   3.2918  42.8009 H              1 RES1               0.0000
     19 H19        227.9342   3.2425  42.0064 H              1 RES1               0.0000
     20 H20        228.9684   4.8864  43.1574 H              1 RES1               0.0000
     21 H21        227.3531   3.0709  46.6836 H              1 RES1               0.0000
     22 H22        230.6848   0.5968  44.5543 H              1 RES1               0.0000
     23 H23        226.9321  -0.1396  45.9230 H              1 RES1               0.0000
     24 H24        226.3995   1.5678  41.0282 H              1 RES1               0.0000
     25 H25        227.7557   0.7647  41.8161 H              1 RES1               0.0000
     26 H26        226.1812   0.8138  42.6058 H              1 RES1               0.0000
     27 H27        229.2717   6.9874  44.3898 H              1 RES1               0.0000
     28 H28        227.6638   5.1766  47.8992 H              1 RES1               0.0000
     29 H29        228.6214   7.1426  46.7625 H              1 RES1               0.0000
@<TRIPOS>BOND
    1    1    2 1     
    2    1    3 1     
    3    1    4 1     
    4    1    5 1     
    5    2    6 ar    
    6    2    7 ar    
    7    3    8 1     
    8    3    9 2     
    9    4   10 1     
   10    4   11 2     
   11    5   12 1     
   12    5   18 1     
   13    5   19 1     
   14    6   13 ar    
   15    6   20 1     
   16    7   14 ar    
   17    7   21 1     
   18    8   15 1     
   19    8   22 1     
   20   10   15 1     
   21   10   23 1     
   22   12   24 1     
   23   12   25 1     
   24   12   26 1     
   25   13   16 ar    
   26   13   27 1     
   27   14   16 ar    
   28   14   28 1     
   29   15   17 2     
   30   16   29 1     
@<TRIPOS>SUBSTRUCTURE
      1 RES1           1
@<TRIPOS>SET
DONOR_HYDROGENS      STATIC     ATOMS    <user>   **** ""
2 22 23
ATOM$RED        STATIC     ATOMS    COLORGROUP SYSTEM
2 22 23
@<TRIPOS>COMMENT
> <Gold.Version>
2022.3.0

> <Gold.Id.Protein>
unknown|4d1n_clean|pdb

> <Gold.Protein.RotatedTorsions>
[ 1594 1544 1543 1542 ] final    6.42 input   60.00 | X-H torsion
[ 4304 4284 4283 4280 ] final  -41.84 input   59.98 | X-H torsion
[ 4344 4323 4324 4325 ] final   70.30 input  122.59 | X-H torsion
[ 4348 4328 4327 4324 ] final   47.45 input   59.99 | X-H torsion
[ 6708 6672 6671 6669 ] final  -71.59 input   60.02 | X-H torsion
[ 23762 23712 23713 23714 ] final  -78.22 input   58.31 | X-H torsion
[ 23800 23787 23788 23789 ] final   68.70 input  -92.91 | X-H torsion
[ 6926 6895 6896 6897 ] final   70.77 input  109.21 | X-H torsion
[ 4168 4129 4130 4131 ] final   -5.50 input  118.46 | X-H torsion
[ 4085 4052 4053 4054 ] final -126.46 input  111.71 | X-H torsion
[ 1354 1313 1314 1315 ] final  -79.27 input  117.91 | X-H torsion
[ 1584 1536 1537 1538 ] final   51.43 input   95.51 | X-H torsion
[ 23828 23815 23816 23817 ] final   77.13 input  -25.33 | X-H torsion
[ 1288 1260 1258 1255 ] final  106.17 input   59.99 | X-H torsion
[ 25744 25716 25717 25718 ] final   60.18 input   66.04 | X-H torsion
[ 27193 4055 4054 4053 ] final -170.74 input   -0.00 | X-H torsion
[ 27195 4282 4281 4280 ] final   -2.11 input    0.00 | X-H torsion
[ 27200 4326 4325 4324 ] final  -11.99 input    0.00 | X-H torsion
[ 27211 23656 23655 23654 ] final -168.39 input   -0.00 | X-H torsion
[ 27214 23715 23714 23713 ] final -140.30 input    0.00 | X-H torsion
[ 27218 6898 6897 6896 ] final  169.95 input   -0.00 | X-H torsion
[ 27220 25719 25718 25717 ] final  156.30 input   -0.00 | X-H torsion
[ 27226 1316 1315 1314 ] final -179.50 input    0.00 | X-H torsion
[ 27230 23818 23817 23816 ] final   69.97 input    0.00 | X-H torsion
[ 27232 1257 1256 1255 ] final  -53.14 input    0.00 | X-H torsion

> <Gold.Protein.ActiveResidues>
 ARG304  THR320  LEU321  LEU323  LYS324  GLN369  TYR370  SER372  SER373  TYR408 
 HIS412  ARG415  ASN416  TRP426  GLU670  CYS673  ARG674  GLY675  GLY676  TYR703 
 LEU705  THR706  PRO707 

> <Gold.Protein.RotatedAtoms>
  221.4019    4.3932   37.7034 H   0  0  0  0  0  0  0  0  0  0  0  0  # atno 1288 bound_to 1260
  222.4566    7.0020   38.0807 H   0  0  0  0  0  0  0  0  0  0  0  0  # atno 1354 bound_to 1313
  223.9807    9.5037   42.4555 H   0  0  0  0  0  0  0  0  0  0  0  0  # atno 1584 bound_to 1536
  223.4985    4.4659   45.6152 H   0  0  0  0  0  0  0  0  0  0  0  0  # atno 1594 bound_to 1544
  222.2128    3.7167   44.8853 H   0  0  0  0  0  0  0  0  0  0  0  0  # atno 1595 bound_to 1544
  223.4656    2.8133   45.4885 H   0  0  0  0  0  0  0  0  0  0  0  0  # atno 1596 bound_to 1544
  227.2025    0.5149   51.2894 H   0  0  0  0  0  0  0  0  0  0  0  0  # atno 4085 bound_to 4052
  229.4434   -1.0882   50.2465 H   0  0  0  0  0  0  0  0  0  0  0  0  # atno 4168 bound_to 4129
  226.2112   -3.2764   46.2178 H   0  0  0  0  0  0  0  0  0  0  0  0  # atno 4304 bound_to 4284
  229.1501   -3.8905   47.8874 H   0  0  0  0  0  0  0  0  0  0  0  0  # atno 4344 bound_to 4323
  231.9735   -5.0099   46.4298 H   0  0  0  0  0  0  0  0  0  0  0  0  # atno 4348 bound_to 4328
  231.3720   -0.0247   46.9723 H   0  0  0  0  0  0  0  0  0  0  0  0  # atno 6708 bound_to 6672
  238.5519    2.6019   44.6111 H   0  0  0  0  0  0  0  0  0  0  0  0  # atno 6926 bound_to 6895
  226.2013   -0.3039   35.6062 H   0  0  0  0  0  0  0  0  0  0  0  0  # atno 23762 bound_to 23712
  225.8989    2.6288   36.4382 H   0  0  0  0  0  0  0  0  0  0  0  0  # atno 23800 bound_to 23787
  225.9883    4.8733   35.7602 H   0  0  0  0  0  0  0  0  0  0  0  0  # atno 23828 bound_to 23815
  231.0504    9.1678   46.2854 H   0  0  0  0  0  0  0  0  0  0  0  0  # atno 25744 bound_to 25716
  229.9928   -2.2835   48.2570 LP  0  0  0  0  0  0  0  0  0  0  0  0  # atno 27193 bound_to 4055
  228.7541   -1.2683   47.5976 LP  0  0  0  0  0  0  0  0  0  0  0  0  # atno 27194 bound_to 4055
  226.3834   -6.0100   46.7111 LP  0  0  0  0  0  0  0  0  0  0  0  0  # atno 27195 bound_to 4282
  227.7415   -5.7879   45.6593 LP  0  0  0  0  0  0  0  0  0  0  0  0  # atno 27196 bound_to 4282
  225.3195   -1.9507   46.5273 LP  0  0  0  0  0  0  0  0  0  0  0  0  # atno 27197 bound_to 4284
  224.7068   -3.4364   46.8174 LP  0  0  0  0  0  0  0  0  0  0  0  0  # atno 27198 bound_to 4284
  227.8010   -3.7629   46.7814 LP  0  0  0  0  0  0  0  0  0  0  0  0  # atno 27199 bound_to 4323
  229.9243   -6.0408   43.9620 LP  0  0  0  0  0  0  0  0  0  0  0  0  # atno 27200 bound_to 4326
  230.7229   -7.3089   44.8304 LP  0  0  0  0  0  0  0  0  0  0  0  0  # atno 27201 bound_to 4326
  231.6486   -3.9170   47.5910 LP  0  0  0  0  0  0  0  0  0  0  0  0  # atno 27202 bound_to 4328
  232.7790   -3.5961   46.4571 LP  0  0  0  0  0  0  0  0  0  0  0  0  # atno 27203 bound_to 4328
  231.7532   -0.3993   45.4350 LP  0  0  0  0  0  0  0  0  0  0  0  0  # atno 27204 bound_to 6672
  232.1299    1.0710   46.0374 LP  0  0  0  0  0  0  0  0  0  0  0  0  # atno 27205 bound_to 6672
  225.9960   -0.9176   37.5476 LP  0  0  0  0  0  0  0  0  0  0  0  0  # atno 27211 bound_to 23656
  226.3680   -2.4565   36.8450 LP  0  0  0  0  0  0  0  0  0  0  0  0  # atno 27212 bound_to 23656
  227.6047    0.5351   34.9811 LP  0  0  0  0  0  0  0  0  0  0  0  0  # atno 27213 bound_to 23712
  224.6035    3.2962   38.0050 LP  0  0  0  0  0  0  0  0  0  0  0  0  # atno 27214 bound_to 23715
  226.2769    3.3404   38.4497 LP  0  0  0  0  0  0  0  0  0  0  0  0  # atno 27215 bound_to 23715
  225.4310    1.8797   34.9303 LP  0  0  0  0  0  0  0  0  0  0  0  0  # atno 27216 bound_to 23787
  238.5179    2.0017   42.9757 LP  0  0  0  0  0  0  0  0  0  0  0  0  # atno 27217 bound_to 6895
  236.5661    6.5396   42.5786 LP  0  0  0  0  0  0  0  0  0  0  0  0  # atno 27218 bound_to 6898
  235.9686    5.1036   41.8162 LP  0  0  0  0  0  0  0  0  0  0  0  0  # atno 27219 bound_to 6898
  232.1335    5.9734   46.5372 LP  0  0  0  0  0  0  0  0  0  0  0  0  # atno 27220 bound_to 25719
  231.1682    7.3173   47.0490 LP  0  0  0  0  0  0  0  0  0  0  0  0  # atno 27221 bound_to 25719
  230.7483    0.0667   50.3225 LP  0  0  0  0  0  0  0  0  0  0  0  0  # atno 27222 bound_to 4129
  228.9077    0.6901   51.6105 LP  0  0  0  0  0  0  0  0  0  0  0  0  # atno 27223 bound_to 4052
  223.6642    7.2686   36.8492 LP  0  0  0  0  0  0  0  0  0  0  0  0  # atno 27225 bound_to 1313
  224.8829    9.3946   41.2528 LP  0  0  0  0  0  0  0  0  0  0  0  0  # atno 27226 bound_to 1316
  225.0547    7.6711   41.2621 LP  0  0  0  0  0  0  0  0  0  0  0  0  # atno 27227 bound_to 1316
  222.5660    8.8875   43.2764 LP  0  0  0  0  0  0  0  0  0  0  0  0  # atno 27228 bound_to 1536
  225.8948    4.4467   34.0702 LP  0  0  0  0  0  0  0  0  0  0  0  0  # atno 27229 bound_to 23815
  228.9683    4.6053   34.5627 LP  0  0  0  0  0  0  0  0  0  0  0  0  # atno 27230 bound_to 23818
  229.2343    5.4661   36.0420 LP  0  0  0  0  0  0  0  0  0  0  0  0  # atno 27231 bound_to 23818
  221.1893    8.1650   39.6025 LP  0  0  0  0  0  0  0  0  0  0  0  0  # atno 27232 bound_to 1257
  222.0993    6.7484   40.0087 LP  0  0  0  0  0  0  0  0  0  0  0  0  # atno 27233 bound_to 1257
  221.9112    5.1950   36.3819 LP  0  0  0  0  0  0  0  0  0  0  0  0  # atno 27234 bound_to 1260
  220.5815    4.2503   36.3050 LP  0  0  0  0  0  0  0  0  0  0  0  0  # atno 27235 bound_to 1260

> <Gold.Score>
     Fitness  S(hb_ext) S(vdw_ext)  S(hb_int)    S(int)      intcor
     42.58       6.04      27.75       0.00      -1.62      -0.76

> <Gold.Goldscore.Fitness>
42.5831

> <Gold.Goldscore.Internal.Vdw>
-1.8928

> <Gold.Goldscore.Internal.Torsion>
-0.4828

> <Gold.Goldscore.External.Vdw>
27.7534

> <Gold.Goldscore.Internal.HBond>
0.0000

> <Gold.Goldscore.External.HBond>
6.0394

> <Gold.Goldscore.Internal.Correction>
-0.7585

> <Gold.Goldscore.Hbonds>
donor molecule, donor type, donor heavy atom, donor atom, acceptor molecule, acceptor atom, score
      P1  H 23722 23774       L1     9  0.99
      L1  H    10    23       P1  4284  0.05

> <Gold.Goldscore.Internal.Vdw.Weighted>
-1.8928

> <Gold.Goldscore.Internal.Torsion.Weighted>
-0.4828

> <Gold.Goldscore.External.Vdw.Weighted>
38.1609

> <Gold.Goldscore.Internal.HBond.Weighted>
0.0000

> <Gold.Goldscore.External.HBond.Weighted>
6.0394

> <Gold.Goldscore.Internal.Correction.Weighted>
-0.7585

> <Gold.Rescore>
     Score     S(PLP)   S(hbond)     S(cho)   S(metal)  DE(clash)   DE(tors)     intcor
     36.98     -33.08       1.85       0.00       0.00       1.34       0.15       ----

> <Gold.PLP.Fitness>
36.9848

> <Gold.PLP.PLP>
-33.0835

> <Gold.PLP.part.hbond>
-3.7768

> <Gold.PLP.part.metal>
0.0000

> <Gold.PLP.part.buried>
-0.9672

> <Gold.PLP.part.nonpolar>
-33.4406

> <Gold.PLP.part.repulsive>
4.3586

> <Gold.PLP.ligand.clash>
1.3424

> <Gold.PLP.ligand.torsion>
0.1509

> <Gold.PLP.Chemscore.Hbond>
1.8485

> <Gold.PLP.Chemscore.CHOScore>
0.0000

> <Gold.PLP.Chemscore.Metal>
0.0000

> <Gold.Chemscore.Hbonds>
donor molecule, donor type, donor heavy atom, donor atom, acceptor molecule, acceptor atom, score
      L1  H     8    22       P1  6672  0.41
      P1  H 23722 23774       L1     9  1.00

> <Gold.PLP.Chemscore.Internal.Correction>
   9.000000E+99

