#       Name:                CT1002167954
#       Creating user name   hitesit
#       Creation time:       Sun Apr 16 20:36:21 2023


#       File generated by GOLD software.
#

@<TRIPOS>MOLECULE
CT1002167954|ligand_prepared|mol2|1|dock2
    29    30     1
SMALL
NO_CHARGES


@<TRIPOS>ATOM
      1 C1         228.0299   2.6301  44.1444 C.3            1 RES1               0.0000
      2 C2         228.1844   3.9704  44.8917 C.ar           1 RES1               0.0000
      3 C3         229.4281   2.0256  44.0553 C.2            1 RES1               0.0000
      4 C4         227.0436   1.7993  44.9578 C.2            1 RES1               0.0000
      5 C5         227.4652   2.7748  42.7120 C.3            1 RES1               0.0000
      6 C6         228.7877   5.0613  44.2729 C.ar           1 RES1               0.0000
      7 C7         227.7270   4.1318  46.1968 C.ar           1 RES1               0.0000
      8 N8         229.7105   0.9647  44.8643 N.am           1 RES1               0.0000
      9 O9         230.2823   2.4975  43.3151 O.2            1 RES1               0.0000
     10 N10        227.5064   0.6560  45.5548 N.am           1 RES1               0.0000
     11 O11        225.8739   2.1333  45.1010 O.2            1 RES1               0.0000
     12 C12        227.3864   1.4622  41.9484 C.3            1 RES1               0.0000
     13 C13        228.9261   6.2705  44.9339 C.ar           1 RES1               0.0000
     14 C14        227.8666   5.3419  46.8560 C.ar           1 RES1               0.0000
     15 C15        228.8024   0.2173  45.5703 C.2            1 RES1               0.0000
     16 C16        228.4653   6.4119  46.2255 C.ar           1 RES1               0.0000
     17 O17        229.1512  -0.7924  46.1754 O.2            1 RES1               0.0000
     18 H18        226.4598   3.2098  42.7711 H              1 RES1               0.0000
     19 H19        228.0997   3.4721  42.1510 H              1 RES1               0.0000
     20 H20        229.1586   4.9682  43.2577 H              1 RES1               0.0000
     21 H21        227.2537   3.3034  46.7129 H              1 RES1               0.0000
     22 H22        230.6872   0.7028  44.9526 H              1 RES1               0.0000
     23 H23        226.8214   0.0784  46.0316 H              1 RES1               0.0000
     24 H24        226.9837   1.6203  40.9501 H              1 RES1               0.0000
     25 H25        228.3729   1.0141  41.8489 H              1 RES1               0.0000
     26 H26        226.7427   0.7534  42.4652 H              1 RES1               0.0000
     27 H27        229.3993   7.1091  44.4337 H              1 RES1               0.0000
     28 H28        227.5030   5.4484  47.8727 H              1 RES1               0.0000
     29 H29        228.5735   7.3594  46.7429 H              1 RES1               0.0000
@<TRIPOS>BOND
    1    1    2 1     
    2    1    3 1     
    3    1    4 1     
    4    1    5 1     
    5    2    6 ar    
    6    2    7 ar    
    7    3    8 1     
    8    3    9 2     
    9    4   10 1     
   10    4   11 2     
   11    5   12 1     
   12    5   18 1     
   13    5   19 1     
   14    6   13 ar    
   15    6   20 1     
   16    7   14 ar    
   17    7   21 1     
   18    8   15 1     
   19    8   22 1     
   20   10   15 1     
   21   10   23 1     
   22   12   24 1     
   23   12   25 1     
   24   12   26 1     
   25   13   16 ar    
   26   13   27 1     
   27   14   16 ar    
   28   14   28 1     
   29   15   17 2     
   30   16   29 1     
@<TRIPOS>SUBSTRUCTURE
      1 RES1           1
@<TRIPOS>SET
DONOR_HYDROGENS      STATIC     ATOMS    <user>   **** ""
2 22 23
ATOM$RED        STATIC     ATOMS    COLORGROUP SYSTEM
2 22 23
@<TRIPOS>COMMENT
> <Gold.Version>
2022.3.0

> <Gold.Id.Protein>
unknown|4d1n_clean|pdb

> <Gold.Protein.RotatedTorsions>
[ 1594 1544 1543 1542 ] final -131.14 input   60.00 | X-H torsion
[ 4304 4284 4283 4280 ] final  162.49 input   59.98 | X-H torsion
[ 4344 4323 4324 4325 ] final  162.37 input  122.59 | X-H torsion
[ 4348 4328 4327 4324 ] final  -88.63 input   59.99 | X-H torsion
[ 6708 6672 6671 6669 ] final  -39.01 input   60.02 | X-H torsion
[ 23762 23712 23713 23714 ] final -114.53 input   58.31 | X-H torsion
[ 23800 23787 23788 23789 ] final  137.95 input  -92.91 | X-H torsion
[ 6926 6895 6896 6897 ] final  -22.14 input  109.21 | X-H torsion
[ 4168 4129 4130 4131 ] final  142.73 input  118.46 | X-H torsion
[ 4085 4052 4053 4054 ] final   64.04 input  111.71 | X-H torsion
[ 1354 1313 1314 1315 ] final  -30.41 input  117.91 | X-H torsion
[ 1584 1536 1537 1538 ] final  -60.37 input   95.51 | X-H torsion
[ 23828 23815 23816 23817 ] final -115.36 input  -25.33 | X-H torsion
[ 1288 1260 1258 1255 ] final   90.47 input   59.99 | X-H torsion
[ 25744 25716 25717 25718 ] final -145.25 input   66.04 | X-H torsion
[ 27193 4055 4054 4053 ] final  -87.28 input   -0.00 | X-H torsion
[ 27195 4282 4281 4280 ] final -160.45 input    0.00 | X-H torsion
[ 27200 4326 4325 4324 ] final   86.47 input    0.00 | X-H torsion
[ 27211 23656 23655 23654 ] final -148.43 input   -0.00 | X-H torsion
[ 27214 23715 23714 23713 ] final   45.99 input    0.00 | X-H torsion
[ 27218 6898 6897 6896 ] final   51.33 input   -0.00 | X-H torsion
[ 27220 25719 25718 25717 ] final  -44.97 input   -0.00 | X-H torsion
[ 27226 1316 1315 1314 ] final   70.31 input    0.00 | X-H torsion
[ 27230 23818 23817 23816 ] final -105.46 input    0.00 | X-H torsion
[ 27232 1257 1256 1255 ] final   42.75 input    0.00 | X-H torsion

> <Gold.Protein.ActiveResidues>
 ARG304  THR320  LEU321  LEU323  LYS324  GLN369  TYR370  SER372  SER373  TYR408 
 HIS412  ARG415  ASN416  TRP426  GLU670  CYS673  ARG674  GLY675  GLY676  TYR703 
 LEU705  THR706  PRO707 

> <Gold.Protein.RotatedAtoms>
  221.6044    4.5480   37.6816 H   0  0  0  0  0  0  0  0  0  0  0  0  # atno 1288 bound_to 1260
  222.5959    7.7028   37.9425 H   0  0  0  0  0  0  0  0  0  0  0  0  # atno 1354 bound_to 1313
  222.8846    9.8088   43.3778 H   0  0  0  0  0  0  0  0  0  0  0  0  # atno 1584 bound_to 1536
  223.2224    2.7228   45.3543 H   0  0  0  0  0  0  0  0  0  0  0  0  # atno 1594 bound_to 1544
  223.6966    4.2714   45.7069 H   0  0  0  0  0  0  0  0  0  0  0  0  # atno 1595 bound_to 1544
  222.2579    4.0019   44.9278 H   0  0  0  0  0  0  0  0  0  0  0  0  # atno 1596 bound_to 1544
  228.8883    0.8490   51.6010 H   0  0  0  0  0  0  0  0  0  0  0  0  # atno 4085 bound_to 4052
  230.6620   -0.0490   50.7780 H   0  0  0  0  0  0  0  0  0  0  0  0  # atno 4168 bound_to 4129
  224.8343   -2.1843   46.7304 H   0  0  0  0  0  0  0  0  0  0  0  0  # atno 4304 bound_to 4284
  228.6387   -2.9712   47.1640 H   0  0  0  0  0  0  0  0  0  0  0  0  # atno 4344 bound_to 4323
  231.7976   -3.7028   47.5596 H   0  0  0  0  0  0  0  0  0  0  0  0  # atno 4348 bound_to 4328
  231.5482    0.4671   47.0290 H   0  0  0  0  0  0  0  0  0  0  0  0  # atno 6708 bound_to 6672
  239.0339    2.9539   43.4936 H   0  0  0  0  0  0  0  0  0  0  0  0  # atno 6926 bound_to 6895
  226.6548   -0.5620   35.7942 H   0  0  0  0  0  0  0  0  0  0  0  0  # atno 23762 bound_to 23712
  225.1882    1.9246   36.3470 H   0  0  0  0  0  0  0  0  0  0  0  0  # atno 23800 bound_to 23787
  225.7203    4.5232   34.0666 H   0  0  0  0  0  0  0  0  0  0  0  0  # atno 23828 bound_to 23815
  232.1440   10.3306   45.6266 H   0  0  0  0  0  0  0  0  0  0  0  0  # atno 25744 bound_to 25716
  228.8453   -2.3023   48.3678 LP  0  0  0  0  0  0  0  0  0  0  0  0  # atno 27193 bound_to 4055
  229.9015   -1.2495   47.4869 LP  0  0  0  0  0  0  0  0  0  0  0  0  # atno 27194 bound_to 4055
  227.8637   -6.0010   45.8729 LP  0  0  0  0  0  0  0  0  0  0  0  0  # atno 27195 bound_to 4282
  226.2612   -5.7969   46.4975 LP  0  0  0  0  0  0  0  0  0  0  0  0  # atno 27196 bound_to 4282
  225.1410   -3.7808   46.6557 LP  0  0  0  0  0  0  0  0  0  0  0  0  # atno 27197 bound_to 4284
  226.2715   -2.7058   46.1728 LP  0  0  0  0  0  0  0  0  0  0  0  0  # atno 27198 bound_to 4284
  228.2982   -4.6567   47.4847 LP  0  0  0  0  0  0  0  0  0  0  0  0  # atno 27199 bound_to 4323
  231.1348   -6.3771   44.3388 LP  0  0  0  0  0  0  0  0  0  0  0  0  # atno 27200 bound_to 4326
  229.5124   -6.9726   44.4536 LP  0  0  0  0  0  0  0  0  0  0  0  0  # atno 27201 bound_to 4326
  232.8058   -3.7947   46.2854 LP  0  0  0  0  0  0  0  0  0  0  0  0  # atno 27202 bound_to 4328
  231.7990   -5.0349   46.6247 LP  0  0  0  0  0  0  0  0  0  0  0  0  # atno 27203 bound_to 4328
  231.5157   -0.6435   45.8397 LP  0  0  0  0  0  0  0  0  0  0  0  0  # atno 27204 bound_to 6672
  232.1900    0.8201   45.5756 LP  0  0  0  0  0  0  0  0  0  0  0  0  # atno 27205 bound_to 6672
  225.7337   -0.9791   37.4151 LP  0  0  0  0  0  0  0  0  0  0  0  0  # atno 27211 bound_to 23656
  226.6302   -2.3950   36.9776 LP  0  0  0  0  0  0  0  0  0  0  0  0  # atno 27212 bound_to 23656
  227.1665    0.7844   34.7994 LP  0  0  0  0  0  0  0  0  0  0  0  0  # atno 27213 bound_to 23712
  226.2830    3.4201   38.3985 LP  0  0  0  0  0  0  0  0  0  0  0  0  # atno 27214 bound_to 23715
  224.5973    3.2165   38.0562 LP  0  0  0  0  0  0  0  0  0  0  0  0  # atno 27215 bound_to 23715
  226.1251    2.5674   35.0193 LP  0  0  0  0  0  0  0  0  0  0  0  0  # atno 27216 bound_to 23787
  238.0390    1.6519   44.0860 LP  0  0  0  0  0  0  0  0  0  0  0  0  # atno 27217 bound_to 6895
  235.5229    5.4809   42.4799 LP  0  0  0  0  0  0  0  0  0  0  0  0  # atno 27218 bound_to 6898
  237.0117    6.1623   41.9149 LP  0  0  0  0  0  0  0  0  0  0  0  0  # atno 27219 bound_to 6898
  231.2029    7.1609   47.3256 LP  0  0  0  0  0  0  0  0  0  0  0  0  # atno 27220 bound_to 25719
  232.0988    6.1298   46.2606 LP  0  0  0  0  0  0  0  0  0  0  0  0  # atno 27221 bound_to 25719
  229.5440   -0.9604   49.7973 LP  0  0  0  0  0  0  0  0  0  0  0  0  # atno 27222 bound_to 4129
  227.2411    0.3598   51.3025 LP  0  0  0  0  0  0  0  0  0  0  0  0  # atno 27223 bound_to 4052
  223.5272    6.5791   36.9852 LP  0  0  0  0  0  0  0  0  0  0  0  0  # atno 27225 bound_to 1313
  225.7823    8.3126   41.0580 LP  0  0  0  0  0  0  0  0  0  0  0  0  # atno 27226 bound_to 1316
  224.1554    8.7531   41.4569 LP  0  0  0  0  0  0  0  0  0  0  0  0  # atno 27227 bound_to 1316
  223.6362    8.5896   42.3759 LP  0  0  0  0  0  0  0  0  0  0  0  0  # atno 27228 bound_to 1536
  226.1583    4.7908   35.7349 LP  0  0  0  0  0  0  0  0  0  0  0  0  # atno 27229 bound_to 23815
  229.1747    5.4398   36.0648 LP  0  0  0  0  0  0  0  0  0  0  0  0  # atno 27230 bound_to 23818
  229.0279    4.6316   34.5399 LP  0  0  0  0  0  0  0  0  0  0  0  0  # atno 27231 bound_to 23818
  221.0018    6.8941   39.6622 LP  0  0  0  0  0  0  0  0  0  0  0  0  # atno 27232 bound_to 1257
  222.2868    8.0194   39.9490 LP  0  0  0  0  0  0  0  0  0  0  0  0  # atno 27233 bound_to 1257
  221.7598    5.1515   36.1781 LP  0  0  0  0  0  0  0  0  0  0  0  0  # atno 27234 bound_to 1260
  220.5291    4.1379   36.5308 LP  0  0  0  0  0  0  0  0  0  0  0  0  # atno 27235 bound_to 1260

> <Gold.Score>
     Fitness  S(hb_ext) S(vdw_ext)  S(hb_int)    S(int)      intcor
     44.07       6.12      29.24       0.00      -2.26      -0.76

> <Gold.Goldscore.Fitness>
44.0667

> <Gold.Goldscore.Internal.Vdw>
-2.6316

> <Gold.Goldscore.Internal.Torsion>
-0.3848

> <Gold.Goldscore.External.Vdw>
29.2375

> <Gold.Goldscore.Internal.HBond>
0.0000

> <Gold.Goldscore.External.HBond>
6.1230

> <Gold.Goldscore.Internal.Correction>
-0.7585

> <Gold.Goldscore.Hbonds>
donor molecule, donor type, donor heavy atom, donor atom, acceptor molecule, acceptor atom, score
      P1  H  4323  4344       L1    17  0.03
      P1  H 23722 23774       L1     9  1.00
      L1  H     8    22       P1  6672  0.03

> <Gold.Goldscore.Internal.Vdw.Weighted>
-2.6316

> <Gold.Goldscore.Internal.Torsion.Weighted>
-0.3848

> <Gold.Goldscore.External.Vdw.Weighted>
40.2016

> <Gold.Goldscore.Internal.HBond.Weighted>
0.0000

> <Gold.Goldscore.External.HBond.Weighted>
6.1230

> <Gold.Goldscore.Internal.Correction.Weighted>
-0.7585

> <Gold.Rescore>
     Score     S(PLP)   S(hbond)     S(cho)   S(metal)  DE(clash)   DE(tors)     intcor
     36.36     -32.82       1.69       0.00       0.00       1.23       0.16       ----

> <Gold.PLP.Fitness>
36.3564

> <Gold.PLP.PLP>
-32.8232

> <Gold.PLP.part.hbond>
-3.9552

> <Gold.PLP.part.metal>
0.0000

> <Gold.PLP.part.buried>
-0.6878

> <Gold.PLP.part.nonpolar>
-33.9695

> <Gold.PLP.part.repulsive>
4.4941

> <Gold.PLP.ligand.clash>
1.2290

> <Gold.PLP.ligand.torsion>
0.1594

> <Gold.PLP.Chemscore.Hbond>
1.6937

> <Gold.PLP.Chemscore.CHOScore>
0.0000

> <Gold.PLP.Chemscore.Metal>
0.0000

> <Gold.Chemscore.Hbonds>
donor molecule, donor type, donor heavy atom, donor atom, acceptor molecule, acceptor atom, score
      L1  H     8    22       P1  6672  0.56
      P1  H  4323  4344       L1    17  0.10
      P1  H 23722 23774       L1     9  1.00

> <Gold.PLP.Chemscore.Internal.Correction>
   9.000000E+99

