#       Name:                CT1002167954
#       Creating user name   hitesit
#       Creation time:       Sun Apr 16 20:36:23 2023


#       File generated by GOLD software.
#

@<TRIPOS>MOLECULE
CT1002167954|ligand_prepared|mol2|1|dock4
    29    30     1
SMALL
NO_CHARGES


@<TRIPOS>ATOM
      1 C1         228.5848   0.5535  43.7565 C.3            1 RES1               0.0000
      2 C2         227.8966   1.5559  44.7054 C.ar           1 RES1               0.0000
      3 C3         227.9102  -0.7942  43.9946 C.2            1 RES1               0.0000
      4 C4         228.3971   1.1028  42.3467 C.2            1 RES1               0.0000
      5 C5         230.1022   0.3947  44.0093 C.3            1 RES1               0.0000
      6 C6         226.6305   1.2910  45.2188 C.ar           1 RES1               0.0000
      7 C7         228.5152   2.7464  45.0778 C.ar           1 RES1               0.0000
      8 N8         227.0520  -1.2491  43.0372 N.am           1 RES1               0.0000
      9 O9         228.0978  -1.4297  45.0247 O.2            1 RES1               0.0000
     10 N10        227.6221   0.3833  41.4751 N.am           1 RES1               0.0000
     11 O11        228.8997   2.1606  41.9877 O.2            1 RES1               0.0000
     12 C12        230.7234  -0.7902  43.2866 C.3            1 RES1               0.0000
     13 C13        226.0067   2.1823  46.0758 C.ar           1 RES1               0.0000
     14 C14        227.8894   3.6365  45.9348 C.ar           1 RES1               0.0000
     15 C15        226.9160  -0.7520  41.7659 C.2            1 RES1               0.0000
     16 C16        226.6357   3.3554  46.4348 C.ar           1 RES1               0.0000
     17 O17        226.1971  -1.3122  40.9434 O.2            1 RES1               0.0000
     18 H18        230.6116   1.3113  43.6873 H              1 RES1               0.0000
     19 H19        230.2704   0.2786  45.0871 H              1 RES1               0.0000
     20 H20        226.1189   0.3741  44.9456 H              1 RES1               0.0000
     21 H21        229.5011   2.9889  44.6959 H              1 RES1               0.0000
     22 H22        226.4562  -2.0311  43.2899 H              1 RES1               0.0000
     23 H23        227.5666   0.7258  40.5212 H              1 RES1               0.0000
     24 H24        231.7886  -0.8557  43.4981 H              1 RES1               0.0000
     25 H25        230.2576  -1.7216  43.6017 H              1 RES1               0.0000
     26 H26        230.5968  -0.6951  42.2102 H              1 RES1               0.0000
     27 H27        225.0194   1.9570  46.4654 H              1 RES1               0.0000
     28 H28        228.3880   4.5588  46.2141 H              1 RES1               0.0000
     29 H29        226.1470   4.0533  47.1065 H              1 RES1               0.0000
@<TRIPOS>BOND
    1    1    2 1     
    2    1    3 1     
    3    1    4 1     
    4    1    5 1     
    5    2    6 ar    
    6    2    7 ar    
    7    3    8 1     
    8    3    9 2     
    9    4   10 1     
   10    4   11 2     
   11    5   12 1     
   12    5   18 1     
   13    5   19 1     
   14    6   13 ar    
   15    6   20 1     
   16    7   14 ar    
   17    7   21 1     
   18    8   15 1     
   19    8   22 1     
   20   10   15 1     
   21   10   23 1     
   22   12   24 1     
   23   12   25 1     
   24   12   26 1     
   25   13   16 ar    
   26   13   27 1     
   27   14   16 ar    
   28   14   28 1     
   29   15   17 2     
   30   16   29 1     
@<TRIPOS>SUBSTRUCTURE
      1 RES1           1
@<TRIPOS>SET
DONOR_HYDROGENS      STATIC     ATOMS    <user>   **** ""
2 22 23
ATOM$RED        STATIC     ATOMS    COLORGROUP SYSTEM
2 22 23
@<TRIPOS>COMMENT
> <Gold.Version>
2022.3.0

> <Gold.Id.Protein>
unknown|4d1n_clean|pdb

> <Gold.Protein.RotatedTorsions>
[ 1594 1544 1543 1542 ] final -140.98 input   60.00 | X-H torsion
[ 4304 4284 4283 4280 ] final   33.77 input   59.98 | X-H torsion
[ 4344 4323 4324 4325 ] final   72.81 input  122.59 | X-H torsion
[ 4348 4328 4327 4324 ] final  161.00 input   59.99 | X-H torsion
[ 6708 6672 6671 6669 ] final  -68.31 input   60.02 | X-H torsion
[ 23762 23712 23713 23714 ] final   59.83 input   58.31 | X-H torsion
[ 23800 23787 23788 23789 ] final   -9.95 input  -92.91 | X-H torsion
[ 6926 6895 6896 6897 ] final  160.00 input  109.21 | X-H torsion
[ 4168 4129 4130 4131 ] final -164.24 input  118.46 | X-H torsion
[ 4085 4052 4053 4054 ] final  138.53 input  111.71 | X-H torsion
[ 1354 1313 1314 1315 ] final -135.08 input  117.91 | X-H torsion
[ 1584 1536 1537 1538 ] final -100.75 input   95.51 | X-H torsion
[ 23828 23815 23816 23817 ] final   10.36 input  -25.33 | X-H torsion
[ 1288 1260 1258 1255 ] final    6.81 input   59.99 | X-H torsion
[ 25744 25716 25717 25718 ] final  121.32 input   66.04 | X-H torsion
[ 27193 4055 4054 4053 ] final  100.04 input   -0.00 | X-H torsion
[ 27195 4282 4281 4280 ] final   52.57 input    0.00 | X-H torsion
[ 27200 4326 4325 4324 ] final   42.47 input    0.00 | X-H torsion
[ 27211 23656 23655 23654 ] final -131.70 input   -0.00 | X-H torsion
[ 27214 23715 23714 23713 ] final  -85.23 input    0.00 | X-H torsion
[ 27218 6898 6897 6896 ] final  -85.26 input   -0.00 | X-H torsion
[ 27220 25719 25718 25717 ] final  -97.46 input   -0.00 | X-H torsion
[ 27226 1316 1315 1314 ] final  -35.55 input    0.00 | X-H torsion
[ 27230 23818 23817 23816 ] final  136.37 input    0.00 | X-H torsion
[ 27232 1257 1256 1255 ] final -142.54 input    0.00 | X-H torsion

> <Gold.Protein.ActiveResidues>
 ARG304  THR320  LEU321  LEU323  LYS324  GLN369  TYR370  SER372  SER373  TYR408 
 HIS412  ARG415  ASN416  TRP426  GLU670  CYS673  ARG674  GLY675  GLY676  TYR703 
 LEU705  THR706  PRO707 

> <Gold.Protein.RotatedAtoms>
  222.0328    5.1842   36.6956 H   0  0  0  0  0  0  0  0  0  0  0  0  # atno 1288 bound_to 1260
  222.7974    6.3418   37.7260 H   0  0  0  0  0  0  0  0  0  0  0  0  # atno 1354 bound_to 1313
  222.5762    9.2835   43.4180 H   0  0  0  0  0  0  0  0  0  0  0  0  # atno 1584 bound_to 1536
  223.0781    2.7100   45.2771 H   0  0  0  0  0  0  0  0  0  0  0  0  # atno 1594 bound_to 1544
  223.7823    4.1362   45.7433 H   0  0  0  0  0  0  0  0  0  0  0  0  # atno 1595 bound_to 1544
  222.3165    4.1498   44.9685 H   0  0  0  0  0  0  0  0  0  0  0  0  # atno 1596 bound_to 1544
  228.0663    1.4750   51.3574 H   0  0  0  0  0  0  0  0  0  0  0  0  # atno 4085 bound_to 4052
  230.6948    0.0734   50.0050 H   0  0  0  0  0  0  0  0  0  0  0  0  # atno 4168 bound_to 4129
  225.2725   -3.8101   46.6074 H   0  0  0  0  0  0  0  0  0  0  0  0  # atno 4304 bound_to 4284
  229.1579   -3.8531   47.8809 H   0  0  0  0  0  0  0  0  0  0  0  0  # atno 4344 bound_to 4323
  232.7903   -3.6740   46.3861 H   0  0  0  0  0  0  0  0  0  0  0  0  # atno 4348 bound_to 4328
  231.3850    0.0239   46.9907 H   0  0  0  0  0  0  0  0  0  0  0  0  # atno 6708 bound_to 6672
  238.0509    1.6251   44.0614 H   0  0  0  0  0  0  0  0  0  0  0  0  # atno 6926 bound_to 6895
  227.0901    0.8385   34.7886 H   0  0  0  0  0  0  0  0  0  0  0  0  # atno 23762 bound_to 23712
  226.2905    2.8095   35.4039 H   0  0  0  0  0  0  0  0  0  0  0  0  # atno 23800 bound_to 23787
  226.6961    4.4109   35.2871 H   0  0  0  0  0  0  0  0  0  0  0  0  # atno 23828 bound_to 23815
  231.2165   10.0331   46.4704 H   0  0  0  0  0  0  0  0  0  0  0  0  # atno 25744 bound_to 25716
  229.9843   -1.3112   47.5263 LP  0  0  0  0  0  0  0  0  0  0  0  0  # atno 27193 bound_to 4055
  228.7625   -2.2406   48.3284 LP  0  0  0  0  0  0  0  0  0  0  0  0  # atno 27194 bound_to 4055
  226.2937   -5.5095   46.0993 LP  0  0  0  0  0  0  0  0  0  0  0  0  # atno 27195 bound_to 4282
  227.8312   -6.2884   46.2711 LP  0  0  0  0  0  0  0  0  0  0  0  0  # atno 27196 bound_to 4282
  226.2343   -2.5678   46.1833 LP  0  0  0  0  0  0  0  0  0  0  0  0  # atno 27197 bound_to 4284
  224.7370   -2.2819   46.7691 LP  0  0  0  0  0  0  0  0  0  0  0  0  # atno 27198 bound_to 4284
  227.7934   -3.7993   46.7878 LP  0  0  0  0  0  0  0  0  0  0  0  0  # atno 27199 bound_to 4323
  230.7105   -5.9847   44.0441 LP  0  0  0  0  0  0  0  0  0  0  0  0  # atno 27200 bound_to 4326
  229.9367   -7.3650   44.7483 LP  0  0  0  0  0  0  0  0  0  0  0  0  # atno 27201 bound_to 4326
  231.9011   -5.0319   46.5040 LP  0  0  0  0  0  0  0  0  0  0  0  0  # atno 27202 bound_to 4328
  231.7039   -3.8267   47.5881 LP  0  0  0  0  0  0  0  0  0  0  0  0  # atno 27203 bound_to 4328
  231.7280   -0.4345   45.4672 LP  0  0  0  0  0  0  0  0  0  0  0  0  # atno 27204 bound_to 6672
  232.1420    1.0573   45.9866 LP  0  0  0  0  0  0  0  0  0  0  0  0  # atno 27205 bound_to 6672
  225.5542   -1.0967   37.2829 LP  0  0  0  0  0  0  0  0  0  0  0  0  # atno 27211 bound_to 23656
  226.8097   -2.2774   37.1098 LP  0  0  0  0  0  0  0  0  0  0  0  0  # atno 27212 bound_to 23656
  226.7459   -0.5688   35.7711 LP  0  0  0  0  0  0  0  0  0  0  0  0  # atno 27213 bound_to 23712
  224.8775    2.7077   38.4736 LP  0  0  0  0  0  0  0  0  0  0  0  0  # atno 27214 bound_to 23715
  226.0028    3.9289   37.9811 LP  0  0  0  0  0  0  0  0  0  0  0  0  # atno 27215 bound_to 23715
  225.0486    1.7032   35.9403 LP  0  0  0  0  0  0  0  0  0  0  0  0  # atno 27216 bound_to 23787
  239.0156    2.9721   43.5219 LP  0  0  0  0  0  0  0  0  0  0  0  0  # atno 27217 bound_to 6895
  236.8534    5.6348   41.5878 LP  0  0  0  0  0  0  0  0  0  0  0  0  # atno 27218 bound_to 6898
  235.6813    6.0084   42.8070 LP  0  0  0  0  0  0  0  0  0  0  0  0  # atno 27219 bound_to 6898
  231.5206    6.5404   47.6428 LP  0  0  0  0  0  0  0  0  0  0  0  0  # atno 27220 bound_to 25719
  231.7811    6.7502   45.9433 LP  0  0  0  0  0  0  0  0  0  0  0  0  # atno 27221 bound_to 25719
  229.5116   -1.0813   50.5611 LP  0  0  0  0  0  0  0  0  0  0  0  0  # atno 27222 bound_to 4129
  228.0537   -0.2591   51.5432 LP  0  0  0  0  0  0  0  0  0  0  0  0  # atno 27223 bound_to 4052
  223.3289    7.9183   37.1982 LP  0  0  0  0  0  0  0  0  0  0  0  0  # atno 27225 bound_to 1313
  224.5468    7.7878   41.3873 LP  0  0  0  0  0  0  0  0  0  0  0  0  # atno 27226 bound_to 1316
  225.3908    9.2779   41.1276 LP  0  0  0  0  0  0  0  0  0  0  0  0  # atno 27227 bound_to 1316
  223.9374    9.1025   42.3366 LP  0  0  0  0  0  0  0  0  0  0  0  0  # atno 27228 bound_to 1536
  225.1991    4.9011   34.5352 LP  0  0  0  0  0  0  0  0  0  0  0  0  # atno 27229 bound_to 23815
  229.7288    5.1507   34.7167 LP  0  0  0  0  0  0  0  0  0  0  0  0  # atno 27230 bound_to 23818
  228.4738    4.9207   35.8880 LP  0  0  0  0  0  0  0  0  0  0  0  0  # atno 27231 bound_to 23818
  222.3324    7.9566   39.9687 LP  0  0  0  0  0  0  0  0  0  0  0  0  # atno 27232 bound_to 1257
  220.9562    6.9569   39.6426 LP  0  0  0  0  0  0  0  0  0  0  0  0  # atno 27233 bound_to 1257
  220.7308    4.4374   36.0667 LP  0  0  0  0  0  0  0  0  0  0  0  0  # atno 27234 bound_to 1260
  221.1268    4.2116   37.6347 LP  0  0  0  0  0  0  0  0  0  0  0  0  # atno 27235 bound_to 1260

> <Gold.Score>
     Fitness  S(hb_ext) S(vdw_ext)  S(hb_int)    S(int)      intcor
     35.35       6.18      22.08       0.00      -1.18      -0.76

> <Gold.Goldscore.Fitness>
35.3520

> <Gold.Goldscore.Internal.Vdw>
-1.3399

> <Gold.Goldscore.Internal.Torsion>
-0.6031

> <Gold.Goldscore.External.Vdw>
22.0782

> <Gold.Goldscore.Internal.HBond>
0.0000

> <Gold.Goldscore.External.HBond>
6.1789

> <Gold.Goldscore.Internal.Correction>
-0.7585

> <Gold.Goldscore.Hbonds>
donor molecule, donor type, donor heavy atom, donor atom, acceptor molecule, acceptor atom, score
      P1  H 23719 23770       L1    11  1.00
      P1  H 23722 23774       L1    11  0.03

> <Gold.Goldscore.Internal.Vdw.Weighted>
-1.3399

> <Gold.Goldscore.Internal.Torsion.Weighted>
-0.6031

> <Gold.Goldscore.External.Vdw.Weighted>
30.3576

> <Gold.Goldscore.Internal.HBond.Weighted>
0.0000

> <Gold.Goldscore.External.HBond.Weighted>
6.1789

> <Gold.Goldscore.Internal.Correction.Weighted>
-0.7585

> <Gold.Rescore>
     Score     S(PLP)   S(hbond)     S(cho)   S(metal)  DE(clash)   DE(tors)     intcor
     34.87     -31.76       1.83       0.00       0.00       0.53       0.93       ----

> <Gold.PLP.Fitness>
34.8722

> <Gold.PLP.PLP>
-31.7596

> <Gold.PLP.part.hbond>
-2.2555

> <Gold.PLP.part.metal>
0.0000

> <Gold.PLP.part.buried>
-4.7586

> <Gold.PLP.part.nonpolar>
-25.0110

> <Gold.PLP.part.repulsive>
0.2311

> <Gold.PLP.ligand.clash>
0.5251

> <Gold.PLP.ligand.torsion>
0.9322

> <Gold.PLP.Chemscore.Hbond>
1.8340

> <Gold.PLP.Chemscore.CHOScore>
0.0000

> <Gold.PLP.Chemscore.Metal>
0.0000

> <Gold.Chemscore.Hbonds>
donor molecule, donor type, donor heavy atom, donor atom, acceptor molecule, acceptor atom, score
      P1  H 23719 23770       L1    11  1.00

> <Gold.PLP.Chemscore.Internal.Correction>
   9.000000E+99

