#       Name:                CT1002167954
#       Creating user name   hitesit
#       Creation time:       Sun Apr 16 20:36:24 2023


#       File generated by GOLD software.
#

@<TRIPOS>MOLECULE
CT1002167954|ligand_prepared|mol2|1|dock6
    29    30     1
SMALL
NO_CHARGES


@<TRIPOS>ATOM
      1 C1         228.9067  -0.6005  42.2258 C.3            1 RES1               0.0000
      2 C2         228.2803  -0.0169  43.5087 C.ar           1 RES1               0.0000
      3 C3         230.2925   0.0260  42.1024 C.2            1 RES1               0.0000
      4 C4         228.9223  -2.1140  42.4091 C.2            1 RES1               0.0000
      5 C5         228.1079  -0.2831  40.9402 C.3            1 RES1               0.0000
      6 C6         227.6320   1.2143  43.4839 C.ar           1 RES1               0.0000
      7 C7         228.3402  -0.6979  44.7216 C.ar           1 RES1               0.0000
      8 N8         231.3695  -0.7620  42.3837 N.am           1 RES1               0.0000
      9 O9         230.4365   1.2045  41.8013 O.2            1 RES1               0.0000
     10 N10        230.1393  -2.7378  42.4961 N.am           1 RES1               0.0000
     11 O11        227.8915  -2.7701  42.4956 O.2            1 RES1               0.0000
     12 C12        228.5528  -1.0862  39.7280 C.3            1 RES1               0.0000
     13 C13        227.0616   1.7441  44.6294 C.ar           1 RES1               0.0000
     14 C14        227.7693  -0.1662  45.8661 C.ar           1 RES1               0.0000
     15 C15        231.3632  -2.1267  42.5225 C.2            1 RES1               0.0000
     16 C16        227.1295   1.0542  45.8210 C.ar           1 RES1               0.0000
     17 O17        232.4112  -2.7516  42.6581 O.2            1 RES1               0.0000
     18 H18        227.0455  -0.4836  41.1260 H              1 RES1               0.0000
     19 H19        228.2130   0.7851  40.7138 H              1 RES1               0.0000
     20 H20        227.5707   1.7729  42.5558 H              1 RES1               0.0000
     21 H21        228.8395  -1.6591  44.7808 H              1 RES1               0.0000
     22 H22        232.2620  -0.2933  42.5017 H              1 RES1               0.0000
     23 H23        230.1321  -3.7516  42.5456 H              1 RES1               0.0000
     24 H24        227.9603  -0.8250  38.8537 H              1 RES1               0.0000
     25 H25        229.5985  -0.8918  39.4991 H              1 RES1               0.0000
     26 H26        228.4380  -2.1530  39.9088 H              1 RES1               0.0000
     27 H27        226.5603   2.7056  44.5890 H              1 RES1               0.0000
     28 H28        227.8257  -0.7124  46.8018 H              1 RES1               0.0000
     29 H29        226.6823   1.4693  46.7182 H              1 RES1               0.0000
@<TRIPOS>BOND
    1    1    2 1     
    2    1    3 1     
    3    1    4 1     
    4    1    5 1     
    5    2    6 ar    
    6    2    7 ar    
    7    3    8 1     
    8    3    9 2     
    9    4   10 1     
   10    4   11 2     
   11    5   12 1     
   12    5   18 1     
   13    5   19 1     
   14    6   13 ar    
   15    6   20 1     
   16    7   14 ar    
   17    7   21 1     
   18    8   15 1     
   19    8   22 1     
   20   10   15 1     
   21   10   23 1     
   22   12   24 1     
   23   12   25 1     
   24   12   26 1     
   25   13   16 ar    
   26   13   27 1     
   27   14   16 ar    
   28   14   28 1     
   29   15   17 2     
   30   16   29 1     
@<TRIPOS>SUBSTRUCTURE
      1 RES1           1
@<TRIPOS>SET
DONOR_HYDROGENS      STATIC     ATOMS    <user>   **** ""
2 22 23
ATOM$RED        STATIC     ATOMS    COLORGROUP SYSTEM
2 22 23
@<TRIPOS>COMMENT
> <Gold.Version>
2022.3.0

> <Gold.Id.Protein>
unknown|4d1n_clean|pdb

> <Gold.Protein.RotatedTorsions>
[ 1594 1544 1543 1542 ] final  122.76 input   60.00 | X-H torsion
[ 4304 4284 4283 4280 ] final  -48.64 input   59.98 | X-H torsion
[ 4344 4323 4324 4325 ] final  107.04 input  122.59 | X-H torsion
[ 4348 4328 4327 4324 ] final   29.00 input   59.99 | X-H torsion
[ 6708 6672 6671 6669 ] final -137.99 input   60.02 | X-H torsion
[ 23762 23712 23713 23714 ] final   30.63 input   58.31 | X-H torsion
[ 23800 23787 23788 23789 ] final  166.10 input  -92.91 | X-H torsion
[ 6926 6895 6896 6897 ] final  -63.05 input  109.21 | X-H torsion
[ 4168 4129 4130 4131 ] final  -94.86 input  118.46 | X-H torsion
[ 4085 4052 4053 4054 ] final -149.25 input  111.71 | X-H torsion
[ 1354 1313 1314 1315 ] final  -68.79 input  117.91 | X-H torsion
[ 1584 1536 1537 1538 ] final  118.36 input   95.51 | X-H torsion
[ 23828 23815 23816 23817 ] final -125.67 input  -25.33 | X-H torsion
[ 1288 1260 1258 1255 ] final    1.14 input   59.99 | X-H torsion
[ 25744 25716 25717 25718 ] final   23.42 input   66.04 | X-H torsion
[ 27193 4055 4054 4053 ] final -129.41 input   -0.00 | X-H torsion
[ 27195 4282 4281 4280 ] final  101.48 input    0.00 | X-H torsion
[ 27200 4326 4325 4324 ] final  -33.42 input    0.00 | X-H torsion
[ 27211 23656 23655 23654 ] final   89.84 input   -0.00 | X-H torsion
[ 27214 23715 23714 23713 ] final  119.49 input    0.00 | X-H torsion
[ 27218 6898 6897 6896 ] final   83.10 input   -0.00 | X-H torsion
[ 27220 25719 25718 25717 ] final  159.56 input   -0.00 | X-H torsion
[ 27226 1316 1315 1314 ] final  124.13 input    0.00 | X-H torsion
[ 27230 23818 23817 23816 ] final   10.46 input    0.00 | X-H torsion
[ 27232 1257 1256 1255 ] final  -82.22 input    0.00 | X-H torsion

> <Gold.Protein.ActiveResidues>
 ARG304  THR320  LEU321  LEU323  LYS324  GLN369  TYR370  SER372  SER373  TYR408 
 HIS412  ARG415  ASN416  TRP426  GLU670  CYS673  ARG674  GLY675  GLY676  TYR703 
 LEU705  THR706  PRO707 

> <Gold.Protein.RotatedAtoms>
  222.0068    5.1942   36.6074 H   0  0  0  0  0  0  0  0  0  0  0  0  # atno 1288 bound_to 1260
  222.4502    7.1625   38.0884 H   0  0  0  0  0  0  0  0  0  0  0  0  # atno 1354 bound_to 1313
  223.6620    8.5866   42.3628 H   0  0  0  0  0  0  0  0  0  0  0  0  # atno 1584 bound_to 1536
  222.2158    3.7771   44.8912 H   0  0  0  0  0  0  0  0  0  0  0  0  # atno 1594 bound_to 1544
  223.4170    2.7875   45.4613 H   0  0  0  0  0  0  0  0  0  0  0  0  # atno 1595 bound_to 1544
  223.5441    4.4315   45.6366 H   0  0  0  0  0  0  0  0  0  0  0  0  # atno 1596 bound_to 1544
  227.2432    0.8577   51.2581 H   0  0  0  0  0  0  0  0  0  0  0  0  # atno 4085 bound_to 4052
  230.0650   -0.4255   49.4120 H   0  0  0  0  0  0  0  0  0  0  0  0  # atno 4168 bound_to 4129
  226.2472   -3.1728   46.2002 H   0  0  0  0  0  0  0  0  0  0  0  0  # atno 4304 bound_to 4284
  229.1307   -3.3669   47.6929 H   0  0  0  0  0  0  0  0  0  0  0  0  # atno 4344 bound_to 4323
  231.7766   -5.0252   46.6558 H   0  0  0  0  0  0  0  0  0  0  0  0  # atno 4348 bound_to 4328
  231.4019   -0.6539   46.1630 H   0  0  0  0  0  0  0  0  0  0  0  0  # atno 6708 bound_to 6672
  238.8918    2.5704   43.0398 H   0  0  0  0  0  0  0  0  0  0  0  0  # atno 6926 bound_to 6895
  226.6422    0.8168   34.8020 H   0  0  0  0  0  0  0  0  0  0  0  0  # atno 23762 bound_to 23712
  225.0391    1.7147   36.0026 H   0  0  0  0  0  0  0  0  0  0  0  0  # atno 23800 bound_to 23787
  225.5857    4.5966   34.1050 H   0  0  0  0  0  0  0  0  0  0  0  0  # atno 23828 bound_to 23815
  231.2758    8.8239   45.9081 H   0  0  0  0  0  0  0  0  0  0  0  0  # atno 25744 bound_to 25716
  229.4406   -2.4686   48.4428 LP  0  0  0  0  0  0  0  0  0  0  0  0  # atno 27193 bound_to 4055
  229.3062   -1.0832   47.4119 LP  0  0  0  0  0  0  0  0  0  0  0  0  # atno 27194 bound_to 4055
  226.7740   -5.3325   45.5971 LP  0  0  0  0  0  0  0  0  0  0  0  0  # atno 27195 bound_to 4282
  227.3509   -6.4655   46.7733 LP  0  0  0  0  0  0  0  0  0  0  0  0  # atno 27196 bound_to 4282
  225.2170   -1.9681   46.5685 LP  0  0  0  0  0  0  0  0  0  0  0  0  # atno 27197 bound_to 4284
  224.7731   -3.5233   46.7938 LP  0  0  0  0  0  0  0  0  0  0  0  0  # atno 27198 bound_to 4284
  227.8198   -4.2720   46.9706 LP  0  0  0  0  0  0  0  0  0  0  0  0  # atno 27199 bound_to 4323
  229.6739   -6.2290   44.0368 LP  0  0  0  0  0  0  0  0  0  0  0  0  # atno 27200 bound_to 4326
  230.9733   -7.1206   44.7556 LP  0  0  0  0  0  0  0  0  0  0  0  0  # atno 27201 bound_to 4326
  231.8207   -3.6709   47.5570 LP  0  0  0  0  0  0  0  0  0  0  0  0  # atno 27202 bound_to 4328
  232.8052   -3.8267   46.2635 LP  0  0  0  0  0  0  0  0  0  0  0  0  # atno 27203 bound_to 4328
  232.1547    0.5494   45.3665 LP  0  0  0  0  0  0  0  0  0  0  0  0  # atno 27204 bound_to 6672
  231.6983    0.7557   46.9208 LP  0  0  0  0  0  0  0  0  0  0  0  0  # atno 27205 bound_to 6672
  227.0040   -1.8004   37.4443 LP  0  0  0  0  0  0  0  0  0  0  0  0  # atno 27211 bound_to 23656
  225.3600   -1.5737   36.9484 LP  0  0  0  0  0  0  0  0  0  0  0  0  # atno 27212 bound_to 23656
  227.1787   -0.5478   35.7582 LP  0  0  0  0  0  0  0  0  0  0  0  0  # atno 27213 bound_to 23712
  225.6887    4.0400   37.8183 LP  0  0  0  0  0  0  0  0  0  0  0  0  # atno 27214 bound_to 23715
  225.1916    2.5966   38.6364 LP  0  0  0  0  0  0  0  0  0  0  0  0  # atno 27215 bound_to 23715
  226.2707    2.7724   35.3556 LP  0  0  0  0  0  0  0  0  0  0  0  0  # atno 27216 bound_to 23787
  238.1803    2.0329   44.5368 LP  0  0  0  0  0  0  0  0  0  0  0  0  # atno 27217 bound_to 6895
  235.5998    5.8647   42.7474 LP  0  0  0  0  0  0  0  0  0  0  0  0  # atno 27218 bound_to 6898
  236.9349    5.7785   41.6474 LP  0  0  0  0  0  0  0  0  0  0  0  0  # atno 27219 bound_to 6898
  232.1330    5.9571   46.5837 LP  0  0  0  0  0  0  0  0  0  0  0  0  # atno 27220 bound_to 25719
  231.1687    7.3336   47.0025 LP  0  0  0  0  0  0  0  0  0  0  0  0  # atno 27221 bound_to 25719
  230.1340   -0.5883   51.1473 LP  0  0  0  0  0  0  0  0  0  0  0  0  # atno 27222 bound_to 4129
  228.8675    0.3513   51.6415 LP  0  0  0  0  0  0  0  0  0  0  0  0  # atno 27223 bound_to 4052
  223.6705    7.1107   36.8416 LP  0  0  0  0  0  0  0  0  0  0  0  0  # atno 27225 bound_to 1313
  225.6165    9.0785   41.0765 LP  0  0  0  0  0  0  0  0  0  0  0  0  # atno 27226 bound_to 1316
  224.3211    7.9872   41.4384 LP  0  0  0  0  0  0  0  0  0  0  0  0  # atno 27227 bound_to 1316
  222.8772    9.7829   43.3669 LP  0  0  0  0  0  0  0  0  0  0  0  0  # atno 27228 bound_to 1536
  226.2906    4.7186   35.6972 LP  0  0  0  0  0  0  0  0  0  0  0  0  # atno 27229 bound_to 23815
  228.3937    4.5471   35.1994 LP  0  0  0  0  0  0  0  0  0  0  0  0  # atno 27230 bound_to 23818
  229.8089    5.5243   35.4053 LP  0  0  0  0  0  0  0  0  0  0  0  0  # atno 27231 bound_to 23818
  221.5834    8.3151   39.7083 LP  0  0  0  0  0  0  0  0  0  0  0  0  # atno 27232 bound_to 1257
  221.7052    6.5983   39.9029 LP  0  0  0  0  0  0  0  0  0  0  0  0  # atno 27233 bound_to 1257
  220.6815    4.3827   36.1238 LP  0  0  0  0  0  0  0  0  0  0  0  0  # atno 27234 bound_to 1260
  221.2022    4.2562   37.6664 LP  0  0  0  0  0  0  0  0  0  0  0  0  # atno 27235 bound_to 1260

> <Gold.Score>
     Fitness  S(hb_ext) S(vdw_ext)  S(hb_int)    S(int)      intcor
     35.05       6.21      21.54       0.00      -0.78      -0.76

> <Gold.Goldscore.Fitness>
35.0514

> <Gold.Goldscore.Internal.Vdw>
-0.9488

> <Gold.Goldscore.Internal.Torsion>
-0.5859

> <Gold.Goldscore.External.Vdw>
21.5422

> <Gold.Goldscore.Internal.HBond>
0.0000

> <Gold.Goldscore.External.HBond>
6.2070

> <Gold.Goldscore.Internal.Correction>
-0.7585

> <Gold.Goldscore.Hbonds>
donor molecule, donor type, donor heavy atom, donor atom, acceptor molecule, acceptor atom, score
      P1  H 23719 23770       L1     9  0.03
      L1  H     8    22       P1  6904  1.00

> <Gold.Goldscore.Internal.Vdw.Weighted>
-0.9488

> <Gold.Goldscore.Internal.Torsion.Weighted>
-0.5859

> <Gold.Goldscore.External.Vdw.Weighted>
29.6205

> <Gold.Goldscore.Internal.HBond.Weighted>
0.0000

> <Gold.Goldscore.External.HBond.Weighted>
6.2070

> <Gold.Goldscore.Internal.Correction.Weighted>
-0.7585

> <Gold.Rescore>
     Score     S(PLP)   S(hbond)     S(cho)   S(metal)  DE(clash)   DE(tors)     intcor
     32.27     -28.52       1.95       0.00       0.00       0.02       1.04       ----

> <Gold.PLP.Fitness>
32.2741

> <Gold.PLP.PLP>
-28.5218

> <Gold.PLP.part.hbond>
-3.0000

> <Gold.PLP.part.metal>
0.0000

> <Gold.PLP.part.buried>
-6.2271

> <Gold.PLP.part.nonpolar>
-21.1615

> <Gold.PLP.part.repulsive>
0.9721

> <Gold.PLP.ligand.clash>
0.0164

> <Gold.PLP.ligand.torsion>
1.0369

> <Gold.PLP.Chemscore.Hbond>
1.9475

> <Gold.PLP.Chemscore.CHOScore>
0.0000

> <Gold.PLP.Chemscore.Metal>
0.0000

> <Gold.Chemscore.Hbonds>
donor molecule, donor type, donor heavy atom, donor atom, acceptor molecule, acceptor atom, score
      L1  H     8    22       P1  6904  0.91
      P1  H 23719 23770       L1     9  0.50

> <Gold.PLP.Chemscore.Internal.Correction>
   9.000000E+99

