@<TRIPOS>MOLECULE
00000001
    30    31     1     0     0
SMALL
USER_CHARGES
****
Generated from the CSD

@<TRIPOS>ATOM
     1 C1      -3.2426  -2.1071  -1.1503   C.2       1 noname   0.1635
     2 N1      -3.2496  -1.5788   0.0979   N.am      1 noname  -0.2225
     3 C2      -2.1121  -1.1325   0.6916   C.2       1 noname   0.2098
     4 C3      -0.7582  -1.2636   0.0246   C.3       1 noname   0.1150
     5 C4      -0.9094  -1.7429  -1.3734   C.2       1 noname   0.0067
     6 C5      -2.0801  -2.1516  -1.8961   C.2       1 noname   0.0922
     7 O1       0.1512  -1.8032  -2.1767   O.3       1 noname  -0.2878
     8 O2      -4.3193  -2.5394  -1.6191   O.2       1 noname  -0.2627
     9 O3      -2.2468  -0.6023   1.8190   O.2       1 noname  -0.2565
    10 C6      -0.0008  -2.4125   0.8097   C.3       1 noname  -0.0318
    11 C7      -0.0213   0.0688  -0.0322   C.ar      1 noname  -0.0457
    12 C8      -0.7053   1.3173  -0.0644   C.ar      1 noname  -0.0513
    13 C9      -0.0120   2.5429  -0.0535   C.ar      1 noname  -0.0590
    14 C10      1.3922   2.5577  -0.0485   C.ar      1 noname  -0.0613
    15 C11      2.0996   1.3463  -0.0837   C.ar      1 noname  -0.0590
    16 C12      1.4004   0.1270  -0.0942   C.ar      1 noname  -0.0513
    17 C13      0.4220  -2.1083   2.2716   C.3       1 noname  -0.0636
    18 H1      -4.1280  -1.5149   0.6024   H         1 noname  -0.2225
    19 H2      -2.1118  -2.5221  -2.9197   H         1 noname   0.0922
    20 H3       0.8281  -2.4156  -1.7858   H         1 noname  -0.2878
    21 H4       0.9021  -2.6524   0.2500   H         1 noname  -0.0318
    22 H5      -0.6560  -3.2821   0.8317   H         1 noname  -0.0318
    23 H6      -1.7937   1.3245  -0.0984   H         1 noname  -0.0513
    24 H7      -0.5656   3.4807  -0.0489   H         1 noname  -0.0590
    25 H8       1.9294   3.5045  -0.0175   H         1 noname  -0.0613
    26 H9       3.1884   1.3509  -0.1028   H         1 noname  -0.0590
    27 H10      1.9639  -0.8031  -0.1516   H         1 noname  -0.0513
    28 H11     -0.4623  -1.8826   2.8657   H         1 noname  -0.0636
    29 H12      0.9292  -2.9760   2.6908   H         1 noname  -0.0636
    30 H13      1.0958  -1.2529   2.2841   H         1 noname  -0.0636
@<TRIPOS>BOND
     1     1     2   am
     2     1     6    1
     3     1     8    2
     4     2     3   am
     5     4     3    1
     6     3     9    2
     7     4     5    1
     8     4    10    1
     9     4    11    1
    10     5     6    2
    11     5     7    1
    12    10    17    1
    13    11    12   ar
    14    11    16   ar
    15    12    13   ar
    16    13    14   ar
    17    14    15   ar
    18    15    16   ar
    19     2    18    1
    20     6    19    1
    21     7    20    1
    22    10    21    1
    23    10    22    1
    24    12    23    1
    25    13    24    1
    26    14    25    1
    27    15    26    1
    28    16    27    1
    29    17    28    1
    30    17    29    1
    31    17    30    1
@<TRIPOS>SUBSTRUCTURE
     1 noname      1 GROUP             0 ****  ****    0  
