@<TRIPOS>MOLECULE
00000001
    44    47     1     0     0
SMALL
USER_CHARGES
****
Generated from the CSD

@<TRIPOS>ATOM
     1 C1     -21.6407 -15.4375 -16.7225   C.2       1 noname  -0.0806
     2 C2     -22.5328 -14.8429 -17.5310   C.2       1 noname  -0.0779
     3 N1     -23.7922 -14.6629 -17.0988   N.am      1 noname   0.0248
     4 C3     -24.1672 -14.6997 -15.7029   C.3       1 noname   0.1485
     5 C4     -23.2216 -15.5890 -14.9516   C.2       1 noname   0.0779
     6 N2     -21.9503 -15.8536 -15.4631   N.am      1 noname   0.0223
     7 C5     -20.9378 -16.5629 -14.6830   C.3       1 noname   0.0144
     8 O1     -23.6043 -16.0378 -13.8430   O.2       1 noname  -0.2820
     9 C6     -24.1511 -13.3518 -15.0343   C.ar      1 noname   0.0167
    10 C7     -23.7206 -12.1514 -15.6538   C.ar      1 noname  -0.0133
    11 C8     -23.7600 -10.9429 -14.9339   C.ar      1 noname  -0.0379
    12 C9     -24.2190 -10.9265 -13.6055   C.ar      1 noname  -0.0260
    13 C10    -24.6364 -12.1307 -13.0178   C.ar      1 noname   0.0003
    14 N3     -24.5887 -13.2750 -13.7431   N.ar      1 noname  -0.2412
    15 C11    -19.6146 -15.7536 -14.4983   C.3       1 noname  -0.0142
    16 C12    -18.7457 -16.1699 -13.3562   C.ar      1 noname  -0.0544
    17 C13    -18.2817 -17.5028 -13.2268   C.ar      1 noname  -0.0569
    18 C14    -17.4425 -17.8742 -12.1572   C.ar      1 noname  -0.0605
    19 C15    -17.0377 -16.9174 -11.2107   C.ar      1 noname  -0.0616
    20 C16    -17.4862 -15.5914 -11.3265   C.ar      1 noname  -0.0605
    21 C17    -18.3316 -15.2216 -12.3887   C.ar      1 noname  -0.0569
    22 C18    -24.8690 -14.5147 -17.9099   C.2       1 noname   0.0696
    23 O2     -24.8291 -14.3076 -19.1459   O.2       1 noname  -0.2901
    24 C19    -25.6315 -15.2276 -15.8294   C.3       1 noname  -0.0112
    25 C20    -26.1252 -14.6664 -17.1779   C.3       1 noname   0.0244
    26 H1     -26.7948 -15.3647 -17.6779   H         1 noname   0.0244
    27 H2     -26.6287 -13.7093 -17.0498   H         1 noname   0.0244
    28 H3     -22.2389 -14.5104 -18.5255   H         1 noname  -0.0779
    29 H4     -17.1789 -14.8479 -10.5925   H         1 noname  -0.0605
    30 H5     -18.6728 -14.1905 -12.4683   H         1 noname  -0.0569
    31 H6     -20.7027 -17.4969 -15.1913   H         1 noname   0.0144
    32 H7     -21.3500 -16.7792 -13.6985   H         1 noname   0.0144
    33 H8     -26.2465 -14.8586 -15.0099   H         1 noname  -0.0112
    34 H9     -25.6496 -16.3164 -15.8351   H         1 noname  -0.0112
    35 H10    -23.3612 -12.1645 -16.6817   H         1 noname  -0.0133
    36 H11    -23.4340 -10.0179 -15.4073   H         1 noname  -0.0379
    37 H12    -20.6272 -15.5936 -17.0891   H         1 noname  -0.0806
    38 H13    -19.8814 -14.7083 -14.3501   H         1 noname  -0.0142
    39 H14    -19.0326 -15.8535 -15.4133   H         1 noname  -0.0142
    40 H15    -24.2502  -9.9952 -13.0419   H         1 noname  -0.0260
    41 H16    -24.9949 -12.1457 -11.9896   H         1 noname   0.0003
    42 H17    -17.1066 -18.9059 -12.0638   H         1 noname  -0.0605
    43 H18    -16.3794 -17.2027 -10.3914   H         1 noname  -0.0616
    44 H19    -18.5772 -18.2491 -13.9628   H         1 noname  -0.0569
@<TRIPOS>BOND
     1     1     2    2
     2     6     1    1
     3     2     3    1
     4     3     4    1
     5     3    22   am
     6     4     5    1
     7     4     9    1
     8     4    24    1
     9     5     6   am
    10     5     8    2
    11     6     7    1
    12     7    15    1
    13     9    10   ar
    14    14     9   ar
    15    10    11   ar
    16    11    12   ar
    17    12    13   ar
    18    13    14   ar
    19    15    16    1
    20    16    17   ar
    21    21    16   ar
    22    17    18   ar
    23    18    19   ar
    24    19    20   ar
    25    20    21   ar
    26    22    23    2
    27    25    22    1
    28    24    25    1
    29    25    26    1
    30    25    27    1
    31     2    28    1
    32    20    29    1
    33    21    30    1
    34     7    31    1
    35     7    32    1
    36    24    33    1
    37    24    34    1
    38    10    35    1
    39    11    36    1
    40     1    37    1
    41    15    38    1
    42    15    39    1
    43    12    40    1
    44    13    41    1
    45    18    42    1
    46    19    43    1
    47    17    44    1
@<TRIPOS>SUBSTRUCTURE
     1 noname      1 GROUP             0 ****  ****    0  
