@<TRIPOS>MOLECULE
00000001
    38    41     1     0     0
SMALL
USER_CHARGES
****
Generated from the CSD

@<TRIPOS>ATOM
     1 C1      -8.2030 -13.0963 -14.4101   C.2       1 noname  -0.0111
     2 C2      -9.2345 -13.6422 -13.7424   C.2       1 noname  -0.0624
     3 N1      -9.5565 -14.9283 -13.9769   N.am      1 noname   0.0259
     4 C3      -8.6176 -15.8733 -14.5432   C.3       1 noname   0.1489
     5 C4      -7.7735 -15.1474 -15.5435   C.2       1 noname   0.1550
     6 N2      -7.5014 -13.8020 -15.3362   N.am      1 noname  -0.1166
     7 O1      -7.2708 -15.7883 -16.5004   O.2       1 noname  -0.2620
     8 C5      -7.6907 -16.4756 -13.5210   C.ar      1 noname   0.0167
     9 C6      -7.8481 -16.3128 -12.1214   C.ar      1 noname  -0.0133
    10 C7      -6.9043 -16.8631 -11.2388   C.ar      1 noname  -0.0379
    11 C8      -5.8094 -17.5834 -11.7443   C.ar      1 noname  -0.0260
    12 C9      -5.6968 -17.7634 -13.1331   C.ar      1 noname   0.0003
    13 N3      -6.6286 -17.2170 -13.9540   N.ar      1 noname  -0.2412
    14 C10     -6.5080 -13.1882 -16.0602   C.ar      1 noname  -0.0140
    15 C11     -5.1712 -13.6429 -15.9550   C.ar      1 noname  -0.0201
    16 C12     -4.1472 -13.0380 -16.7047   C.ar      1 noname  -0.0181
    17 C13     -4.4478 -11.9645 -17.5663   C.ar      1 noname  -0.0097
    18 C14     -5.7744 -11.5015 -17.6750   C.ar      1 noname  -0.0181
    19 C15     -6.7979 -12.1121 -16.9286   C.ar      1 noname  -0.0201
    20 C16    -10.7633 -15.4934 -13.7372   C.2       1 noname   0.0697
    21 O2     -11.7249 -14.9366 -13.1567   O.2       1 noname  -0.2900
    22 C17     -9.5769 -16.9443 -15.1391   C.3       1 noname  -0.0112
    23 C18    -10.8375 -16.8608 -14.2519   C.3       1 noname   0.0244
    24 Cl1     -3.2175 -11.2279 -18.4633   Cl        1 noname  -0.0849
    25 H1      -4.8686 -18.3366 -13.5472   H         1 noname   0.0003
    26 H2      -8.7014 -15.7606 -11.7304   H         1 noname  -0.0133
    27 H3      -9.1306 -17.9361 -15.0833   H         1 noname  -0.0112
    28 H4      -9.8182 -16.7126 -16.1754   H         1 noname  -0.0112
    29 H5     -11.7430 -17.0138 -14.8372   H         1 noname   0.0244
    30 H6     -10.8003 -17.5895 -13.4435   H         1 noname   0.0244
    31 H7      -7.9229 -12.0643 -14.2041   H         1 noname  -0.0111
    32 H8      -9.8010 -13.0530 -13.0228   H         1 noname  -0.0624
    33 H9      -4.9339 -14.4694 -15.2867   H         1 noname  -0.0201
    34 H10     -3.1232 -13.3986 -16.6196   H         1 noname  -0.0181
    35 H11     -6.0073 -10.6696 -18.3380   H         1 noname  -0.0181
    36 H12     -7.8218 -11.7528 -17.0206   H         1 noname  -0.0201
    37 H13     -7.0212 -16.7316 -10.1641   H         1 noname  -0.0379
    38 H14     -5.0598 -17.9957 -11.0705   H         1 noname  -0.0260
@<TRIPOS>BOND
     1     1     2    2
     2     6     1    1
     3     2     3    1
     4     3     4    1
     5     3    20   am
     6     4     5    1
     7     4     8    1
     8     4    22    1
     9     5     6   am
    10     5     7    2
    11    14     6    1
    12     8     9   ar
    13    13     8   ar
    14     9    10   ar
    15    10    11   ar
    16    11    12   ar
    17    12    13   ar
    18    14    15   ar
    19    19    14   ar
    20    15    16   ar
    21    16    17   ar
    22    17    18   ar
    23    17    24    1
    24    18    19   ar
    25    20    21    2
    26    23    20    1
    27    22    23    1
    28    12    25    1
    29     9    26    1
    30    22    27    1
    31    22    28    1
    32    23    29    1
    33    23    30    1
    34     1    31    1
    35     2    32    1
    36    15    33    1
    37    16    34    1
    38    18    35    1
    39    19    36    1
    40    10    37    1
    41    11    38    1
@<TRIPOS>SUBSTRUCTURE
     1 noname      1 GROUP             0 ****  ****    0  
