#       Name:                CT1002167954
#       Creating user name   hitesit
#       Creation time:       Sun Apr 16 20:16:16 2023


#       File generated by GOLD software.
#

@<TRIPOS>MOLECULE
CT1002167954|ligand_prepared|mol2|1|dock9
    29    30     1
SMALL
NO_CHARGES


@<TRIPOS>ATOM
      1 C1          19.5355   8.8424   2.4605 C.3            1 RES1               0.0000
      2 C2          20.4229   9.6402   1.4833 C.ar           1 RES1               0.0000
      3 C3          19.8896   7.3721   2.2580 C.2            1 RES1               0.0000
      4 C4          19.8526   9.3724   3.8545 C.2            1 RES1               0.0000
      5 C5          18.0191   9.0208   2.2150 C.3            1 RES1               0.0000
      6 C6          21.3247   8.9857   0.6495 C.ar           1 RES1               0.0000
      7 C7          20.3494  11.0282   1.4025 C.ar           1 RES1               0.0000
      8 N8          20.6319   6.7619   3.2257 N.am           1 RES1               0.0000
      9 O9          19.5563   6.7681   1.2459 O.2            1 RES1               0.0000
     10 N10         20.4538   8.5208   4.7438 N.am           1 RES1               0.0000
     11 O11         19.6023  10.5249   4.1854 O.2            1 RES1               0.0000
     12 C12         17.1449   8.2687   3.2062 C.3            1 RES1               0.0000
     13 C13         22.1219   9.6928  -0.2351 C.ar           1 RES1               0.0000
     14 C14         21.1478  11.7335   0.5173 C.ar           1 RES1               0.0000
     15 C15         20.8857   7.2489   4.4827 C.2            1 RES1               0.0000
     16 C16         22.0338  11.0670  -0.3022 C.ar           1 RES1               0.0000
     17 O17         21.4676   6.5638   5.3189 O.2            1 RES1               0.0000
     18 H18         17.7758  10.0890   2.2694 H              1 RES1               0.0000
     19 H19         17.7822   8.6741   1.2016 H              1 RES1               0.0000
     20 H20         21.4098   7.9048   0.6899 H              1 RES1               0.0000
     21 H21         19.6603  11.5737   2.0384 H              1 RES1               0.0000
     22 H22         21.0356   5.8600   2.9933 H              1 RES1               0.0000
     23 H23         20.5922   8.8669   5.6879 H              1 RES1               0.0000
     24 H24         16.0908   8.4278   2.9890 H              1 RES1               0.0000
     25 H25         17.3426   7.1997   3.1613 H              1 RES1               0.0000
     26 H26         17.3362   8.6063   4.2227 H              1 RES1               0.0000
     27 H27         22.8186   9.1637  -0.8770 H              1 RES1               0.0000
     28 H28         21.0755  12.8150   0.4684 H              1 RES1               0.0000
     29 H29         22.6581  11.6207  -0.9955 H              1 RES1               0.0000
@<TRIPOS>BOND
    1    1    2 1     
    2    1    3 1     
    3    1    4 1     
    4    1    5 1     
    5    2    6 ar    
    6    2    7 ar    
    7    3    8 1     
    8    3    9 2     
    9    4   10 1     
   10    4   11 2     
   11    5   12 1     
   12    5   18 1     
   13    5   19 1     
   14    6   13 ar    
   15    6   20 1     
   16    7   14 ar    
   17    7   21 1     
   18    8   15 1     
   19    8   22 1     
   20   10   15 1     
   21   10   23 1     
   22   12   24 1     
   23   12   25 1     
   24   12   26 1     
   25   13   16 ar    
   26   13   27 1     
   27   14   16 ar    
   28   14   28 1     
   29   15   17 2     
   30   16   29 1     
@<TRIPOS>SUBSTRUCTURE
      1 RES1           1
@<TRIPOS>SET
DONOR_HYDROGENS      STATIC     ATOMS    <user>   **** ""
2 22 23
ATOM$RED        STATIC     ATOMS    COLORGROUP SYSTEM
2 22 23
@<TRIPOS>COMMENT
> <Gold.Version>
2022.3.0

> <Gold.Id.Protein>
unknown|3oog_clean|pdb

> <Gold.Protein.RotatedTorsions>
[ 3557 3548 3547 3545 ] final   85.49 input   60.02 | X-H torsion
[ 3477 3468 3467 3465 ] final  -39.46 input   60.01 | X-H torsion
[ 3738 3729 3728 3726 ] final   -5.60 input   59.99 | X-H torsion
[ 3042 3035 3033 3030 ] final  127.63 input   59.98 | X-H torsion
[ 4996 4987 4986 4984 ] final  -55.50 input   60.02 | X-H torsion
[ 2507 2496 2495 2494 ] final  149.69 input   60.00 | X-H torsion
[ 1848 1843 1842 1839 ] final   62.97 input   60.03 | X-H torsion
[ 3092 3083 3082 3080 ] final   27.53 input   60.01 | X-H torsion
[  556  552  551  548 ] final  137.53 input   60.01 | X-H torsion

> <Gold.Protein.ActiveResidues>
 LEU49   GLY50   THR51   GLY52   SER53   PHE54   LEU82   GLN84   HIS87   GLY126 
 GLU127  MET128  PHE129  SER130  HIS131  LEU132  ARG133  ARG134  ILE135  GLY136 
 ARG137  ARG165  ASP166  LEU167  LYS168  PRO169  GLU170  ASN171  LEU173  ASP184 
 GLY186  PHE187  TPO197  LEU198  CYS199  GLY200  THR201  PRO202  GLU203  TYR204 
 LEU205  ILE209  ILE210  VAL226  LEU227  TYR229  GLU230  ALA233  GLY234  TYR235 
 PRO236  PRO237  PHE238  PHE239  ALA240  ASP241  GLN242  PRO243  ILE244  GLN245 
 ILE246  TYR247  ARG256  PHE257  PRO258  SER259  ASN326  PHE327  ASP328  ASP329 
 TYR330 

> <Gold.Protein.RotatedAtoms>
   17.7474   12.2782    3.2902 H   0  0  0  0  0  0  0  0  0  0  0  0  # atno 556  bound_to 552 
   25.7294    4.5475  -10.9872 H   0  0  0  0  0  0  0  0  0  0  0  0  # atno 1848 bound_to 1843
   19.3199    4.8638   -0.1491 H   0  0  0  0  0  0  0  0  0  0  0  0  # atno 2507 bound_to 2496
   18.7199    4.3573   -1.6084 H   0  0  0  0  0  0  0  0  0  0  0  0  # atno 2508 bound_to 2496
   18.5269    3.4123   -0.2594 H   0  0  0  0  0  0  0  0  0  0  0  0  # atno 2509 bound_to 2496
   18.5360    2.0447    0.7468 H   0  0  0  0  0  0  0  0  0  0  0  0  # atno 3042 bound_to 3035
   20.9484   -3.7474   -4.1881 H   0  0  0  0  0  0  0  0  0  0  0  0  # atno 3092 bound_to 3083
   15.3542  -13.4153   -7.6718 H   0  0  0  0  0  0  0  0  0  0  0  0  # atno 3477 bound_to 3468
   15.1032  -13.8534  -12.3387 H   0  0  0  0  0  0  0  0  0  0  0  0  # atno 3557 bound_to 3548
   10.1231    0.2492    2.4854 H   0  0  0  0  0  0  0  0  0  0  0  0  # atno 3738 bound_to 3729
   22.8562   10.0228  -10.1548 H   0  0  0  0  0  0  0  0  0  0  0  0  # atno 4996 bound_to 4987
   16.1159  -14.1691  -11.1045 LP  0  0  0  0  0  0  0  0  0  0  0  0  # atno 5299 bound_to 3548
   16.7071  -13.9202  -12.6063 LP  0  0  0  0  0  0  0  0  0  0  0  0  # atno 5300 bound_to 3548
   15.5829  -14.8750   -6.9894 LP  0  0  0  0  0  0  0  0  0  0  0  0  # atno 5307 bound_to 3468
   16.3596  -14.4863   -8.3723 LP  0  0  0  0  0  0  0  0  0  0  0  0  # atno 5308 bound_to 3468
    9.0351    0.8147    3.5549 LP  0  0  0  0  0  0  0  0  0  0  0  0  # atno 5361 bound_to 3729
    8.6931    0.8186    1.9582 LP  0  0  0  0  0  0  0  0  0  0  0  0  # atno 5362 bound_to 3729
   17.2377    2.6862    1.4884 LP  0  0  0  0  0  0  0  0  0  0  0  0  # atno 5363 bound_to 3035
   17.4151    2.8354   -0.1281 LP  0  0  0  0  0  0  0  0  0  0  0  0  # atno 5364 bound_to 3035
   21.7096   10.2708   -9.0273 LP  0  0  0  0  0  0  0  0  0  0  0  0  # atno 5373 bound_to 4987
   23.2885   10.4112   -8.6351 LP  0  0  0  0  0  0  0  0  0  0  0  0  # atno 5374 bound_to 4987
   24.8784    4.8951  -12.3303 LP  0  0  0  0  0  0  0  0  0  0  0  0  # atno 5381 bound_to 1843
   26.3205    5.6140  -12.0653 LP  0  0  0  0  0  0  0  0  0  0  0  0  # atno 5382 bound_to 1843
   20.6588   -5.3305   -3.9469 LP  0  0  0  0  0  0  0  0  0  0  0  0  # atno 5411 bound_to 3083
   22.0060   -4.6413   -3.3332 LP  0  0  0  0  0  0  0  0  0  0  0  0  # atno 5412 bound_to 3083
   18.4505   13.0146    2.0209 LP  0  0  0  0  0  0  0  0  0  0  0  0  # atno 5419 bound_to 552 
   17.8987   11.4843    1.8778 LP  0  0  0  0  0  0  0  0  0  0  0  0  # atno 5420 bound_to 552 

> <Gold.Score>
     Fitness  S(hb_ext) S(vdw_ext)  S(hb_int)    S(int)      intcor
     31.92       7.59      20.59       0.00      -3.97      -0.76

> <Gold.Goldscore.Fitness>
31.9237

> <Gold.Goldscore.Internal.Vdw>
-4.3572

> <Gold.Goldscore.Internal.Torsion>
-0.3718

> <Gold.Goldscore.External.Vdw>
20.5866

> <Gold.Goldscore.Internal.HBond>
0.0000

> <Gold.Goldscore.External.HBond>
7.5876

> <Gold.Goldscore.Internal.Correction>
-0.7585

> <Gold.Goldscore.Hbonds>
donor molecule, donor type, donor heavy atom, donor atom, acceptor molecule, acceptor atom, score
      P1  H  2496  2507       L1     9  1.00
      L1  H     8    22       P1  2464  0.26

> <Gold.Goldscore.Internal.Vdw.Weighted>
-4.3572

> <Gold.Goldscore.Internal.Torsion.Weighted>
-0.3718

> <Gold.Goldscore.External.Vdw.Weighted>
28.3066

> <Gold.Goldscore.Internal.HBond.Weighted>
0.0000

> <Gold.Goldscore.External.HBond.Weighted>
7.5876

> <Gold.Goldscore.Internal.Correction.Weighted>
-0.7585

> <Gold.Rescore>
     Score     S(PLP)   S(hbond)     S(cho)   S(metal)  DE(clash)   DE(tors)     intcor
     25.56     -21.97       2.00       0.00       0.00       0.56       0.92       ----

> <Gold.PLP.Fitness>
25.5608

> <Gold.PLP.PLP>
-21.9657

> <Gold.PLP.part.hbond>
-3.0794

> <Gold.PLP.part.metal>
0.0000

> <Gold.PLP.part.buried>
-4.3136

> <Gold.PLP.part.nonpolar>
-15.9344

> <Gold.PLP.part.repulsive>
0.5904

> <Gold.PLP.ligand.clash>
0.5558

> <Gold.PLP.ligand.torsion>
0.9246

> <Gold.PLP.Chemscore.Hbond>
2.0000

> <Gold.PLP.Chemscore.CHOScore>
0.0000

> <Gold.PLP.Chemscore.Metal>
0.0000

> <Gold.Chemscore.Hbonds>
donor molecule, donor type, donor heavy atom, donor atom, acceptor molecule, acceptor atom, score
      L1  H     8    22       P1  2464  1.00
      P1  H  2496  2507       L1     9  0.32

> <Gold.PLP.Chemscore.Internal.Correction>
   9.000000E+99

