#       Name:                CT1002167954
#       Creating user name   hitesit
#       Creation time:       Sun Apr 16 20:16:04 2023


#       File generated by GOLD software.
#

@<TRIPOS>MOLECULE
CT1002167954|ligand_prepared|mol2|1|dock1
    29    30     1
SMALL
NO_CHARGES


@<TRIPOS>ATOM
      1 C1          19.5454   9.5872   2.6225 C.3            1 RES1               0.0000
      2 C2          20.2204  10.9434   2.3330 C.ar           1 RES1               0.0000
      3 C3          19.8410   9.2650   4.0844 C.2            1 RES1               0.0000
      4 C4          18.0640   9.7735   2.3137 C.2            1 RES1               0.0000
      5 C5          20.0736   8.4269   1.7472 C.3            1 RES1               0.0000
      6 C6          20.2197  11.4750   1.0468 C.ar           1 RES1               0.0000
      7 C7          20.8443  11.6745   3.3404 C.ar           1 RES1               0.0000
      8 N8          18.8195   9.3938   4.9788 N.am           1 RES1               0.0000
      9 O9          20.9632   8.9410   4.4530 O.2            1 RES1               0.0000
     10 N10         17.1758   9.6893   3.3538 N.am           1 RES1               0.0000
     11 O11         17.6594  10.0089   1.1818 O.2            1 RES1               0.0000
     12 C12         19.4962   7.0692   2.1153 C.3            1 RES1               0.0000
     13 C13         20.8185  12.6947   0.7780 C.ar           1 RES1               0.0000
     14 C14         21.4427  12.8939   3.0693 C.ar           1 RES1               0.0000
     15 C15         17.4892   9.5385   4.6772 C.2            1 RES1               0.0000
     16 C16         21.4299  13.4051   1.7890 C.ar           1 RES1               0.0000
     17 O17         16.6372   9.5265   5.5610 O.2            1 RES1               0.0000
     18 H18         19.8351   8.6393   0.6978 H              1 RES1               0.0000
     19 H19         21.1658   8.3831   1.8406 H              1 RES1               0.0000
     20 H20         19.7456  10.9291   0.2380 H              1 RES1               0.0000
     21 H21         20.8676  11.2914   4.3549 H              1 RES1               0.0000
     22 H22         19.0678   9.3815   5.9629 H              1 RES1               0.0000
     23 H23         16.1896   9.7441   3.1198 H              1 RES1               0.0000
     24 H24         19.8997   6.2909   1.4710 H              1 RES1               0.0000
     25 H25         19.7361   6.8144   3.1455 H              1 RES1               0.0000
     26 H26         18.4133   7.0691   2.0095 H              1 RES1               0.0000
     27 H27         20.8069  13.0920  -0.2316 H              1 RES1               0.0000
     28 H28         21.9233  13.4493   3.8679 H              1 RES1               0.0000
     29 H29         21.8985  14.3607   1.5782 H              1 RES1               0.0000
@<TRIPOS>BOND
    1    1    2 1     
    2    1    3 1     
    3    1    4 1     
    4    1    5 1     
    5    2    6 ar    
    6    2    7 ar    
    7    3    8 1     
    8    3    9 2     
    9    4   10 1     
   10    4   11 2     
   11    5   12 1     
   12    5   18 1     
   13    5   19 1     
   14    6   13 ar    
   15    6   20 1     
   16    7   14 ar    
   17    7   21 1     
   18    8   15 1     
   19    8   22 1     
   20   10   15 1     
   21   10   23 1     
   22   12   24 1     
   23   12   25 1     
   24   12   26 1     
   25   13   16 ar    
   26   13   27 1     
   27   14   16 ar    
   28   14   28 1     
   29   15   17 2     
   30   16   29 1     
@<TRIPOS>SUBSTRUCTURE
      1 RES1           1
@<TRIPOS>SET
DONOR_HYDROGENS      STATIC     ATOMS    <user>   **** ""
2 22 23
ATOM$RED        STATIC     ATOMS    COLORGROUP SYSTEM
2 22 23
@<TRIPOS>COMMENT
> <Gold.Version>
2022.3.0

> <Gold.Id.Protein>
unknown|3oog_clean|pdb

> <Gold.Protein.RotatedTorsions>
[ 3557 3548 3547 3545 ] final    5.93 input   60.02 | X-H torsion
[ 3477 3468 3467 3465 ] final  -92.80 input   60.01 | X-H torsion
[ 3738 3729 3728 3726 ] final   60.66 input   59.99 | X-H torsion
[ 3042 3035 3033 3030 ] final  -59.18 input   59.98 | X-H torsion
[ 4996 4987 4986 4984 ] final  144.90 input   60.02 | X-H torsion
[ 2507 2496 2495 2494 ] final  -30.80 input   60.00 | X-H torsion
[ 1848 1843 1842 1839 ] final  -63.27 input   60.03 | X-H torsion
[ 3092 3083 3082 3080 ] final   -6.96 input   60.01 | X-H torsion
[  556  552  551  548 ] final  114.61 input   60.01 | X-H torsion

> <Gold.Protein.ActiveResidues>
 LEU49   GLY50   THR51   GLY52   SER53   PHE54   LEU82   GLN84   HIS87   GLY126 
 GLU127  MET128  PHE129  SER130  HIS131  LEU132  ARG133  ARG134  ILE135  GLY136 
 ARG137  ARG165  ASP166  LEU167  LYS168  PRO169  GLU170  ASN171  LEU173  ASP184 
 GLY186  PHE187  TPO197  LEU198  CYS199  GLY200  THR201  PRO202  GLU203  TYR204 
 LEU205  ILE209  ILE210  VAL226  LEU227  TYR229  GLU230  ALA233  GLY234  TYR235 
 PRO236  PRO237  PHE238  PHE239  ALA240  ASP241  GLN242  PRO243  ILE244  GLN245 
 ILE246  TYR247  ARG256  PHE257  PRO258  SER259  ASN326  PHE327  ASP328  ASP329 
 TYR330 

> <Gold.Protein.RotatedAtoms>
   17.8928   12.6183    3.2517 H   0  0  0  0  0  0  0  0  0  0  0  0  # atno 556  bound_to 552 
   24.9259    4.9615  -12.3923 H   0  0  0  0  0  0  0  0  0  0  0  0  # atno 1848 bound_to 1843
   18.3922    3.5634   -1.2019 H   0  0  0  0  0  0  0  0  0  0  0  0  # atno 2507 bound_to 2496
   18.9876    4.0579    0.2634 H   0  0  0  0  0  0  0  0  0  0  0  0  # atno 2508 bound_to 2496
   19.1874    5.0126   -1.0778 H   0  0  0  0  0  0  0  0  0  0  0  0  # atno 2509 bound_to 2496
   16.9435    3.0014    0.5483 H   0  0  0  0  0  0  0  0  0  0  0  0  # atno 3042 bound_to 3035
   20.5559   -4.1158   -4.3231 H   0  0  0  0  0  0  0  0  0  0  0  0  # atno 3092 bound_to 3083
   15.1628  -13.9330   -7.0377 H   0  0  0  0  0  0  0  0  0  0  0  0  # atno 3477 bound_to 3468
   15.4826  -14.0965  -11.2283 H   0  0  0  0  0  0  0  0  0  0  0  0  # atno 3557 bound_to 3548
    9.4432    0.4760    1.7556 H   0  0  0  0  0  0  0  0  0  0  0  0  # atno 3738 bound_to 3729
   22.0807   10.4072   -8.5285 H   0  0  0  0  0  0  0  0  0  0  0  0  # atno 4996 bound_to 4987
   16.9134  -14.0524  -12.0025 LP  0  0  0  0  0  0  0  0  0  0  0  0  # atno 5299 bound_to 3548
   15.5277  -13.7921  -12.8263 LP  0  0  0  0  0  0  0  0  0  0  0  0  # atno 5300 bound_to 3548
   16.1237  -15.1243   -7.5908 LP  0  0  0  0  0  0  0  0  0  0  0  0  # atno 5307 bound_to 3468
   16.0115  -13.7157   -8.4093 LP  0  0  0  0  0  0  0  0  0  0  0  0  # atno 5308 bound_to 3468
    9.9445    0.4011    3.3016 LP  0  0  0  0  0  0  0  0  0  0  0  0  # atno 5361 bound_to 3729
    8.4688    1.0036    2.9469 LP  0  0  0  0  0  0  0  0  0  0  0  0  # atno 5362 bound_to 3729
   18.3000    2.3038   -0.0178 LP  0  0  0  0  0  0  0  0  0  0  0  0  # atno 5363 bound_to 3035
   17.9574    2.2539    1.5781 LP  0  0  0  0  0  0  0  0  0  0  0  0  # atno 5364 bound_to 3035
   23.5575   10.2778   -9.1991 LP  0  0  0  0  0  0  0  0  0  0  0  0  # atno 5373 bound_to 4987
   22.2219   10.0168  -10.1017 LP  0  0  0  0  0  0  0  0  0  0  0  0  # atno 5374 bound_to 4987
   26.3698    5.5886  -11.9790 LP  0  0  0  0  0  0  0  0  0  0  0  0  # atno 5381 bound_to 1843
   25.6379    4.5038  -11.0021 LP  0  0  0  0  0  0  0  0  0  0  0  0  # atno 5382 bound_to 1843
   21.1006   -5.4910   -3.6445 LP  0  0  0  0  0  0  0  0  0  0  0  0  # atno 5411 bound_to 3083
   21.9595   -4.1097   -3.4995 LP  0  0  0  0  0  0  0  0  0  0  0  0  # atno 5412 bound_to 3083
   18.4515   12.7766    1.7316 LP  0  0  0  0  0  0  0  0  0  0  0  0  # atno 5419 bound_to 552 
   17.7510   11.3798    2.2058 LP  0  0  0  0  0  0  0  0  0  0  0  0  # atno 5420 bound_to 552 

> <Gold.Score>
     Fitness  S(hb_ext) S(vdw_ext)  S(hb_int)    S(int)      intcor
     35.71       0.03      27.53       0.00      -2.17      -0.79

> <Gold.Goldscore.Fitness>
35.7116

> <Gold.Goldscore.Internal.Vdw>
-2.5510

> <Gold.Goldscore.Internal.Torsion>
-0.4105

> <Gold.Goldscore.External.Vdw>
27.5294

> <Gold.Goldscore.Internal.HBond>
0.0000

> <Gold.Goldscore.External.HBond>
0.0309

> <Gold.Goldscore.Internal.Correction>
-0.7893

> <Gold.Goldscore.Hbonds>
donor molecule, donor type, donor heavy atom, donor atom, acceptor molecule, acceptor atom, score
      P1  H   547   557       L1    11  0.02

> <Gold.Goldscore.Internal.Vdw.Weighted>
-2.5510

> <Gold.Goldscore.Internal.Torsion.Weighted>
-0.4105

> <Gold.Goldscore.External.Vdw.Weighted>
37.8530

> <Gold.Goldscore.Internal.HBond.Weighted>
0.0000

> <Gold.Goldscore.External.HBond.Weighted>
0.0309

> <Gold.Goldscore.Internal.Correction.Weighted>
-0.7893

> <Gold.Rescore>
     Score     S(PLP)   S(hbond)     S(cho)   S(metal)  DE(clash)   DE(tors)     intcor
     26.62     -28.04       0.00       0.00       0.00       1.28       0.07       ----

> <Gold.PLP.Fitness>
26.6162

> <Gold.PLP.PLP>
-28.0417

> <Gold.PLP.part.hbond>
-1.8234

> <Gold.PLP.part.metal>
0.0000

> <Gold.PLP.part.buried>
0.6171

> <Gold.PLP.part.nonpolar>
-28.1885

> <Gold.PLP.part.repulsive>
0.2053

> <Gold.PLP.ligand.clash>
1.2826

> <Gold.PLP.ligand.torsion>
0.0715

> <Gold.PLP.Chemscore.Hbond>
0.0000

> <Gold.PLP.Chemscore.CHOScore>
0.0000

> <Gold.PLP.Chemscore.Metal>
0.0000

> <Gold.PLP.Chemscore.Internal.Correction>
   9.000000E+99

