#       Name:                CT1002167954
#       Creating user name   hitesit
#       Creation time:       Sun Apr 16 20:16:06 2023


#       File generated by GOLD software.
#

@<TRIPOS>MOLECULE
CT1002167954|ligand_prepared|mol2|1|dock3
    29    30     1
SMALL
NO_CHARGES


@<TRIPOS>ATOM
      1 C1          19.3704   9.0623   0.6305 C.3            1 RES1               0.0000
      2 C2          19.3732   9.1861   2.1678 C.ar           1 RES1               0.0000
      3 C3          18.9605   7.6264   0.3170 C.2            1 RES1               0.0000
      4 C4          18.3920  10.1142   0.1196 C.2            1 RES1               0.0000
      5 C5          20.7466   9.3336  -0.0207 C.3            1 RES1               0.0000
      6 C6          18.1835   9.3703   2.8661 C.ar           1 RES1               0.0000
      7 C7          20.5550   9.1154   2.9005 C.ar           1 RES1               0.0000
      8 N8          17.7025   7.4198  -0.1674 N.am           1 RES1               0.0000
      9 O9          19.7157   6.6856   0.5288 O.2            1 RES1               0.0000
     10 N10         17.2511   9.6810  -0.5036 N.am           1 RES1               0.0000
     11 O11         18.5908  11.3139   0.2659 O.2            1 RES1               0.0000
     12 C12         20.7016   9.4135  -1.5385 C.3            1 RES1               0.0000
     13 C13         18.1753   9.4771   4.2469 C.ar           1 RES1               0.0000
     14 C14         20.5445   9.2226   4.2814 C.ar           1 RES1               0.0000
     15 C15         16.8472   8.3811  -0.6429 C.2            1 RES1               0.0000
     16 C16         19.3555   9.4028   4.9555 C.ar           1 RES1               0.0000
     17 O17         15.7808   8.0729  -1.1673 O.2            1 RES1               0.0000
     18 H18         21.1425  10.2787   0.3711 H              1 RES1               0.0000
     19 H19         21.4388   8.5339   0.2704 H              1 RES1               0.0000
     20 H20         17.2451   9.4336   2.3253 H              1 RES1               0.0000
     21 H21         21.5024   8.9750   2.3912 H              1 RES1               0.0000
     22 H22         17.3665   6.4621  -0.1769 H              1 RES1               0.0000
     23 H23         16.6469  10.3936  -0.9004 H              1 RES1               0.0000
     24 H24         21.6928   9.6053  -1.9442 H              1 RES1               0.0000
     25 H25         20.3362   8.4809  -1.9633 H              1 RES1               0.0000
     26 H26         20.0417  10.2154  -1.8631 H              1 RES1               0.0000
     27 H27         17.2370   9.6203   4.7727 H              1 RES1               0.0000
     28 H28         21.4759   9.1642   4.8350 H              1 RES1               0.0000
     29 H29         19.3487   9.4861   6.0373 H              1 RES1               0.0000
@<TRIPOS>BOND
    1    1    2 1     
    2    1    3 1     
    3    1    4 1     
    4    1    5 1     
    5    2    6 ar    
    6    2    7 ar    
    7    3    8 1     
    8    3    9 2     
    9    4   10 1     
   10    4   11 2     
   11    5   12 1     
   12    5   18 1     
   13    5   19 1     
   14    6   13 ar    
   15    6   20 1     
   16    7   14 ar    
   17    7   21 1     
   18    8   15 1     
   19    8   22 1     
   20   10   15 1     
   21   10   23 1     
   22   12   24 1     
   23   12   25 1     
   24   12   26 1     
   25   13   16 ar    
   26   13   27 1     
   27   14   16 ar    
   28   14   28 1     
   29   15   17 2     
   30   16   29 1     
@<TRIPOS>SUBSTRUCTURE
      1 RES1           1
@<TRIPOS>SET
DONOR_HYDROGENS      STATIC     ATOMS    <user>   **** ""
2 22 23
ATOM$RED        STATIC     ATOMS    COLORGROUP SYSTEM
2 22 23
@<TRIPOS>COMMENT
> <Gold.Version>
2022.3.0

> <Gold.Id.Protein>
unknown|3oog_clean|pdb

> <Gold.Protein.RotatedTorsions>
[ 3557 3548 3547 3545 ] final  -11.47 input   60.02 | X-H torsion
[ 3477 3468 3467 3465 ] final   62.16 input   60.01 | X-H torsion
[ 3738 3729 3728 3726 ] final  -84.01 input   59.99 | X-H torsion
[ 3042 3035 3033 3030 ] final   -5.07 input   59.98 | X-H torsion
[ 4996 4987 4986 4984 ] final  -13.03 input   60.02 | X-H torsion
[ 2507 2496 2495 2494 ] final  154.40 input   60.00 | X-H torsion
[ 1848 1843 1842 1839 ] final   96.11 input   60.03 | X-H torsion
[ 3092 3083 3082 3080 ] final   66.90 input   60.01 | X-H torsion
[  556  552  551  548 ] final   46.69 input   60.01 | X-H torsion

> <Gold.Protein.ActiveResidues>
 LEU49   GLY50   THR51   GLY52   SER53   PHE54   LEU82   GLN84   HIS87   GLY126 
 GLU127  MET128  PHE129  SER130  HIS131  LEU132  ARG133  ARG134  ILE135  GLY136 
 ARG137  ARG165  ASP166  LEU167  LYS168  PRO169  GLU170  ASN171  LEU173  ASP184 
 GLY186  PHE187  TPO197  LEU198  CYS199  GLY200  THR201  PRO202  GLU203  TYR204 
 LEU205  ILE209  ILE210  VAL226  LEU227  TYR229  GLU230  ALA233  GLY234  TYR235 
 PRO236  PRO237  PHE238  PHE239  ALA240  ASP241  GLN242  PRO243  ILE244  GLN245 
 ILE246  TYR247  ARG256  PHE257  PRO258  SER259  ASN326  PHE327  ASP328  ASP329 
 TYR330 

> <Gold.Protein.RotatedAtoms>
   18.3508   13.1363    2.4671 H   0  0  0  0  0  0  0  0  0  0  0  0  # atno 556  bound_to 552 
   26.1677    4.8492  -11.0352 H   0  0  0  0  0  0  0  0  0  0  0  0  # atno 1848 bound_to 1843
   19.3275    4.9063   -0.2148 H   0  0  0  0  0  0  0  0  0  0  0  0  # atno 2507 bound_to 2496
   18.6827    4.2880   -1.6105 H   0  0  0  0  0  0  0  0  0  0  0  0  # atno 2508 bound_to 2496
   18.5565    3.4390   -0.1916 H   0  0  0  0  0  0  0  0  0  0  0  0  # atno 2509 bound_to 2496
   17.1102    2.7789    1.3529 H   0  0  0  0  0  0  0  0  0  0  0  0  # atno 3042 bound_to 3035
   21.4961   -3.6836   -3.8820 H   0  0  0  0  0  0  0  0  0  0  0  0  # atno 3092 bound_to 3083
   16.2851  -14.2074   -8.4548 H   0  0  0  0  0  0  0  0  0  0  0  0  # atno 3477 bound_to 3468
   15.7427  -14.1358  -11.1231 H   0  0  0  0  0  0  0  0  0  0  0  0  # atno 3557 bound_to 3548
    9.6458    0.5476    3.5259 H   0  0  0  0  0  0  0  0  0  0  0  0  # atno 3738 bound_to 3729
   23.4048   10.1329   -9.7722 H   0  0  0  0  0  0  0  0  0  0  0  0  # atno 4996 bound_to 4987
   16.8788  -13.9960  -12.2799 LP  0  0  0  0  0  0  0  0  0  0  0  0  # atno 5299 bound_to 3548
   15.3004  -13.8090  -12.6548 LP  0  0  0  0  0  0  0  0  0  0  0  0  # atno 5300 bound_to 3548
   15.2292  -13.5244   -7.4217 LP  0  0  0  0  0  0  0  0  0  0  0  0  # atno 5307 bound_to 3468
   15.7761  -15.0393   -7.1519 LP  0  0  0  0  0  0  0  0  0  0  0  0  # atno 5308 bound_to 3468
    8.4230    0.9875    2.5469 LP  0  0  0  0  0  0  0  0  0  0  0  0  # atno 5361 bound_to 3729
    9.7862    0.3452    1.9177 LP  0  0  0  0  0  0  0  0  0  0  0  0  # atno 5362 bound_to 3729
   17.5886    2.7461   -0.2018 LP  0  0  0  0  0  0  0  0  0  0  0  0  # atno 5363 bound_to 3035
   18.5008    2.0358    0.9514 LP  0  0  0  0  0  0  0  0  0  0  0  0  # atno 5364 bound_to 3035
   21.7802   10.1084   -9.6868 LP  0  0  0  0  0  0  0  0  0  0  0  0  # atno 5373 bound_to 4987
   22.6652   10.4627   -8.3610 LP  0  0  0  0  0  0  0  0  0  0  0  0  # atno 5374 bound_to 4987
   24.8160    4.5781  -11.9004 LP  0  0  0  0  0  0  0  0  0  0  0  0  # atno 5381 bound_to 1843
   25.9417    5.6273  -12.4468 LP  0  0  0  0  0  0  0  0  0  0  0  0  # atno 5382 bound_to 1843
   20.3948   -4.8290   -4.2336 LP  0  0  0  0  0  0  0  0  0  0  0  0  # atno 5411 bound_to 3083
   21.7182   -5.2071   -3.3548 LP  0  0  0  0  0  0  0  0  0  0  0  0  # atno 5412 bound_to 3083
   18.1134   11.7898    1.5849 LP  0  0  0  0  0  0  0  0  0  0  0  0  # atno 5419 bound_to 552 
   17.6278   11.8447    3.1430 LP  0  0  0  0  0  0  0  0  0  0  0  0  # atno 5420 bound_to 552 

> <Gold.Score>
     Fitness  S(hb_ext) S(vdw_ext)  S(hb_int)    S(int)      intcor
     28.66       7.97      15.13       0.00      -0.12      -0.77

> <Gold.Goldscore.Fitness>
28.6592

> <Gold.Goldscore.Internal.Vdw>
-0.4117

> <Gold.Goldscore.Internal.Torsion>
-0.4795

> <Gold.Goldscore.External.Vdw>
15.1335

> <Gold.Goldscore.Internal.HBond>
0.0000

> <Gold.Goldscore.External.HBond>
7.9726

> <Gold.Goldscore.Internal.Correction>
-0.7693

> <Gold.Goldscore.Hbonds>
donor molecule, donor type, donor heavy atom, donor atom, acceptor molecule, acceptor atom, score
      P1  H  2496  2507       L1     9  1.00
      P1  H   547   557       L1    11  0.99

> <Gold.Goldscore.Internal.Vdw.Weighted>
-0.4117

> <Gold.Goldscore.Internal.Torsion.Weighted>
-0.4795

> <Gold.Goldscore.External.Vdw.Weighted>
20.8085

> <Gold.Goldscore.Internal.HBond.Weighted>
0.0000

> <Gold.Goldscore.External.HBond.Weighted>
7.9726

> <Gold.Goldscore.Internal.Correction.Weighted>
-0.7693

> <Gold.Rescore>
     Score     S(PLP)   S(hbond)     S(cho)   S(metal)  DE(clash)   DE(tors)     intcor
     27.24     -21.52       1.94       0.00       0.00       0.00       0.06       ----

> <Gold.PLP.Fitness>
27.2397

> <Gold.PLP.PLP>
-21.5248

> <Gold.PLP.part.hbond>
-3.0000

> <Gold.PLP.part.metal>
0.0000

> <Gold.PLP.part.buried>
-2.8627

> <Gold.PLP.part.nonpolar>
-16.8562

> <Gold.PLP.part.repulsive>
0.2457

> <Gold.PLP.ligand.clash>
0.0000

> <Gold.PLP.ligand.torsion>
0.0586

> <Gold.PLP.Chemscore.Hbond>
1.9440

> <Gold.PLP.Chemscore.CHOScore>
0.0000

> <Gold.PLP.Chemscore.Metal>
0.0000

> <Gold.Chemscore.Hbonds>
donor molecule, donor type, donor heavy atom, donor atom, acceptor molecule, acceptor atom, score
      P1  H  2496  2507       L1     9  1.00
      P1  H   547   557       L1    11  0.67

> <Gold.PLP.Chemscore.Internal.Correction>
   9.000000E+99

