#       Name:                CT1002167954
#       Creating user name   hitesit
#       Creation time:       Sun Apr 16 20:16:46 2023


#       File generated by GOLD software.
#

@<TRIPOS>MOLECULE
CT1002167954|ligand_prepared|mol2|1|dock6
    29    30     1
SMALL
NO_CHARGES


@<TRIPOS>ATOM
      1 C1         118.0996 245.3244 359.5802 C.3            1 RES1               0.0000
      2 C2         118.7646 246.3225 358.6104 C.ar           1 RES1               0.0000
      3 C3         119.0201 245.2278 360.7933 C.2            1 RES1               0.0000
      4 C4         116.7176 245.8881 359.8912 C.2            1 RES1               0.0000
      5 C5         117.9157 243.9072 358.9891 C.3            1 RES1               0.0000
      6 C6         119.9464 245.9923 357.9539 C.ar           1 RES1               0.0000
      7 C7         118.2076 247.5739 358.3606 C.ar           1 RES1               0.0000
      8 N8         118.6159 245.8393 361.9434 N.am           1 RES1               0.0000
      9 O9         120.1023 244.6576 360.7305 O.2            1 RES1               0.0000
     10 N10        116.4623 246.2899 361.1762 N.am           1 RES1               0.0000
     11 O11        115.8528 246.0034 359.0314 O.2            1 RES1               0.0000
     12 C12        116.8713 243.0719 359.7128 C.3            1 RES1               0.0000
     13 C13        120.5481 246.8798 357.0771 C.ar           1 RES1               0.0000
     14 C14        118.8110 248.4599 357.4835 C.ar           1 RES1               0.0000
     15 C15        117.3588 246.3195 362.2094 C.2            1 RES1               0.0000
     16 C16        119.9807 248.1138 356.8410 C.ar           1 RES1               0.0000
     17 O17        117.0694 246.7461 363.3236 O.2            1 RES1               0.0000
     18 H18        117.6259 243.9991 357.9351 H              1 RES1               0.0000
     19 H19        118.8774 243.3809 359.0277 H              1 RES1               0.0000
     20 H20        120.4089 245.0267 358.1290 H              1 RES1               0.0000
     21 H21        117.2883 247.8680 358.8556 H              1 RES1               0.0000
     22 H22        119.3128 245.9497 362.6731 H              1 RES1               0.0000
     23 H23        115.5162 246.5950 361.3815 H              1 RES1               0.0000
     24 H24        116.7821 242.0875 359.2582 H              1 RES1               0.0000
     25 H25        117.1407 242.9390 360.7586 H              1 RES1               0.0000
     26 H26        115.8965 243.5535 359.6724 H              1 RES1               0.0000
     27 H27        121.4693 246.6031 356.5750 H              1 RES1               0.0000
     28 H28        118.3613 249.4304 357.3012 H              1 RES1               0.0000
     29 H29        120.4520 248.8087 356.1538 H              1 RES1               0.0000
@<TRIPOS>BOND
    1    1    2 1     
    2    1    3 1     
    3    1    4 1     
    4    1    5 1     
    5    2    6 ar    
    6    2    7 ar    
    7    3    8 1     
    8    3    9 2     
    9    4   10 1     
   10    4   11 2     
   11    5   12 1     
   12    5   18 1     
   13    5   19 1     
   14    6   13 ar    
   15    6   20 1     
   16    7   14 ar    
   17    7   21 1     
   18    8   15 1     
   19    8   22 1     
   20   10   15 1     
   21   10   23 1     
   22   12   24 1     
   23   12   25 1     
   24   12   26 1     
   25   13   16 ar    
   26   13   27 1     
   27   14   16 ar    
   28   14   28 1     
   29   15   17 2     
   30   16   29 1     
@<TRIPOS>SUBSTRUCTURE
      1 RES1           1
@<TRIPOS>SET
DONOR_HYDROGENS      STATIC     ATOMS    <user>   **** ""
2 22 23
ATOM$RED        STATIC     ATOMS    COLORGROUP SYSTEM
2 22 23
@<TRIPOS>COMMENT
> <Gold.Version>
2022.3.0

> <Gold.Id.Protein>
unknown|5adf_clean|pdb

> <Gold.Protein.RotatedTorsions>
[ 9076 9061 9060 9058 ] final   63.46 input   60.03 | X-H torsion
[ 8987 8971 8970 8967 ] final  178.16 input   59.98 | X-H torsion
[ 12872 12851 12850 12848 ] final   20.08 input   59.99 | X-H torsion
[ 5555 5539 5538 5535 ] final   67.66 input   60.00 | X-H torsion
[ 8337 8307 8306 8304 ] final -109.56 input   59.97 | X-H torsion
[ 8491 8475 8474 8471 ] final   84.74 input   60.02 | X-H torsion

> <Gold.Protein.ActiveResidues>
 MET341  HIS342  TRP414  ALA417  ARG419  CYS420  VAL421  GLY422  LEU460  SER462 
 ASN481  SER482  GLN483  LEU484  ARG486  ALA502  ASN503  TRP566  TYR567  GLY568 
 LEU569  PRO570  ALA571  VAL572  SER573  ASN574  MET575  LEU576  PHE589  SER590 
 GLY591  TRP592  TYR593  MET594  GLY595  GLU597  ILE598  ARG601  ASP602  ARG608 
 ILE653  VAL654  TRP683  PHE709  GLU710  TYR711  GLN712  ASP714  HEM750  H4B760 

> <Gold.Protein.RotatedAtoms>
  127.1616  248.2370  362.3516 H   0  0  0  0  0  0  0  0  0  0  0  0  # atno 5555 bound_to 5539
  125.6759  241.3699  361.0965 H   0  0  0  0  0  0  0  0  0  0  0  0  # atno 8337 bound_to 8307
  124.8243  251.0788  366.9865 H   0  0  0  0  0  0  0  0  0  0  0  0  # atno 8491 bound_to 8475
  116.2525  243.7329  368.7089 H   0  0  0  0  0  0  0  0  0  0  0  0  # atno 8987 bound_to 8971
  122.6702  241.5017  360.9262 H   0  0  0  0  0  0  0  0  0  0  0  0  # atno 9076 bound_to 9061
  120.7752  253.2366  355.1086 H   0  0  0  0  0  0  0  0  0  0  0  0  # atno 12872 bound_to 12851
  123.5362  240.4538  360.0313 LP  0  0  0  0  0  0  0  0  0  0  0  0  # atno 13471 bound_to 9061
  123.2461  240.1404  361.6075 LP  0  0  0  0  0  0  0  0  0  0  0  0  # atno 13472 bound_to 9061
  114.9256  243.9597  367.7946 LP  0  0  0  0  0  0  0  0  0  0  0  0  # atno 13487 bound_to 8971
  115.7009  245.2411  368.4456 LP  0  0  0  0  0  0  0  0  0  0  0  0  # atno 13488 bound_to 8971
  121.8346  253.7064  353.9663 LP  0  0  0  0  0  0  0  0  0  0  0  0  # atno 13503 bound_to 12851
  120.2637  254.1380  353.8542 LP  0  0  0  0  0  0  0  0  0  0  0  0  # atno 13504 bound_to 12851
  128.4724  248.8385  363.1051 LP  0  0  0  0  0  0  0  0  0  0  0  0  # atno 13506 bound_to 5539
  128.3955  248.8328  361.4740 LP  0  0  0  0  0  0  0  0  0  0  0  0  # atno 13507 bound_to 5539
  126.4140  242.2000  362.2857 LP  0  0  0  0  0  0  0  0  0  0  0  0  # atno 13510 bound_to 8307
  124.7968  242.3131  362.0893 LP  0  0  0  0  0  0  0  0  0  0  0  0  # atno 13511 bound_to 8307
  124.2359  250.0667  365.8563 LP  0  0  0  0  0  0  0  0  0  0  0  0  # atno 13522 bound_to 8475
  124.6725  249.4937  367.3218 LP  0  0  0  0  0  0  0  0  0  0  0  0  # atno 13523 bound_to 8475

> <Gold.Score>
     Fitness  S(hb_ext) S(vdw_ext)  S(hb_int)    S(int)      intcor
     49.54      11.40      29.96       0.00      -3.06      -0.77

> <Gold.Goldscore.Fitness>
49.5362

> <Gold.Goldscore.Internal.Vdw>
-2.8874

> <Gold.Goldscore.Internal.Torsion>
-0.9345

> <Gold.Goldscore.External.Vdw>
29.9585

> <Gold.Goldscore.Internal.HBond>
0.0000

> <Gold.Goldscore.External.HBond>
11.3999

> <Gold.Goldscore.Internal.Correction>
-0.7653

> <Gold.Goldscore.Hbonds>
donor molecule, donor type, donor heavy atom, donor atom, acceptor molecule, acceptor atom, score
      P1  H  8438  8461       L1    17  0.70
      P1  M 13283 13537       L1    11  1.00

> <Gold.Goldscore.Internal.Vdw.Weighted>
-2.8874

> <Gold.Goldscore.Internal.Torsion.Weighted>
-0.9345

> <Gold.Goldscore.External.Vdw.Weighted>
41.1929

> <Gold.Goldscore.Internal.HBond.Weighted>
0.0000

> <Gold.Goldscore.External.HBond.Weighted>
11.3999

> <Gold.Goldscore.Internal.Correction.Weighted>
-0.7653

> <Gold.Rescore>
     Score     S(PLP)   S(hbond)     S(cho)   S(metal)  DE(clash)   DE(tors)     intcor
     49.34     -42.69       0.88       0.00       1.00       1.39       0.29       ----

> <Gold.PLP.Fitness>
49.3447

> <Gold.PLP.PLP>
-42.6881

> <Gold.PLP.part.hbond>
-1.7020

> <Gold.PLP.part.metal>
-1.0000

> <Gold.PLP.part.buried>
10.5535

> <Gold.PLP.part.nonpolar>
-59.8002

> <Gold.PLP.part.repulsive>
5.4592

> <Gold.PLP.ligand.clash>
1.3887

> <Gold.PLP.ligand.torsion>
0.2936

> <Gold.PLP.Chemscore.Hbond>
0.8775

> <Gold.PLP.Chemscore.CHOScore>
0.0000

> <Gold.PLP.Chemscore.Metal>
1.0000

> <Gold.Chemscore.Hbonds>
donor molecule, donor type, donor heavy atom, donor atom, acceptor molecule, acceptor atom, score
      P1  H  8438  8461       L1    17  0.33
      P1  M 13283 13283       L1    11  0.99

> <Gold.PLP.Chemscore.Internal.Correction>
   9.000000E+99

