#       Name:                CT1002167954
#       Creating user name   hitesit
#       Creation time:       Sun Apr 16 20:16:42 2023


#       File generated by GOLD software.
#

@<TRIPOS>MOLECULE
CT1002167954|ligand_prepared|mol2|1|dock2
    29    30     1
SMALL
NO_CHARGES


@<TRIPOS>ATOM
      1 C1         122.9105 249.1528 358.5161 C.3            1 RES1               0.0000
      2 C2         121.8909 248.0140 358.7219 C.ar           1 RES1               0.0000
      3 C3         122.3573 250.0255 357.3934 C.2            1 RES1               0.0000
      4 C4         123.0292 249.8667 359.8581 C.2            1 RES1               0.0000
      5 C5         124.3199 248.6635 358.1089 C.3            1 RES1               0.0000
      6 C6         122.2462 246.8617 359.4167 C.ar           1 RES1               0.0000
      7 C7         120.5929 248.1022 358.2259 C.ar           1 RES1               0.0000
      8 N8         121.8322 251.2369 357.7350 N.am           1 RES1               0.0000
      9 O9         122.3461 249.6400 356.2308 O.2            1 RES1               0.0000
     10 N10        122.5924 251.1632 359.9365 N.am           1 RES1               0.0000
     11 O11        123.4818 249.3129 360.8524 O.2            1 RES1               0.0000
     12 C12        125.2764 249.7869 357.7412 C.3            1 RES1               0.0000
     13 C13        121.3360 245.8360 359.6113 C.ar           1 RES1               0.0000
     14 C14        119.6843 247.0752 358.4214 C.ar           1 RES1               0.0000
     15 C15        121.9710 251.8705 358.9437 C.2            1 RES1               0.0000
     16 C16        120.0545 245.9422 359.1142 C.ar           1 RES1               0.0000
     17 O17        121.5570 253.0147 359.1071 O.2            1 RES1               0.0000
     18 H18        124.7495 248.0923 358.9411 H              1 RES1               0.0000
     19 H19        124.2245 247.9862 357.2513 H              1 RES1               0.0000
     20 H20        123.2509 246.7592 359.8130 H              1 RES1               0.0000
     21 H21        120.2799 248.9838 357.6768 H              1 RES1               0.0000
     22 H22        121.2857 251.7158 357.0263 H              1 RES1               0.0000
     23 H23        122.7447 251.6456 360.8165 H              1 RES1               0.0000
     24 H24        126.2502 249.3890 357.4636 H              1 RES1               0.0000
     25 H25        124.8925 250.3606 356.9002 H              1 RES1               0.0000
     26 H26        125.4144 250.4661 358.5800 H              1 RES1               0.0000
     27 H27        121.6327 244.9459 360.1560 H              1 RES1               0.0000
     28 H28        118.6770 247.1628 358.0279 H              1 RES1               0.0000
     29 H29        119.3415 245.1388 359.2671 H              1 RES1               0.0000
@<TRIPOS>BOND
    1    1    2 1     
    2    1    3 1     
    3    1    4 1     
    4    1    5 1     
    5    2    6 ar    
    6    2    7 ar    
    7    3    8 1     
    8    3    9 2     
    9    4   10 1     
   10    4   11 2     
   11    5   12 1     
   12    5   18 1     
   13    5   19 1     
   14    6   13 ar    
   15    6   20 1     
   16    7   14 ar    
   17    7   21 1     
   18    8   15 1     
   19    8   22 1     
   20   10   15 1     
   21   10   23 1     
   22   12   24 1     
   23   12   25 1     
   24   12   26 1     
   25   13   16 ar    
   26   13   27 1     
   27   14   16 ar    
   28   14   28 1     
   29   15   17 2     
   30   16   29 1     
@<TRIPOS>SUBSTRUCTURE
      1 RES1           1
@<TRIPOS>SET
DONOR_HYDROGENS      STATIC     ATOMS    <user>   **** ""
2 22 23
ATOM$RED        STATIC     ATOMS    COLORGROUP SYSTEM
2 22 23
@<TRIPOS>COMMENT
> <Gold.Version>
2022.3.0

> <Gold.Id.Protein>
unknown|5adf_clean|pdb

> <Gold.Protein.RotatedTorsions>
[ 9076 9061 9060 9058 ] final   20.31 input   60.03 | X-H torsion
[ 8987 8971 8970 8967 ] final  -73.97 input   59.98 | X-H torsion
[ 12872 12851 12850 12848 ] final  -25.71 input   59.99 | X-H torsion
[ 5555 5539 5538 5535 ] final  133.77 input   60.00 | X-H torsion
[ 8337 8307 8306 8304 ] final  -61.47 input   59.97 | X-H torsion
[ 8491 8475 8474 8471 ] final  -74.30 input   60.02 | X-H torsion

> <Gold.Protein.ActiveResidues>
 MET341  HIS342  TRP414  ALA417  ARG419  CYS420  VAL421  GLY422  LEU460  SER462 
 ASN481  SER482  GLN483  LEU484  ARG486  ALA502  ASN503  TRP566  TYR567  GLY568 
 LEU569  PRO570  ALA571  VAL572  SER573  ASN574  MET575  LEU576  PHE589  SER590 
 GLY591  TRP592  TYR593  MET594  GLY595  GLU597  ILE598  ARG601  ASP602  ARG608 
 ILE653  VAL654  TRP683  PHE709  GLU710  TYR711  GLN712  ASP714  HEM750  H4B760 

> <Gold.Protein.RotatedAtoms>
  127.6244  248.4715  361.4722 H   0  0  0  0  0  0  0  0  0  0  0  0  # atno 5555 bound_to 5539
  124.9704  241.6135  361.2539 H   0  0  0  0  0  0  0  0  0  0  0  0  # atno 8337 bound_to 8307
  124.2561  249.5266  366.1758 H   0  0  0  0  0  0  0  0  0  0  0  0  # atno 8491 bound_to 8475
  115.8601  245.1861  368.5511 H   0  0  0  0  0  0  0  0  0  0  0  0  # atno 8987 bound_to 8971
  122.9133  241.4077  360.2887 H   0  0  0  0  0  0  0  0  0  0  0  0  # atno 9076 bound_to 9061
  121.4761  253.1978  354.9137 H   0  0  0  0  0  0  0  0  0  0  0  0  # atno 12872 bound_to 12851
  123.6597  239.9805  360.5227 LP  0  0  0  0  0  0  0  0  0  0  0  0  # atno 13471 bound_to 9061
  122.8779  240.7083  361.7579 LP  0  0  0  0  0  0  0  0  0  0  0  0  # atno 13472 bound_to 9061
  116.1478  243.5861  368.6253 LP  0  0  0  0  0  0  0  0  0  0  0  0  # atno 13487 bound_to 8971
  114.8739  244.1509  367.7739 LP  0  0  0  0  0  0  0  0  0  0  0  0  # atno 13488 bound_to 8971
  121.3581  254.0774  353.5498 LP  0  0  0  0  0  0  0  0  0  0  0  0  # atno 13503 bound_to 12851
  120.0345  253.8061  354.4669 LP  0  0  0  0  0  0  0  0  0  0  0  0  # atno 13504 bound_to 12851
  127.5420  248.4003  363.0958 LP  0  0  0  0  0  0  0  0  0  0  0  0  # atno 13506 bound_to 5539
  128.8597  249.0347  362.3693 LP  0  0  0  0  0  0  0  0  0  0  0  0  # atno 13507 bound_to 5539
  126.5314  241.7142  361.7024 LP  0  0  0  0  0  0  0  0  0  0  0  0  # atno 13510 bound_to 8307
  125.3899  242.5536  362.5141 LP  0  0  0  0  0  0  0  0  0  0  0  0  # atno 13511 bound_to 8307
  124.8670  250.0250  367.5993 LP  0  0  0  0  0  0  0  0  0  0  0  0  # atno 13522 bound_to 8475
  124.6137  251.0988  366.3953 LP  0  0  0  0  0  0  0  0  0  0  0  0  # atno 13523 bound_to 8475

> <Gold.Score>
     Fitness  S(hb_ext) S(vdw_ext)  S(hb_int)    S(int)      intcor
     32.89       7.27      19.49       0.00      -1.17      -0.77

> <Gold.Goldscore.Fitness>
32.8860

> <Gold.Goldscore.Internal.Vdw>
-1.4888

> <Gold.Goldscore.Internal.Torsion>
-0.4513

> <Gold.Goldscore.External.Vdw>
19.4860

> <Gold.Goldscore.Internal.HBond>
0.0000

> <Gold.Goldscore.External.HBond>
7.2676

> <Gold.Goldscore.Internal.Correction>
-0.7653

> <Gold.Goldscore.Hbonds>
donor molecule, donor type, donor heavy atom, donor atom, acceptor molecule, acceptor atom, score
      L1  H     8    22       P1 13267  0.98
      L1  H    10    23       P1  8499  0.69

> <Gold.Goldscore.Internal.Vdw.Weighted>
-1.4888

> <Gold.Goldscore.Internal.Torsion.Weighted>
-0.4513

> <Gold.Goldscore.External.Vdw.Weighted>
26.7932

> <Gold.Goldscore.Internal.HBond.Weighted>
0.0000

> <Gold.Goldscore.External.HBond.Weighted>
7.2676

> <Gold.Goldscore.Internal.Correction.Weighted>
-0.7653

> <Gold.Rescore>
     Score     S(PLP)   S(hbond)     S(cho)   S(metal)  DE(clash)   DE(tors)     intcor
     32.36     -30.12       1.36       0.00       0.00       0.00       0.92       ----

> <Gold.PLP.Fitness>
32.3621

> <Gold.PLP.PLP>
-30.1244

> <Gold.PLP.part.hbond>
-2.0000

> <Gold.PLP.part.metal>
0.0000

> <Gold.PLP.part.buried>
-3.5630

> <Gold.PLP.part.nonpolar>
-26.1687

> <Gold.PLP.part.repulsive>
0.5771

> <Gold.PLP.ligand.clash>
0.0000

> <Gold.PLP.ligand.torsion>
0.9178

> <Gold.PLP.Chemscore.Hbond>
1.3578

> <Gold.PLP.Chemscore.CHOScore>
0.0000

> <Gold.PLP.Chemscore.Metal>
0.0000

> <Gold.Chemscore.Hbonds>
donor molecule, donor type, donor heavy atom, donor atom, acceptor molecule, acceptor atom, score
      L1  H     8    22       P1 13267  0.84
      L1  H    10    23       P1  8499  1.00

> <Gold.PLP.Chemscore.Internal.Correction>
   9.000000E+99

