#       Name:                CT1002167954
#       Creating user name   hitesit
#       Creation time:       Sun Apr 16 20:16:47 2023


#       File generated by GOLD software.
#

@<TRIPOS>MOLECULE
CT1002167954|ligand_prepared|mol2|1|dock7
    29    30     1
SMALL
NO_CHARGES


@<TRIPOS>ATOM
      1 C1         121.5203 247.6625 357.6745 C.3            1 RES1               0.0000
      2 C2         120.1105 247.1484 358.0308 C.ar           1 RES1               0.0000
      3 C3         121.3189 248.8575 356.7473 C.2            1 RES1               0.0000
      4 C4         122.1952 248.0083 358.9972 C.2            1 RES1               0.0000
      5 C5         122.4004 246.6194 356.9474 C.3            1 RES1               0.0000
      6 C6         119.0718 248.0414 358.2767 C.ar           1 RES1               0.0000
      7 C7         119.8332 245.7866 358.1147 C.ar           1 RES1               0.0000
      8 N8         121.5442 250.1006 357.2607 N.am           1 RES1               0.0000
      9 O9         120.9302 248.7135 355.5947 O.2            1 RES1               0.0000
     10 N10        122.4970 249.3227 359.2398 N.am           1 RES1               0.0000
     11 O11        122.4533 247.1564 359.8387 O.2            1 RES1               0.0000
     12 C12        123.6269 247.2147 356.2739 C.3            1 RES1               0.0000
     13 C13        117.8011 247.5894 358.5920 C.ar           1 RES1               0.0000
     14 C14        118.5618 245.3367 358.4304 C.ar           1 RES1               0.0000
     15 C15        122.1743 250.3885 358.4447 C.2            1 RES1               0.0000
     16 C16        117.5451 246.2369 358.6687 C.ar           1 RES1               0.0000
     17 O17        122.4314 251.5477 358.7566 O.2            1 RES1               0.0000
     18 H18        122.7276 245.8654 357.6740 H              1 RES1               0.0000
     19 H19        121.7923 246.1118 356.1884 H              1 RES1               0.0000
     20 H20        119.2549 249.1094 358.2233 H              1 RES1               0.0000
     21 H21        120.6178 245.0601 357.9324 H              1 RES1               0.0000
     22 H22        121.2135 250.8892 356.7138 H              1 RES1               0.0000
     23 H23        123.0099 249.5255 360.0919 H              1 RES1               0.0000
     24 H24        124.2091 246.4403 355.7789 H              1 RES1               0.0000
     25 H25        123.3375 247.9508 355.5268 H              1 RES1               0.0000
     26 H26        124.2673 247.7059 357.0035 H              1 RES1               0.0000
     27 H27        117.0048 248.3020 358.7799 H              1 RES1               0.0000
     28 H28        118.3650 244.2713 358.4903 H              1 RES1               0.0000
     29 H29        116.5496 245.8831 358.9153 H              1 RES1               0.0000
@<TRIPOS>BOND
    1    1    2 1     
    2    1    3 1     
    3    1    4 1     
    4    1    5 1     
    5    2    6 ar    
    6    2    7 ar    
    7    3    8 1     
    8    3    9 2     
    9    4   10 1     
   10    4   11 2     
   11    5   12 1     
   12    5   18 1     
   13    5   19 1     
   14    6   13 ar    
   15    6   20 1     
   16    7   14 ar    
   17    7   21 1     
   18    8   15 1     
   19    8   22 1     
   20   10   15 1     
   21   10   23 1     
   22   12   24 1     
   23   12   25 1     
   24   12   26 1     
   25   13   16 ar    
   26   13   27 1     
   27   14   16 ar    
   28   14   28 1     
   29   15   17 2     
   30   16   29 1     
@<TRIPOS>SUBSTRUCTURE
      1 RES1           1
@<TRIPOS>SET
DONOR_HYDROGENS      STATIC     ATOMS    <user>   **** ""
2 22 23
ATOM$RED        STATIC     ATOMS    COLORGROUP SYSTEM
2 22 23
@<TRIPOS>COMMENT
> <Gold.Version>
2022.3.0

> <Gold.Id.Protein>
unknown|5adf_clean|pdb

> <Gold.Protein.RotatedTorsions>
[ 9076 9061 9060 9058 ] final -127.62 input   60.03 | X-H torsion
[ 8987 8971 8970 8967 ] final   -2.13 input   59.98 | X-H torsion
[ 12872 12851 12850 12848 ] final   12.24 input   59.99 | X-H torsion
[ 5555 5539 5538 5535 ] final   31.94 input   60.00 | X-H torsion
[ 8337 8307 8306 8304 ] final   34.18 input   59.97 | X-H torsion
[ 8491 8475 8474 8471 ] final   86.24 input   60.02 | X-H torsion

> <Gold.Protein.ActiveResidues>
 MET341  HIS342  TRP414  ALA417  ARG419  CYS420  VAL421  GLY422  LEU460  SER462 
 ASN481  SER482  GLN483  LEU484  ARG486  ALA502  ASN503  TRP566  TYR567  GLY568 
 LEU569  PRO570  ALA571  VAL572  SER573  ASN574  MET575  LEU576  PHE589  SER590 
 GLY591  TRP592  TYR593  MET594  GLY595  GLU597  ILE598  ARG601  ASP602  ARG608 
 ILE653  VAL654  TRP683  PHE709  GLU710  TYR711  GLN712  ASP714  HEM750  H4B760 

> <Gold.Protein.RotatedAtoms>
  127.3465  248.3140  362.8899 H   0  0  0  0  0  0  0  0  0  0  0  0  # atno 5555 bound_to 5539
  125.0424  242.4713  362.3422 H   0  0  0  0  0  0  0  0  0  0  0  0  # atno 8337 bound_to 8307
  124.8308  251.0699  367.0084 H   0  0  0  0  0  0  0  0  0  0  0  0  # atno 8491 bound_to 8475
  115.0068  244.8907  367.9257 H   0  0  0  0  0  0  0  0  0  0  0  0  # atno 8987 bound_to 8971
  123.5856  239.8778  360.9583 H   0  0  0  0  0  0  0  0  0  0  0  0  # atno 9076 bound_to 9061
  120.8999  253.2071  355.1099 H   0  0  0  0  0  0  0  0  0  0  0  0  # atno 12872 bound_to 12851
  122.7080  241.0950  361.5886 LP  0  0  0  0  0  0  0  0  0  0  0  0  # atno 13471 bound_to 9061
  123.1529  241.1337  360.0179 LP  0  0  0  0  0  0  0  0  0  0  0  0  # atno 13472 bound_to 9061
  116.3311  244.6554  368.8418 LP  0  0  0  0  0  0  0  0  0  0  0  0  # atno 13487 bound_to 8971
  115.5501  243.3792  368.1873 LP  0  0  0  0  0  0  0  0  0  0  0  0  # atno 13488 bound_to 8971
  121.7862  253.7777  353.8703 LP  0  0  0  0  0  0  0  0  0  0  0  0  # atno 13503 bound_to 12851
  120.1866  254.0964  353.9488 LP  0  0  0  0  0  0  0  0  0  0  0  0  # atno 13504 bound_to 12851
  128.8028  249.0024  362.6595 LP  0  0  0  0  0  0  0  0  0  0  0  0  # atno 13506 bound_to 5539
  127.8788  248.5913  361.3774 LP  0  0  0  0  0  0  0  0  0  0  0  0  # atno 13507 bound_to 5539
  125.2968  241.4439  361.1062 LP  0  0  0  0  0  0  0  0  0  0  0  0  # atno 13510 bound_to 8307
  126.5520  241.9600  362.0142 LP  0  0  0  0  0  0  0  0  0  0  0  0  # atno 13511 bound_to 8307
  124.2384  250.0908  365.8515 LP  0  0  0  0  0  0  0  0  0  0  0  0  # atno 13522 bound_to 8475
  124.6635  249.4786  367.3045 LP  0  0  0  0  0  0  0  0  0  0  0  0  # atno 13523 bound_to 8475

> <Gold.Score>
     Fitness  S(hb_ext) S(vdw_ext)  S(hb_int)    S(int)      intcor
     35.31       6.00      21.74       0.00      -0.58      -0.77

> <Gold.Goldscore.Fitness>
35.3126

> <Gold.Goldscore.Internal.Vdw>
-0.6162

> <Gold.Goldscore.Internal.Torsion>
-0.7335

> <Gold.Goldscore.External.Vdw>
21.7433

> <Gold.Goldscore.Internal.HBond>
0.0000

> <Gold.Goldscore.External.HBond>
6.0000

> <Gold.Goldscore.Internal.Correction>
-0.7653

> <Gold.Goldscore.Hbonds>
donor molecule, donor type, donor heavy atom, donor atom, acceptor molecule, acceptor atom, score
      L1  H     8    22       P1 13267  1.00

> <Gold.Goldscore.Internal.Vdw.Weighted>
-0.6162

> <Gold.Goldscore.Internal.Torsion.Weighted>
-0.7335

> <Gold.Goldscore.External.Vdw.Weighted>
29.8970

> <Gold.Goldscore.Internal.HBond.Weighted>
0.0000

> <Gold.Goldscore.External.HBond.Weighted>
6.0000

> <Gold.Goldscore.Internal.Correction.Weighted>
-0.7653

> <Gold.Rescore>
     Score     S(PLP)   S(hbond)     S(cho)   S(metal)  DE(clash)   DE(tors)     intcor
     21.93     -21.88       0.77       0.00       0.00       0.00       1.13       ----

> <Gold.PLP.Fitness>
21.9291

> <Gold.PLP.PLP>
-21.8849

> <Gold.PLP.part.hbond>
-0.8592

> <Gold.PLP.part.metal>
0.0000

> <Gold.PLP.part.buried>
5.6515

> <Gold.PLP.part.nonpolar>
-33.2110

> <Gold.PLP.part.repulsive>
5.9385

> <Gold.PLP.ligand.clash>
0.0000

> <Gold.PLP.ligand.torsion>
1.1299

> <Gold.PLP.Chemscore.Hbond>
0.7680

> <Gold.PLP.Chemscore.CHOScore>
0.0000

> <Gold.PLP.Chemscore.Metal>
0.0000

> <Gold.Chemscore.Hbonds>
donor molecule, donor type, donor heavy atom, donor atom, acceptor molecule, acceptor atom, score
      L1  H     8    22       P1 13267  1.00

> <Gold.PLP.Chemscore.Internal.Correction>
   9.000000E+99

