#       Name:                CT1002167954
#       Creating user name   hitesit
#       Creation time:       Sun Apr 16 20:16:40 2023


#       File generated by GOLD software.
#

@<TRIPOS>MOLECULE
CT1002167954|ligand_prepared|mol2|1|dock1
    29    30     1
SMALL
NO_CHARGES


@<TRIPOS>ATOM
      1 C1         123.4665 244.4495 356.6929 C.3            1 RES1               0.0000
      2 C2         122.9391 245.7582 357.3158 C.ar           1 RES1               0.0000
      3 C3         124.8771 244.7502 356.1947 C.2            1 RES1               0.0000
      4 C4         123.4071 243.3980 357.7953 C.2            1 RES1               0.0000
      5 C5         122.6228 243.9404 355.5010 C.3            1 RES1               0.0000
      6 C6         121.5738 245.9558 357.4992 C.ar           1 RES1               0.0000
      7 C7         123.8043 246.7740 357.7137 C.ar           1 RES1               0.0000
      8 N8         125.9213 244.2401 356.9083 N.am           1 RES1               0.0000
      9 O9         125.0711 245.4570 355.2133 O.2            1 RES1               0.0000
     10 N10        124.5903 242.8810 358.2541 N.am           1 RES1               0.0000
     11 O11        122.3471 243.0246 358.2825 O.2            1 RES1               0.0000
     12 C12        123.2722 242.8002 354.7328 C.3            1 RES1               0.0000
     13 C13        121.0910 247.1252 358.0627 C.ar           1 RES1               0.0000
     14 C14        123.3192 247.9428 358.2768 C.ar           1 RES1               0.0000
     15 C15        125.8462 243.2768 357.8820 C.2            1 RES1               0.0000
     16 C16        121.9632 248.1192 358.4523 C.ar           1 RES1               0.0000
     17 O17        126.8632 242.8024 358.3796 O.2            1 RES1               0.0000
     18 H18        121.6486 243.6036 355.8764 H              1 RES1               0.0000
     19 H19        122.4460 244.7751 354.8115 H              1 RES1               0.0000
     20 H20        120.8721 245.1858 357.1965 H              1 RES1               0.0000
     21 H21        124.8749 246.6575 357.5843 H              1 RES1               0.0000
     22 H22        126.8434 244.6091 356.6987 H              1 RES1               0.0000
     23 H23        124.5292 242.1317 358.9360 H              1 RES1               0.0000
     24 H24        122.6389 242.4811 353.9076 H              1 RES1               0.0000
     25 H25        124.2322 243.1081 354.3238 H              1 RES1               0.0000
     26 H26        123.4396 241.9435 355.3824 H              1 RES1               0.0000
     27 H27        120.0228 247.2598 358.1974 H              1 RES1               0.0000
     28 H28        124.0093 248.7227 358.5814 H              1 RES1               0.0000
     29 H29        121.5847 249.0351 358.8940 H              1 RES1               0.0000
@<TRIPOS>BOND
    1    1    2 1     
    2    1    3 1     
    3    1    4 1     
    4    1    5 1     
    5    2    6 ar    
    6    2    7 ar    
    7    3    8 1     
    8    3    9 2     
    9    4   10 1     
   10    4   11 2     
   11    5   12 1     
   12    5   18 1     
   13    5   19 1     
   14    6   13 ar    
   15    6   20 1     
   16    7   14 ar    
   17    7   21 1     
   18    8   15 1     
   19    8   22 1     
   20   10   15 1     
   21   10   23 1     
   22   12   24 1     
   23   12   25 1     
   24   12   26 1     
   25   13   16 ar    
   26   13   27 1     
   27   14   16 ar    
   28   14   28 1     
   29   15   17 2     
   30   16   29 1     
@<TRIPOS>SUBSTRUCTURE
      1 RES1           1
@<TRIPOS>SET
DONOR_HYDROGENS      STATIC     ATOMS    <user>   **** ""
2 22 23
ATOM$RED        STATIC     ATOMS    COLORGROUP SYSTEM
2 22 23
@<TRIPOS>COMMENT
> <Gold.Version>
2022.3.0

> <Gold.Id.Protein>
unknown|5adf_clean|pdb

> <Gold.Protein.RotatedTorsions>
[ 9076 9061 9060 9058 ] final  129.54 input   60.03 | X-H torsion
[ 8987 8971 8970 8967 ] final  120.69 input   59.98 | X-H torsion
[ 12872 12851 12850 12848 ] final   -2.66 input   59.99 | X-H torsion
[ 5555 5539 5538 5535 ] final   82.25 input   60.00 | X-H torsion
[ 8337 8307 8306 8304 ] final   85.45 input   59.97 | X-H torsion
[ 8491 8475 8474 8471 ] final -153.40 input   60.02 | X-H torsion

> <Gold.Protein.ActiveResidues>
 MET341  HIS342  TRP414  ALA417  ARG419  CYS420  VAL421  GLY422  LEU460  SER462 
 ASN481  SER482  GLN483  LEU484  ARG486  ALA502  ASN503  TRP566  TYR567  GLY568 
 LEU569  PRO570  ALA571  VAL572  SER573  ASN574  MET575  LEU576  PHE589  SER590 
 GLY591  TRP592  TYR593  MET594  GLY595  GLU597  ILE598  ARG601  ASP602  ARG608 
 ILE653  VAL654  TRP683  PHE709  GLU710  TYR711  GLN712  ASP714  HEM750  H4B760 

> <Gold.Protein.RotatedAtoms>
  127.1777  248.2491  362.1148 H   0  0  0  0  0  0  0  0  0  0  0  0  # atno 5555 bound_to 5539
  125.8234  242.5102  362.5539 H   0  0  0  0  0  0  0  0  0  0  0  0  # atno 8337 bound_to 8307
  124.6588  249.4807  367.2969 H   0  0  0  0  0  0  0  0  0  0  0  0  # atno 8491 bound_to 8475
  115.5892  243.3803  368.2127 H   0  0  0  0  0  0  0  0  0  0  0  0  # atno 8987 bound_to 8971
  122.8023  240.8605  361.7101 H   0  0  0  0  0  0  0  0  0  0  0  0  # atno 9076 bound_to 9061
  121.1377  253.1765  355.0715 H   0  0  0  0  0  0  0  0  0  0  0  0  # atno 12872 bound_to 12851
  123.0024  241.3225  360.1623 LP  0  0  0  0  0  0  0  0  0  0  0  0  # atno 13471 bound_to 9061
  123.6468  239.9170  360.6876 LP  0  0  0  0  0  0  0  0  0  0  0  0  # atno 13472 bound_to 9061
  114.9800  244.8579  367.9063 LP  0  0  0  0  0  0  0  0  0  0  0  0  # atno 13487 bound_to 8971
  116.3146  244.6981  368.8336 LP  0  0  0  0  0  0  0  0  0  0  0  0  # atno 13488 bound_to 8971
  121.6526  253.9077  353.7121 LP  0  0  0  0  0  0  0  0  0  0  0  0  # atno 13503 bound_to 12851
  120.0808  253.9972  354.1456 LP  0  0  0  0  0  0  0  0  0  0  0  0  # atno 13504 bound_to 12851
  128.2773  248.7446  363.2072 LP  0  0  0  0  0  0  0  0  0  0  0  0  # atno 13506 bound_to 5539
  128.5744  248.9145  361.6105 LP  0  0  0  0  0  0  0  0  0  0  0  0  # atno 13507 bound_to 5539
  124.7395  241.8699  361.5228 LP  0  0  0  0  0  0  0  0  0  0  0  0  # atno 13510 bound_to 8307
  126.3228  241.4949  361.3844 LP  0  0  0  0  0  0  0  0  0  0  0  0  # atno 13511 bound_to 8307
  124.8362  251.0734  367.0149 LP  0  0  0  0  0  0  0  0  0  0  0  0  # atno 13522 bound_to 8475
  124.2390  250.0966  365.8505 LP  0  0  0  0  0  0  0  0  0  0  0  0  # atno 13523 bound_to 8475

> <Gold.Score>
     Fitness  S(hb_ext) S(vdw_ext)  S(hb_int)    S(int)      intcor
     36.35       5.49      23.21       0.00      -1.06      -0.77

> <Gold.Goldscore.Fitness>
36.3469

> <Gold.Goldscore.Internal.Vdw>
-1.2794

> <Gold.Goldscore.Internal.Torsion>
-0.5414

> <Gold.Goldscore.External.Vdw>
23.2115

> <Gold.Goldscore.Internal.HBond>
0.0000

> <Gold.Goldscore.External.HBond>
5.4866

> <Gold.Goldscore.Internal.Correction>
-0.7653

> <Gold.Goldscore.Hbonds>
donor molecule, donor type, donor heavy atom, donor atom, acceptor molecule, acceptor atom, score
      P1  H  9502  9538       L1    17  0.60
      L1  H    10    23       P1  9061  0.96

> <Gold.Goldscore.Internal.Vdw.Weighted>
-1.2794

> <Gold.Goldscore.Internal.Torsion.Weighted>
-0.5414

> <Gold.Goldscore.External.Vdw.Weighted>
31.9158

> <Gold.Goldscore.Internal.HBond.Weighted>
0.0000

> <Gold.Goldscore.External.HBond.Weighted>
5.4866

> <Gold.Goldscore.Internal.Correction.Weighted>
-0.7653

> <Gold.Rescore>
     Score     S(PLP)   S(hbond)     S(cho)   S(metal)  DE(clash)   DE(tors)     intcor
     22.73     -19.89       1.44       0.00       0.00       1.33       0.07       ----

> <Gold.PLP.Fitness>
22.7259

> <Gold.PLP.PLP>
-19.8890

> <Gold.PLP.part.hbond>
-4.6419

> <Gold.PLP.part.metal>
0.0000

> <Gold.PLP.part.buried>
1.6218

> <Gold.PLP.part.nonpolar>
-20.4368

> <Gold.PLP.part.repulsive>
2.2469

> <Gold.PLP.ligand.clash>
1.3309

> <Gold.PLP.ligand.torsion>
0.0701

> <Gold.PLP.Chemscore.Hbond>
1.4360

> <Gold.PLP.Chemscore.CHOScore>
0.0000

> <Gold.PLP.Chemscore.Metal>
0.0000

> <Gold.Chemscore.Hbonds>
donor molecule, donor type, donor heavy atom, donor atom, acceptor molecule, acceptor atom, score
      P1  H  5676  5713       L1    17  0.27
      P1  H  9502  9538       L1    17  0.91

> <Gold.PLP.Chemscore.Internal.Correction>
   9.000000E+99

