#       Name:                CT1002167954
#       Creating user name   hitesit
#       Creation time:       Sun Apr 16 20:16:44 2023


#       File generated by GOLD software.
#

@<TRIPOS>MOLECULE
CT1002167954|ligand_prepared|mol2|1|dock4
    29    30     1
SMALL
NO_CHARGES


@<TRIPOS>ATOM
      1 C1         123.4269 249.2392 358.4823 C.3            1 RES1               0.0000
      2 C2         122.5538 247.9696 358.5484 C.ar           1 RES1               0.0000
      3 C3         122.8450 250.1018 357.3662 C.2            1 RES1               0.0000
      4 C4         123.3552 249.8788 359.8645 C.2            1 RES1               0.0000
      5 C5         124.9137 248.9591 358.1621 C.3            1 RES1               0.0000
      6 C6         123.1385 246.7135 358.6798 C.ar           1 RES1               0.0000
      7 C7         121.1647 248.0385 358.4820 C.ar           1 RES1               0.0000
      8 N8         122.1423 251.2133 357.7278 N.am           1 RES1               0.0000
      9 O9         122.9671 249.7900 356.1880 O.2            1 RES1               0.0000
     10 N10        122.7473 251.1018 359.9753 N.am           1 RES1               0.0000
     11 O11        123.8047 249.3270 360.8614 O.2            1 RES1               0.0000
     12 C12        125.7340 250.2146 357.9115 C.3            1 RES1               0.0000
     13 C13        122.3626 245.5681 358.7454 C.ar           1 RES1               0.0000
     14 C14        120.3907 246.8917 358.5477 C.ar           1 RES1               0.0000
     15 C15        122.1104 251.7841 358.9747 C.2            1 RES1               0.0000
     16 C16        120.9884 245.6564 358.6799 C.ar           1 RES1               0.0000
     17 O17        121.5391 252.8541 359.1640 O.2            1 RES1               0.0000
     18 H18        125.3579 248.4087 359.0007 H              1 RES1               0.0000
     19 H19        124.9689 248.3181 357.2736 H              1 RES1               0.0000
     20 H20        124.2185 246.6241 358.7305 H              1 RES1               0.0000
     21 H21        120.6729 248.9996 358.3769 H              1 RES1               0.0000
     22 H22        121.5894 251.6615 357.0041 H              1 RES1               0.0000
     23 H23        122.7719 251.5448 360.8883 H              1 RES1               0.0000
     24 H24        126.7691 249.9616 357.6916 H              1 RES1               0.0000
     25 H25        125.3353 250.7739 357.0676 H              1 RES1               0.0000
     26 H26        125.7220 250.8639 358.7845 H              1 RES1               0.0000
     27 H27        122.8379 244.5982 358.8481 H              1 RES1               0.0000
     28 H28        119.3095 246.9659 358.4951 H              1 RES1               0.0000
     29 H29        120.3808 244.7590 358.7317 H              1 RES1               0.0000
@<TRIPOS>BOND
    1    1    2 1     
    2    1    3 1     
    3    1    4 1     
    4    1    5 1     
    5    2    6 ar    
    6    2    7 ar    
    7    3    8 1     
    8    3    9 2     
    9    4   10 1     
   10    4   11 2     
   11    5   12 1     
   12    5   18 1     
   13    5   19 1     
   14    6   13 ar    
   15    6   20 1     
   16    7   14 ar    
   17    7   21 1     
   18    8   15 1     
   19    8   22 1     
   20   10   15 1     
   21   10   23 1     
   22   12   24 1     
   23   12   25 1     
   24   12   26 1     
   25   13   16 ar    
   26   13   27 1     
   27   14   16 ar    
   28   14   28 1     
   29   15   17 2     
   30   16   29 1     
@<TRIPOS>SUBSTRUCTURE
      1 RES1           1
@<TRIPOS>SET
DONOR_HYDROGENS      STATIC     ATOMS    <user>   **** ""
2 22 23
ATOM$RED        STATIC     ATOMS    COLORGROUP SYSTEM
2 22 23
@<TRIPOS>COMMENT
> <Gold.Version>
2022.3.0

> <Gold.Id.Protein>
unknown|5adf_clean|pdb

> <Gold.Protein.RotatedTorsions>
[ 9076 9061 9060 9058 ] final   32.13 input   60.03 | X-H torsion
[ 8987 8971 8970 8967 ] final  -26.11 input   59.98 | X-H torsion
[ 12872 12851 12850 12848 ] final   18.52 input   59.99 | X-H torsion
[ 5555 5539 5538 5535 ] final  126.34 input   60.00 | X-H torsion
[ 8337 8307 8306 8304 ] final  -81.63 input   59.97 | X-H torsion
[ 8491 8475 8474 8471 ] final  -75.65 input   60.02 | X-H torsion

> <Gold.Protein.ActiveResidues>
 MET341  HIS342  TRP414  ALA417  ARG419  CYS420  VAL421  GLY422  LEU460  SER462 
 ASN481  SER482  GLN483  LEU484  ARG486  ALA502  ASN503  TRP566  TYR567  GLY568 
 LEU569  PRO570  ALA571  VAL572  SER573  ASN574  MET575  LEU576  PHE589  SER590 
 GLY591  TRP592  TYR593  MET594  GLY595  GLU597  ILE598  ARG601  ASP602  ARG608 
 ILE653  VAL654  TRP683  PHE709  GLU710  TYR711  GLN712  ASP714  HEM750  H4B760 

> <Gold.Protein.RotatedAtoms>
  127.5299  248.4259  361.5331 H   0  0  0  0  0  0  0  0  0  0  0  0  # atno 5555 bound_to 5539
  125.2363  241.4688  361.1283 H   0  0  0  0  0  0  0  0  0  0  0  0  # atno 8337 bound_to 8307
  124.2596  249.5124  366.1921 H   0  0  0  0  0  0  0  0  0  0  0  0  # atno 8491 bound_to 8475
  115.2424  245.1379  368.1119 H   0  0  0  0  0  0  0  0  0  0  0  0  # atno 8987 bound_to 8971
  122.8264  241.4782  360.4458 H   0  0  0  0  0  0  0  0  0  0  0  0  # atno 9076 bound_to 9061
  120.8000  253.2300  355.1101 H   0  0  0  0  0  0  0  0  0  0  0  0  # atno 12872 bound_to 12851
  123.6531  240.0792  360.3556 LP  0  0  0  0  0  0  0  0  0  0  0  0  # atno 13471 bound_to 9061
  122.9719  240.5386  361.7668 LP  0  0  0  0  0  0  0  0  0  0  0  0  # atno 13472 bound_to 9061
  116.3991  244.2700  368.8582 LP  0  0  0  0  0  0  0  0  0  0  0  0  # atno 13487 bound_to 8971
  115.2449  243.5156  367.9834 LP  0  0  0  0  0  0  0  0  0  0  0  0  # atno 13488 bound_to 8971
  121.8262  253.7207  353.9465 LP  0  0  0  0  0  0  0  0  0  0  0  0  # atno 13503 bound_to 12851
  120.2472  254.1304  353.8725 LP  0  0  0  0  0  0  0  0  0  0  0  0  # atno 13504 bound_to 12851
  127.6382  248.4445  363.1566 LP  0  0  0  0  0  0  0  0  0  0  0  0  # atno 13506 bound_to 5539
  128.8586  249.0365  362.2471 LP  0  0  0  0  0  0  0  0  0  0  0  0  # atno 13507 bound_to 5539
  126.5605  241.9165  361.9615 LP  0  0  0  0  0  0  0  0  0  0  0  0  # atno 13510 bound_to 8307
  125.0931  242.4971  362.3814 LP  0  0  0  0  0  0  0  0  0  0  0  0  # atno 13511 bound_to 8307
  124.8717  250.0464  367.6020 LP  0  0  0  0  0  0  0  0  0  0  0  0  # atno 13522 bound_to 8475
  124.6054  251.0917  366.3761 LP  0  0  0  0  0  0  0  0  0  0  0  0  # atno 13523 bound_to 8475

> <Gold.Score>
     Fitness  S(hb_ext) S(vdw_ext)  S(hb_int)    S(int)      intcor
     31.88       6.85      18.71       0.00      -0.69      -0.77

> <Gold.Goldscore.Fitness>
31.8848

> <Gold.Goldscore.Internal.Vdw>
-0.9863

> <Gold.Goldscore.Internal.Torsion>
-0.4691

> <Gold.Goldscore.External.Vdw>
18.7057

> <Gold.Goldscore.Internal.HBond>
0.0000

> <Gold.Goldscore.External.HBond>
6.8545

> <Gold.Goldscore.Internal.Correction>
-0.7653

> <Gold.Goldscore.Hbonds>
donor molecule, donor type, donor heavy atom, donor atom, acceptor molecule, acceptor atom, score
      L1  H     8    22       P1 13267  1.00
      L1  H    10    23       P1  8499  0.43

> <Gold.Goldscore.Internal.Vdw.Weighted>
-0.9863

> <Gold.Goldscore.Internal.Torsion.Weighted>
-0.4691

> <Gold.Goldscore.External.Vdw.Weighted>
25.7203

> <Gold.Goldscore.Internal.HBond.Weighted>
0.0000

> <Gold.Goldscore.External.HBond.Weighted>
6.8545

> <Gold.Goldscore.Internal.Correction.Weighted>
-0.7653

> <Gold.Rescore>
     Score     S(PLP)   S(hbond)     S(cho)   S(metal)  DE(clash)   DE(tors)     intcor
     32.49     -29.15       1.41       0.00       0.00       0.00       0.45       ----

> <Gold.PLP.Fitness>
32.4884

> <Gold.PLP.PLP>
-29.1512

> <Gold.PLP.part.hbond>
-2.0000

> <Gold.PLP.part.metal>
0.0000

> <Gold.PLP.part.buried>
-1.1020

> <Gold.PLP.part.nonpolar>
-27.5285

> <Gold.PLP.part.repulsive>
0.5802

> <Gold.PLP.ligand.clash>
0.0000

> <Gold.PLP.ligand.torsion>
0.4499

> <Gold.PLP.Chemscore.Hbond>
1.4124

> <Gold.PLP.Chemscore.CHOScore>
0.0000

> <Gold.PLP.Chemscore.Metal>
0.0000

> <Gold.Chemscore.Hbonds>
donor molecule, donor type, donor heavy atom, donor atom, acceptor molecule, acceptor atom, score
      L1  H     8    22       P1 13267  1.00
      L1  H    10    23       P1  8499  0.96

> <Gold.PLP.Chemscore.Internal.Correction>
   9.000000E+99

