#       Name:                CT1002167954
#       Creating user name   hitesit
#       Creation time:       Sun Apr 16 20:16:42 2023


#       File generated by GOLD software.
#

@<TRIPOS>MOLECULE
CT1002167954|ligand_prepared|mol2|1|dock2
    29    30     1
SMALL
NO_CHARGES


@<TRIPOS>ATOM
      1 C1         123.1718 245.7019 357.7260 C.3            1 RES1               0.0000
      2 C2         121.7686 245.9998 358.2927 C.ar           1 RES1               0.0000
      3 C3         124.1695 246.2529 358.7405 C.2            1 RES1               0.0000
      4 C4         123.2445 244.1904 357.5396 C.2            1 RES1               0.0000
      5 C5         123.4464 246.3658 356.3566 C.3            1 RES1               0.0000
      6 C6         121.1309 245.0836 359.1238 C.ar           1 RES1               0.0000
      7 C7         121.1016 247.1854 357.9961 C.ar           1 RES1               0.0000
      8 N8         124.8434 245.3555 359.5154 N.am           1 RES1               0.0000
      9 O9         124.3334 247.4579 358.8859 O.2            1 RES1               0.0000
     10 N10        124.1319 243.4899 358.3140 N.am           1 RES1               0.0000
     11 O11        122.5297 243.5977 356.7409 O.2            1 RES1               0.0000
     12 C12        124.6973 245.8483 355.6640 C.3            1 RES1               0.0000
     13 C13        119.8733 245.3445 359.6421 C.ar           1 RES1               0.0000
     14 C14        119.8438 247.4442 358.5152 C.ar           1 RES1               0.0000
     15 C15        124.9127 244.0002 359.3151 C.2            1 RES1               0.0000
     16 C16        119.2291 246.5249 359.3385 C.ar           1 RES1               0.0000
     17 O17        125.6459 243.2975 360.0049 O.2            1 RES1               0.0000
     18 H18        122.5834 246.1941 355.7015 H              1 RES1               0.0000
     19 H19        123.5462 247.4485 356.5027 H              1 RES1               0.0000
     20 H20        121.6213 244.1481 359.3718 H              1 RES1               0.0000
     21 H21        121.5655 247.9226 357.3497 H              1 RES1               0.0000
     22 H22        125.3419 245.7264 360.3180 H              1 RES1               0.0000
     23 H23        124.2185 242.4960 358.1268 H              1 RES1               0.0000
     24 H24        124.8432 246.3469 354.7081 H              1 RES1               0.0000
     25 H25        125.5787 246.0255 356.2768 H              1 RES1               0.0000
     26 H26        124.6217 244.7785 355.4802 H              1 RES1               0.0000
     27 H27        119.3932 244.6172 360.2884 H              1 RES1               0.0000
     28 H28        119.3403 248.3743 358.2731 H              1 RES1               0.0000
     29 H29        118.2441 246.7292 359.7449 H              1 RES1               0.0000
@<TRIPOS>BOND
    1    1    2 1     
    2    1    3 1     
    3    1    4 1     
    4    1    5 1     
    5    2    6 ar    
    6    2    7 ar    
    7    3    8 1     
    8    3    9 2     
    9    4   10 1     
   10    4   11 2     
   11    5   12 1     
   12    5   18 1     
   13    5   19 1     
   14    6   13 ar    
   15    6   20 1     
   16    7   14 ar    
   17    7   21 1     
   18    8   15 1     
   19    8   22 1     
   20   10   15 1     
   21   10   23 1     
   22   12   24 1     
   23   12   25 1     
   24   12   26 1     
   25   13   16 ar    
   26   13   27 1     
   27   14   16 ar    
   28   14   28 1     
   29   15   17 2     
   30   16   29 1     
@<TRIPOS>SUBSTRUCTURE
      1 RES1           1
@<TRIPOS>SET
DONOR_HYDROGENS      STATIC     ATOMS    <user>   **** ""
2 22 23
ATOM$RED        STATIC     ATOMS    COLORGROUP SYSTEM
2 22 23
@<TRIPOS>COMMENT
> <Gold.Version>
2022.3.0

> <Gold.Id.Protein>
unknown|4uh6_clean|pdb

> <Gold.Protein.RotatedTorsions>
[ 9103 9086 9085 9083 ] final   60.51 input   60.02 | X-H torsion
[ 9012 8996 8995 8992 ] final  117.47 input   59.99 | X-H torsion
[ 8362 8332 8331 8329 ] final -163.34 input   59.98 | X-H torsion
[ 5561 5545 5544 5541 ] final   73.51 input   59.99 | X-H torsion
[ 8509 8500 8499 8496 ] final   67.71 input   60.00 | X-H torsion
[ 12897 12876 12875 12873 ] final  149.92 input   59.99 | X-H torsion
[ 13481 13433 13432 13428 ] final -116.02 input   60.03 | X-H torsion
[ 9185 9171 9169 9166 ] final  -14.42 input   60.01 | X-H torsion

> <Gold.Protein.ActiveResidues>
 TRP311  MET341  HIS342  TRP414  ARG419  CYS420  VAL421  GLY422  LEU429  LEU460 
 SER462  ALA463  ILE464  ASN481  SER482  GLN483  LEU484  ILE485  ARG486  ASP500 
 ALA502  ASN503  TRP566  TYR567  GLY568  LEU569  PRO570  ALA571  VAL572  SER573 
 ASN574  MET575  PRO588  PHE589  SER590  GLY591  TRP592  TYR593  MET594  GLY595 
 THR596  GLU597  ILE598  VAL600  ARG601  ASP602  TYR603  ASP605  ARG608  ILE653 
 VAL654  TRP683  PRO687  SER691  PHE696  HIS697  TYR711  HEM750  H4B760 

> <Gold.Protein.RotatedAtoms>
  126.8467  249.4441  362.5013 H   0  0  0  0  0  0  0  0  0  0  0  0  # atno 5561 bound_to 5545
  125.0862  243.3829  362.2643 H   0  0  0  0  0  0  0  0  0  0  0  0  # atno 8362 bound_to 8332
  124.5723  251.9184  366.9340 H   0  0  0  0  0  0  0  0  0  0  0  0  # atno 8509 bound_to 8500
  115.4450  244.2702  368.5564 H   0  0  0  0  0  0  0  0  0  0  0  0  # atno 9012 bound_to 8996
  122.3379  242.6638  361.0989 H   0  0  0  0  0  0  0  0  0  0  0  0  # atno 9103 bound_to 9086
  117.6322  239.6803  352.2889 H   0  0  0  0  0  0  0  0  0  0  0  0  # atno 9185 bound_to 9171
  119.9046  255.3014  353.9776 H   0  0  0  0  0  0  0  0  0  0  0  0  # atno 12897 bound_to 12876
  125.3771  250.4502  347.0458 H   0  0  0  0  0  0  0  0  0  0  0  0  # atno 13481 bound_to 13433
  123.1940  241.5913  360.2242 LP  0  0  0  0  0  0  0  0  0  0  0  0  # atno 13496 bound_to 9086
  122.9648  241.3480  361.8226 LP  0  0  0  0  0  0  0  0  0  0  0  0  # atno 13497 bound_to 9086
  114.6654  245.6686  368.2654 LP  0  0  0  0  0  0  0  0  0  0  0  0  # atno 13516 bound_to 8996
  115.9143  245.6301  369.3168 LP  0  0  0  0  0  0  0  0  0  0  0  0  # atno 13517 bound_to 8996
  125.7683  242.2857  361.2746 LP  0  0  0  0  0  0  0  0  0  0  0  0  # atno 13530 bound_to 8332
  126.6612  243.0099  362.4343 LP  0  0  0  0  0  0  0  0  0  0  0  0  # atno 13531 bound_to 8332
  128.0936  249.8524  363.4634 LP  0  0  0  0  0  0  0  0  0  0  0  0  # atno 13538 bound_to 5545
  128.1872  250.0985  361.8518 LP  0  0  0  0  0  0  0  0  0  0  0  0  # atno 13539 bound_to 5545
  123.8141  250.6237  366.3035 LP  0  0  0  0  0  0  0  0  0  0  0  0  # atno 13551 bound_to 8500
  124.4458  250.5511  367.8076 LP  0  0  0  0  0  0  0  0  0  0  0  0  # atno 13552 bound_to 8500
  120.0512  254.3856  355.3149 LP  0  0  0  0  0  0  0  0  0  0  0  0  # atno 13567 bound_to 12876
  121.3380  254.6196  354.3371 LP  0  0  0  0  0  0  0  0  0  0  0  0  # atno 13568 bound_to 12876
  124.7144  250.5206  345.5611 LP  0  0  0  0  0  0  0  0  0  0  0  0  # atno 13569 bound_to 13433
  124.0643  249.5514  346.7033 LP  0  0  0  0  0  0  0  0  0  0  0  0  # atno 13570 bound_to 13433

> <Gold.Score>
     Fitness  S(hb_ext) S(vdw_ext)  S(hb_int)    S(int)      intcor
     38.14       6.37      23.41       0.00      -0.42      -0.77

> <Gold.Goldscore.Fitness>
38.1373

> <Gold.Goldscore.Internal.Vdw>
-0.6016

> <Gold.Goldscore.Internal.Torsion>
-0.5911

> <Gold.Goldscore.External.Vdw>
23.4097

> <Gold.Goldscore.Internal.HBond>
0.0000

> <Gold.Goldscore.External.HBond>
6.3731

> <Gold.Goldscore.Internal.Correction>
-0.7686

> <Gold.Goldscore.Hbonds>
donor molecule, donor type, donor heavy atom, donor atom, acceptor molecule, acceptor atom, score
      P1  H  5679  5715       L1    17  0.39
      L1  H     8    22       P1  5570  0.01
      L1  H    10    23       P1  9362  0.66

> <Gold.Goldscore.Internal.Vdw.Weighted>
-0.6016

> <Gold.Goldscore.Internal.Torsion.Weighted>
-0.5911

> <Gold.Goldscore.External.Vdw.Weighted>
32.1883

> <Gold.Goldscore.Internal.HBond.Weighted>
0.0000

> <Gold.Goldscore.External.HBond.Weighted>
6.3731

> <Gold.Goldscore.Internal.Correction.Weighted>
-0.7686

> <Gold.Rescore>
     Score     S(PLP)   S(hbond)     S(cho)   S(metal)  DE(clash)   DE(tors)     intcor
     22.19     -21.09       1.29       0.00       0.00       0.00       1.38       ----

> <Gold.PLP.Fitness>
22.1924

> <Gold.PLP.PLP>
-21.0863

> <Gold.PLP.part.hbond>
-4.0665

> <Gold.PLP.part.metal>
0.0000

> <Gold.PLP.part.buried>
6.5216

> <Gold.PLP.part.nonpolar>
-27.7809

> <Gold.PLP.part.repulsive>
2.7447

> <Gold.PLP.ligand.clash>
0.0000

> <Gold.PLP.ligand.torsion>
1.3789

> <Gold.PLP.Chemscore.Hbond>
1.2880

> <Gold.PLP.Chemscore.CHOScore>
0.0000

> <Gold.PLP.Chemscore.Metal>
0.0000

> <Gold.Chemscore.Hbonds>
donor molecule, donor type, donor heavy atom, donor atom, acceptor molecule, acceptor atom, score
      L1  H     8    22       P1  5570  0.38
      L1  H    10    23       P1  9362  0.65

> <Gold.PLP.Chemscore.Internal.Correction>
   9.000000E+99

