#       Name:                CT1002167954
#       Creating user name   hitesit
#       Creation time:       Sun Apr 16 20:16:51 2023


#       File generated by GOLD software.
#

@<TRIPOS>MOLECULE
CT1002167954|ligand_prepared|mol2|1|dock10
    29    30     1
SMALL
NO_CHARGES


@<TRIPOS>ATOM
      1 C1         117.4679 246.4588 360.2356 C.3            1 RES1               0.0000
      2 C2         118.1935 247.5688 359.4480 C.ar           1 RES1               0.0000
      3 C3         118.1851 246.3472 361.5778 C.2            1 RES1               0.0000
      4 C4         116.0109 246.8948 360.3431 C.2            1 RES1               0.0000
      5 C5         117.5032 245.0764 359.5434 C.3            1 RES1               0.0000
      6 C6         117.7216 248.8778 359.4705 C.ar           1 RES1               0.0000
      7 C7         119.3352 247.3000 358.6978 C.ar           1 RES1               0.0000
      8 N8         117.5498 246.8454 362.6770 N.am           1 RES1               0.0000
      9 O9         119.3078 245.8652 361.6643 O.2            1 RES1               0.0000
     10 N10        115.5180 247.1861 361.5881 N.am           1 RES1               0.0000
     11 O11        115.2898 247.0046 359.3591 O.2            1 RES1               0.0000
     12 C12        116.4423 244.1109 360.0479 C.3            1 RES1               0.0000
     13 C13        118.3694 249.8824 358.7709 C.ar           1 RES1               0.0000
     14 C14        119.9814 248.3061 357.9987 C.ar           1 RES1               0.0000
     15 C15        116.2300 247.2108 362.7563 C.2            1 RES1               0.0000
     16 C16        119.4998 249.5975 358.0350 C.ar           1 RES1               0.0000
     17 O17        115.7291 247.5361 363.8289 O.2            1 RES1               0.0000
     18 H18        117.3670 245.2183 358.4642 H              1 RES1               0.0000
     19 H19        118.4920 244.6280 359.7004 H              1 RES1               0.0000
     20 H20        116.8320 249.1206 360.0421 H              1 RES1               0.0000
     21 H21        119.7315 246.2912 358.6539 H              1 RES1               0.0000
     22 H22        118.1076 246.9566 363.5177 H              1 RES1               0.0000
     23 H23        114.5287 247.4047 361.6497 H              1 RES1               0.0000
     24 H24        116.5113 243.1568 359.5296 H              1 RES1               0.0000
     25 H25        116.5633 243.9272 361.1135 H              1 RES1               0.0000
     26 H26        115.4450 244.5140 359.8846 H              1 RES1               0.0000
     27 H27        117.9856 250.8968 358.8015 H              1 RES1               0.0000
     28 H28        120.8704 248.0772 357.4204 H              1 RES1               0.0000
     29 H29        120.0073 250.3847 357.4873 H              1 RES1               0.0000
@<TRIPOS>BOND
    1    1    2 1     
    2    1    3 1     
    3    1    4 1     
    4    1    5 1     
    5    2    6 ar    
    6    2    7 ar    
    7    3    8 1     
    8    3    9 2     
    9    4   10 1     
   10    4   11 2     
   11    5   12 1     
   12    5   18 1     
   13    5   19 1     
   14    6   13 ar    
   15    6   20 1     
   16    7   14 ar    
   17    7   21 1     
   18    8   15 1     
   19    8   22 1     
   20   10   15 1     
   21   10   23 1     
   22   12   24 1     
   23   12   25 1     
   24   12   26 1     
   25   13   16 ar    
   26   13   27 1     
   27   14   16 ar    
   28   14   28 1     
   29   15   17 2     
   30   16   29 1     
@<TRIPOS>SUBSTRUCTURE
      1 RES1           1
@<TRIPOS>SET
DONOR_HYDROGENS      STATIC     ATOMS    <user>   **** ""
2 22 23
ATOM$RED        STATIC     ATOMS    COLORGROUP SYSTEM
2 22 23
@<TRIPOS>COMMENT
> <Gold.Version>
2022.3.0

> <Gold.Id.Protein>
unknown|4uh6_clean|pdb

> <Gold.Protein.RotatedTorsions>
[ 9103 9086 9085 9083 ] final  -59.46 input   60.02 | X-H torsion
[ 9012 8996 8995 8992 ] final  -40.66 input   59.99 | X-H torsion
[ 8362 8332 8331 8329 ] final  -11.91 input   59.98 | X-H torsion
[ 5561 5545 5544 5541 ] final   47.53 input   59.99 | X-H torsion
[ 8509 8500 8499 8496 ] final  142.80 input   60.00 | X-H torsion
[ 12897 12876 12875 12873 ] final  154.92 input   59.99 | X-H torsion
[ 13481 13433 13432 13428 ] final  -51.26 input   60.03 | X-H torsion
[ 9185 9171 9169 9166 ] final -167.04 input   60.01 | X-H torsion

> <Gold.Protein.ActiveResidues>
 TRP311  MET341  HIS342  TRP414  ARG419  CYS420  VAL421  GLY422  LEU429  LEU460 
 SER462  ALA463  ILE464  ASN481  SER482  GLN483  LEU484  ILE485  ARG486  ASP500 
 ALA502  ASN503  TRP566  TYR567  GLY568  LEU569  PRO570  ALA571  VAL572  SER573 
 ASN574  MET575  PRO588  PHE589  SER590  GLY591  TRP592  TYR593  MET594  GLY595 
 THR596  GLU597  ILE598  VAL600  ARG601  ASP602  TYR603  ASP605  ARG608  ILE653 
 VAL654  TRP683  PRO687  SER691  PHE696  HIS697  TYR711  HEM750  H4B760 

> <Gold.Protein.RotatedAtoms>
  126.9101  249.4182  362.9163 H   0  0  0  0  0  0  0  0  0  0  0  0  # atno 5561 bound_to 5545
  126.7402  242.6606  362.0724 H   0  0  0  0  0  0  0  0  0  0  0  0  # atno 8362 bound_to 8332
  124.7026  251.2212  367.8281 H   0  0  0  0  0  0  0  0  0  0  0  0  # atno 8509 bound_to 8500
  114.9808  246.0472  368.6312 H   0  0  0  0  0  0  0  0  0  0  0  0  # atno 9012 bound_to 8996
  123.1894  241.5925  360.2292 H   0  0  0  0  0  0  0  0  0  0  0  0  # atno 9103 bound_to 9086
  117.2217  240.0087  350.5469 H   0  0  0  0  0  0  0  0  0  0  0  0  # atno 9185 bound_to 9171
  119.9710  255.3110  353.9309 H   0  0  0  0  0  0  0  0  0  0  0  0  # atno 12897 bound_to 12876
  124.6625  249.7902  347.2900 H   0  0  0  0  0  0  0  0  0  0  0  0  # atno 13481 bound_to 13433
  122.9651  241.3476  361.8223 LP  0  0  0  0  0  0  0  0  0  0  0  0  # atno 13496 bound_to 9086
  122.3363  242.6704  361.1002 LP  0  0  0  0  0  0  0  0  0  0  0  0  # atno 13497 bound_to 9086
  116.0699  245.0345  369.2917 LP  0  0  0  0  0  0  0  0  0  0  0  0  # atno 13516 bound_to 8996
  114.9774  244.4741  368.2151 LP  0  0  0  0  0  0  0  0  0  0  0  0  # atno 13517 bound_to 8996
  125.4615  243.5337  362.5735 LP  0  0  0  0  0  0  0  0  0  0  0  0  # atno 13530 bound_to 8332
  125.3029  242.4889  361.3286 LP  0  0  0  0  0  0  0  0  0  0  0  0  # atno 13531 bound_to 8332
  128.3949  250.0135  363.2127 LP  0  0  0  0  0  0  0  0  0  0  0  0  # atno 13538 bound_to 5545
  127.8220  249.9635  361.6843 LP  0  0  0  0  0  0  0  0  0  0  0  0  # atno 13539 bound_to 5545
  124.2324  251.6930  366.3432 LP  0  0  0  0  0  0  0  0  0  0  0  0  # atno 13551 bound_to 8500
  123.8964  250.1836  366.8679 LP  0  0  0  0  0  0  0  0  0  0  0  0  # atno 13552 bound_to 8500
  119.9803  254.4214  355.2936 LP  0  0  0  0  0  0  0  0  0  0  0  0  # atno 13567 bound_to 12876
  121.3421  254.5740  354.4055 LP  0  0  0  0  0  0  0  0  0  0  0  0  # atno 13568 bound_to 12876
  125.4066  250.7912  346.2446 LP  0  0  0  0  0  0  0  0  0  0  0  0  # atno 13569 bound_to 13433
  124.0915  249.9453  345.7739 LP  0  0  0  0  0  0  0  0  0  0  0  0  # atno 13570 bound_to 13433

> <Gold.Score>
     Fitness  S(hb_ext) S(vdw_ext)  S(hb_int)    S(int)      intcor
     52.12      10.13      31.49       0.00      -1.31      -0.76

> <Gold.Goldscore.Fitness>
52.1205

> <Gold.Goldscore.Internal.Vdw>
-1.1768

> <Gold.Goldscore.Internal.Torsion>
-0.8961

> <Gold.Goldscore.External.Vdw>
31.4933

> <Gold.Goldscore.Internal.HBond>
0.0000

> <Gold.Goldscore.External.HBond>
10.1316

> <Gold.Goldscore.Internal.Correction>
-0.7585

> <Gold.Goldscore.Hbonds>
donor molecule, donor type, donor heavy atom, donor atom, acceptor molecule, acceptor atom, score
      P1  H  8463  8486       L1    17  0.07
      P1  M 13308 13571       L1    11  1.00

> <Gold.Goldscore.Internal.Vdw.Weighted>
-1.1768

> <Gold.Goldscore.Internal.Torsion.Weighted>
-0.8961

> <Gold.Goldscore.External.Vdw.Weighted>
43.3033

> <Gold.Goldscore.Internal.HBond.Weighted>
0.0000

> <Gold.Goldscore.External.HBond.Weighted>
10.1316

> <Gold.Goldscore.Internal.Correction.Weighted>
-0.7585

> <Gold.Rescore>
     Score     S(PLP)   S(hbond)     S(cho)   S(metal)  DE(clash)   DE(tors)     intcor
     35.33     -32.05       0.01       0.00       1.00       0.00       1.37       ----

> <Gold.PLP.Fitness>
35.3281

> <Gold.PLP.PLP>
-32.0474

> <Gold.PLP.part.hbond>
-3.1062

> <Gold.PLP.part.metal>
-0.8962

> <Gold.PLP.part.buried>
15.4238

> <Gold.PLP.part.nonpolar>
-48.4594

> <Gold.PLP.part.repulsive>
2.7686

> <Gold.PLP.ligand.clash>
0.0000

> <Gold.PLP.ligand.torsion>
1.3731

> <Gold.PLP.Chemscore.Hbond>
0.0090

> <Gold.PLP.Chemscore.CHOScore>
0.0000

> <Gold.PLP.Chemscore.Metal>
1.0000

> <Gold.Chemscore.Hbonds>
donor molecule, donor type, donor heavy atom, donor atom, acceptor molecule, acceptor atom, score
      P1  M 13308 13308       L1    11  1.00

> <Gold.PLP.Chemscore.Internal.Correction>
   9.000000E+99

