#       Name:                CT1002167954
#       Creating user name   hitesit
#       Creation time:       Sun Apr 16 20:16:49 2023


#       File generated by GOLD software.
#

@<TRIPOS>MOLECULE
CT1002167954|ligand_prepared|mol2|1|dock8
    29    30     1
SMALL
NO_CHARGES


@<TRIPOS>ATOM
      1 C1         124.3258 246.3726 354.9981 C.3            1 RES1               0.0000
      2 C2         123.9929 246.8608 356.4227 C.ar           1 RES1               0.0000
      3 C3         123.9757 244.8879 354.9613 C.2            1 RES1               0.0000
      4 C4         123.4974 247.2308 354.0485 C.2            1 RES1               0.0000
      5 C5         125.8148 246.5358 354.6137 C.3            1 RES1               0.0000
      6 C6         123.0590 246.1857 357.2030 C.ar           1 RES1               0.0000
      7 C7         124.6122 247.9811 356.9703 C.ar           1 RES1               0.0000
      8 N8         122.8520 244.5204 354.2815 N.am           1 RES1               0.0000
      9 O9         124.6534 244.0567 355.5529 O.2            1 RES1               0.0000
     10 N10        122.5153 246.6150 353.3177 N.am           1 RES1               0.0000
     11 O11        123.6752 248.4378 353.9389 O.2            1 RES1               0.0000
     12 C12        126.1962 245.8274 353.3234 C.3            1 RES1               0.0000
     13 C13        122.7574 246.6132 358.4854 C.ar           1 RES1               0.0000
     14 C14        124.3089 248.4071 358.2529 C.ar           1 RES1               0.0000
     15 C15        122.1347 245.3042 353.4139 C.2            1 RES1               0.0000
     16 C16        123.3823 247.7238 359.0114 C.ar           1 RES1               0.0000
     17 O17        121.2053 244.8363 352.7624 O.2            1 RES1               0.0000
     18 H18        126.0372 247.6048 354.5086 H              1 RES1               0.0000
     19 H19        126.4350 246.1428 355.4288 H              1 RES1               0.0000
     20 H20        122.5553 245.3110 356.8051 H              1 RES1               0.0000
     21 H21        125.3436 248.5349 356.3916 H              1 RES1               0.0000
     22 H22        122.5136 243.5753 354.4322 H              1 RES1               0.0000
     23 H23        122.0224 247.1867 352.6390 H              1 RES1               0.0000
     24 H24        127.2509 245.9738 353.1002 H              1 RES1               0.0000
     25 H25        126.0116 244.7579 353.4015 H              1 RES1               0.0000
     26 H26        125.6162 246.2113 352.4867 H              1 RES1               0.0000
     27 H27        122.0264 246.0727 359.0777 H              1 RES1               0.0000
     28 H28        124.8027 249.2821 358.6626 H              1 RES1               0.0000
     29 H29        123.1461 248.0583 360.0161 H              1 RES1               0.0000
@<TRIPOS>BOND
    1    1    2 1     
    2    1    3 1     
    3    1    4 1     
    4    1    5 1     
    5    2    6 ar    
    6    2    7 ar    
    7    3    8 1     
    8    3    9 2     
    9    4   10 1     
   10    4   11 2     
   11    5   12 1     
   12    5   18 1     
   13    5   19 1     
   14    6   13 ar    
   15    6   20 1     
   16    7   14 ar    
   17    7   21 1     
   18    8   15 1     
   19    8   22 1     
   20   10   15 1     
   21   10   23 1     
   22   12   24 1     
   23   12   25 1     
   24   12   26 1     
   25   13   16 ar    
   26   13   27 1     
   27   14   16 ar    
   28   14   28 1     
   29   15   17 2     
   30   16   29 1     
@<TRIPOS>SUBSTRUCTURE
      1 RES1           1
@<TRIPOS>SET
DONOR_HYDROGENS      STATIC     ATOMS    <user>   **** ""
2 22 23
ATOM$RED        STATIC     ATOMS    COLORGROUP SYSTEM
2 22 23
@<TRIPOS>COMMENT
> <Gold.Version>
2022.3.0

> <Gold.Id.Protein>
unknown|4uh6_clean|pdb

> <Gold.Protein.RotatedTorsions>
[ 9103 9086 9085 9083 ] final   22.49 input   60.02 | X-H torsion
[ 9012 8996 8995 8992 ] final  172.68 input   59.99 | X-H torsion
[ 8362 8332 8331 8329 ] final  -68.68 input   59.98 | X-H torsion
[ 5561 5545 5544 5541 ] final  131.37 input   59.99 | X-H torsion
[ 8509 8500 8499 8496 ] final  -30.51 input   60.00 | X-H torsion
[ 12897 12876 12875 12873 ] final  -79.08 input   59.99 | X-H torsion
[ 13481 13433 13432 13428 ] final  136.96 input   60.03 | X-H torsion
[ 9185 9171 9169 9166 ] final   24.10 input   60.01 | X-H torsion

> <Gold.Protein.ActiveResidues>
 TRP311  MET341  HIS342  TRP414  ARG419  CYS420  VAL421  GLY422  LEU429  LEU460 
 SER462  ALA463  ILE464  ASN481  SER482  GLN483  LEU484  ILE485  ARG486  ASP500 
 ALA502  ASN503  TRP566  TYR567  GLY568  LEU569  PRO570  ALA571  VAL572  SER573 
 ASN574  MET575  PRO588  PHE589  SER590  GLY591  TRP592  TYR593  MET594  GLY595 
 THR596  GLU597  ILE598  VAL600  ARG601  ASP602  TYR603  ASP605  ARG608  ILE653 
 VAL654  TRP683  PRO687  SER691  PHE696  HIS697  TYR711  HEM750  H4B760 

> <Gold.Protein.RotatedAtoms>
  127.2946  249.7297  361.7679 H   0  0  0  0  0  0  0  0  0  0  0  0  # atno 5561 bound_to 5545
  126.4078  243.2667  362.6336 H   0  0  0  0  0  0  0  0  0  0  0  0  # atno 8362 bound_to 8332
  123.8755  250.9483  366.1735 H   0  0  0  0  0  0  0  0  0  0  0  0  # atno 8509 bound_to 8500
  115.9889  244.6461  369.1180 H   0  0  0  0  0  0  0  0  0  0  0  0  # atno 9012 bound_to 8996
  122.5232  242.5810  360.5236 H   0  0  0  0  0  0  0  0  0  0  0  0  # atno 9103 bound_to 9086
  118.0341  240.1440  352.2190 H   0  0  0  0  0  0  0  0  0  0  0  0  # atno 9185 bound_to 9171
  121.3326  254.5252  354.4907 H   0  0  0  0  0  0  0  0  0  0  0  0  # atno 12897 bound_to 12876
  124.8830  250.6270  345.6345 H   0  0  0  0  0  0  0  0  0  0  0  0  # atno 13481 bound_to 13433
  123.3406  241.1801  360.6563 LP  0  0  0  0  0  0  0  0  0  0  0  0  # atno 13496 bound_to 9086
  122.6316  241.8425  361.9697 LP  0  0  0  0  0  0  0  0  0  0  0  0  # atno 13497 bound_to 9086
  114.7330  244.8138  368.0971 LP  0  0  0  0  0  0  0  0  0  0  0  0  # atno 13516 bound_to 8996
  115.2987  246.1062  368.9193 LP  0  0  0  0  0  0  0  0  0  0  0  0  # atno 13517 bound_to 8996
  124.9338  243.1617  361.9516 LP  0  0  0  0  0  0  0  0  0  0  0  0  # atno 13530 bound_to 8332
  126.1652  242.2508  361.3855 LP  0  0  0  0  0  0  0  0  0  0  0  0  # atno 13531 bound_to 8332
  127.2548  249.5039  363.3786 LP  0  0  0  0  0  0  0  0  0  0  0  0  # atno 13538 bound_to 5545
  128.5748  250.1593  362.6753 LP  0  0  0  0  0  0  0  0  0  0  0  0  # atno 13539 bound_to 5545
  124.2704  250.3070  367.6162 LP  0  0  0  0  0  0  0  0  0  0  0  0  # atno 13551 bound_to 8500
  124.6908  251.8443  367.2603 LP  0  0  0  0  0  0  0  0  0  0  0  0  # atno 13552 bound_to 8500
  120.0519  255.3186  353.8751 LP  0  0  0  0  0  0  0  0  0  0  0  0  # atno 13567 bound_to 12876
  119.8999  254.4678  355.2606 LP  0  0  0  0  0  0  0  0  0  0  0  0  # atno 13568 bound_to 12876
  123.9944  249.5765  346.5036 LP  0  0  0  0  0  0  0  0  0  0  0  0  # atno 13569 bound_to 13433
  125.2819  250.3175  347.1816 LP  0  0  0  0  0  0  0  0  0  0  0  0  # atno 13570 bound_to 13433

> <Gold.Score>
     Fitness  S(hb_ext) S(vdw_ext)  S(hb_int)    S(int)      intcor
     34.34       5.13      21.94       0.00      -0.95      -0.76

> <Gold.Goldscore.Fitness>
34.3407

> <Gold.Goldscore.Internal.Vdw>
-1.1609

> <Gold.Goldscore.Internal.Torsion>
-0.5510

> <Gold.Goldscore.External.Vdw>
21.9405

> <Gold.Goldscore.Internal.HBond>
0.0000

> <Gold.Goldscore.External.HBond>
5.1259

> <Gold.Goldscore.Internal.Correction>
-0.7585

> <Gold.Goldscore.Hbonds>
donor molecule, donor type, donor heavy atom, donor atom, acceptor molecule, acceptor atom, score
      P1  H  9526  9561       L1     9  0.08
      L1  H     8    22       P1  9196  0.04
      L1  H    10    23       P1 13423  0.77

> <Gold.Goldscore.Internal.Vdw.Weighted>
-1.1609

> <Gold.Goldscore.Internal.Torsion.Weighted>
-0.5510

> <Gold.Goldscore.External.Vdw.Weighted>
30.1682

> <Gold.Goldscore.Internal.HBond.Weighted>
0.0000

> <Gold.Goldscore.External.HBond.Weighted>
5.1259

> <Gold.Goldscore.Internal.Correction.Weighted>
-0.7585

> <Gold.Rescore>
     Score     S(PLP)   S(hbond)     S(cho)   S(metal)  DE(clash)   DE(tors)     intcor
     14.09     -12.72       1.13       0.00       0.00       0.01       1.01       ----

> <Gold.PLP.Fitness>
14.0861

> <Gold.PLP.PLP>
-12.7232

> <Gold.PLP.part.hbond>
-3.0000

> <Gold.PLP.part.metal>
0.0000

> <Gold.PLP.part.buried>
-3.2048

> <Gold.PLP.part.nonpolar>
-13.1707

> <Gold.PLP.part.repulsive>
7.1231

> <Gold.PLP.ligand.clash>
0.0082

> <Gold.PLP.ligand.torsion>
1.0088

> <Gold.PLP.Chemscore.Hbond>
1.1296

> <Gold.PLP.Chemscore.CHOScore>
0.0000

> <Gold.PLP.Chemscore.Metal>
0.0000

> <Gold.Chemscore.Hbonds>
donor molecule, donor type, donor heavy atom, donor atom, acceptor molecule, acceptor atom, score
      L1  H    10    23       P1 13423  0.30
      P1  H  9526  9561       L1     9  0.45

> <Gold.PLP.Chemscore.Internal.Correction>
   9.000000E+99

