#       Name:                CT1002167954
#       Creating user name   hitesit
#       Creation time:       Sun Apr 16 20:16:50 2023


#       File generated by GOLD software.
#

@<TRIPOS>MOLECULE
CT1002167954|ligand_prepared|mol2|1|dock9
    29    30     1
SMALL
NO_CHARGES


@<TRIPOS>ATOM
      1 C1         122.9166 247.6455 357.8394 C.3            1 RES1               0.0000
      2 C2         123.1318 246.9375 356.4862 C.ar           1 RES1               0.0000
      3 C3         122.4293 249.0542 357.5131 C.2            1 RES1               0.0000
      4 C4         121.9065 246.8002 358.6073 C.2            1 RES1               0.0000
      5 C5         124.1982 247.7556 358.6978 C.3            1 RES1               0.0000
      6 C6         124.2096 247.2753 355.6732 C.ar           1 RES1               0.0000
      7 C7         122.2641 245.9444 356.0394 C.ar           1 RES1               0.0000
      8 N8         121.1120 249.3331 357.7295 N.am           1 RES1               0.0000
      9 O9         123.1807 249.8958 357.0361 O.2            1 RES1               0.0000
     10 N10        120.6801 247.3501 358.8745 N.am           1 RES1               0.0000
     11 O11        122.1556 245.6567 358.9690 O.2            1 RES1               0.0000
     12 C12        123.9667 248.3699 360.0693 C.3            1 RES1               0.0000
     13 C13        124.4143 246.6414 354.4589 C.ar           1 RES1               0.0000
     14 C14        122.4706 245.3119 354.8246 C.ar           1 RES1               0.0000
     15 C15        120.2262 248.5669 358.4436 C.2            1 RES1               0.0000
     16 C16        123.5453 245.6590 354.0340 C.ar           1 RES1               0.0000
     17 O17        119.0905 248.9696 358.6783 O.2            1 RES1               0.0000
     18 H18        124.6237 246.7528 358.8272 H              1 RES1               0.0000
     19 H19        124.9337 248.3647 358.1578 H              1 RES1               0.0000
     20 H20        124.9026 248.0477 355.9898 H              1 RES1               0.0000
     21 H21        121.4113 245.6557 356.6443 H              1 RES1               0.0000
     22 H22        120.7522 250.1906 357.3226 H              1 RES1               0.0000
     23 H23        120.0470 246.8016 359.4477 H              1 RES1               0.0000
     24 H24        124.8975 248.4238 360.6300 H              1 RES1               0.0000
     25 H25        123.5672 249.3778 359.9781 H              1 RES1               0.0000
     26 H26        123.2591 247.7755 360.6437 H              1 RES1               0.0000
     27 H27        125.2609 246.9192 353.8397 H              1 RES1               0.0000
     28 H28        121.7838 244.5397 354.4940 H              1 RES1               0.0000
     29 H29        123.7061 245.1623 353.0829 H              1 RES1               0.0000
@<TRIPOS>BOND
    1    1    2 1     
    2    1    3 1     
    3    1    4 1     
    4    1    5 1     
    5    2    6 ar    
    6    2    7 ar    
    7    3    8 1     
    8    3    9 2     
    9    4   10 1     
   10    4   11 2     
   11    5   12 1     
   12    5   18 1     
   13    5   19 1     
   14    6   13 ar    
   15    6   20 1     
   16    7   14 ar    
   17    7   21 1     
   18    8   15 1     
   19    8   22 1     
   20   10   15 1     
   21   10   23 1     
   22   12   24 1     
   23   12   25 1     
   24   12   26 1     
   25   13   16 ar    
   26   13   27 1     
   27   14   16 ar    
   28   14   28 1     
   29   15   17 2     
   30   16   29 1     
@<TRIPOS>SUBSTRUCTURE
      1 RES1           1
@<TRIPOS>SET
DONOR_HYDROGENS      STATIC     ATOMS    <user>   **** ""
2 22 23
ATOM$RED        STATIC     ATOMS    COLORGROUP SYSTEM
2 22 23
@<TRIPOS>COMMENT
> <Gold.Version>
2022.3.0

> <Gold.Id.Protein>
unknown|4uh6_clean|pdb

> <Gold.Protein.RotatedTorsions>
[ 9103 9086 9085 9083 ] final    8.96 input   60.02 | X-H torsion
[ 9012 8996 8995 8992 ] final -138.15 input   59.99 | X-H torsion
[ 8362 8332 8331 8329 ] final    1.69 input   59.98 | X-H torsion
[ 5561 5545 5544 5541 ] final  127.12 input   59.99 | X-H torsion
[ 8509 8500 8499 8496 ] final -176.57 input   60.00 | X-H torsion
[ 12897 12876 12875 12873 ] final -162.83 input   59.99 | X-H torsion
[ 13481 13433 13432 13428 ] final  -96.16 input   60.03 | X-H torsion
[ 9185 9171 9169 9166 ] final  132.74 input   60.01 | X-H torsion

> <Gold.Protein.ActiveResidues>
 TRP311  MET341  HIS342  TRP414  ARG419  CYS420  VAL421  GLY422  LEU429  LEU460 
 SER462  ALA463  ILE464  ASN481  SER482  GLN483  LEU484  ILE485  ARG486  ASP500 
 ALA502  ASN503  TRP566  TYR567  GLY568  LEU569  PRO570  ALA571  VAL572  SER573 
 ASN574  MET575  PRO588  PHE589  SER590  GLY591  TRP592  TYR593  MET594  GLY595 
 THR596  GLU597  ILE598  VAL600  ARG601  ASP602  TYR603  ASP605  ARG608  ILE653 
 VAL654  TRP683  PRO687  SER691  PHE696  HIS697  TYR711  HEM750  H4B760 

> <Gold.Protein.RotatedAtoms>
  127.2396  249.7020  361.8001 H   0  0  0  0  0  0  0  0  0  0  0  0  # atno 5561 bound_to 5545
  126.6936  242.5263  361.9024 H   0  0  0  0  0  0  0  0  0  0  0  0  # atno 8362 bound_to 8332
  124.4743  250.6123  367.8282 H   0  0  0  0  0  0  0  0  0  0  0  0  # atno 8509 bound_to 8500
  116.0105  245.3941  369.3339 H   0  0  0  0  0  0  0  0  0  0  0  0  # atno 9012 bound_to 8996
  122.6268  242.4724  360.3620 H   0  0  0  0  0  0  0  0  0  0  0  0  # atno 9103 bound_to 9086
  117.8906  240.6247  350.7829 H   0  0  0  0  0  0  0  0  0  0  0  0  # atno 9185 bound_to 9171
  120.6155  255.2297  353.7475 H   0  0  0  0  0  0  0  0  0  0  0  0  # atno 12897 bound_to 12876
  125.2114  250.2451  347.2322 H   0  0  0  0  0  0  0  0  0  0  0  0  # atno 13481 bound_to 13433
  123.3412  241.0987  360.8629 LP  0  0  0  0  0  0  0  0  0  0  0  0  # atno 13496 bound_to 9086
  122.5267  242.0333  361.9258 LP  0  0  0  0  0  0  0  0  0  0  0  0  # atno 13497 bound_to 9086
  115.2466  244.3033  368.3988 LP  0  0  0  0  0  0  0  0  0  0  0  0  # atno 13516 bound_to 8996
  114.7633  245.8631  368.4000 LP  0  0  0  0  0  0  0  0  0  0  0  0  # atno 13517 bound_to 8996
  125.6679  243.5392  362.6579 LP  0  0  0  0  0  0  0  0  0  0  0  0  # atno 13530 bound_to 8332
  125.1434  242.6187  361.4153 LP  0  0  0  0  0  0  0  0  0  0  0  0  # atno 13531 bound_to 8332
  127.3109  249.5232  363.4156 LP  0  0  0  0  0  0  0  0  0  0  0  0  # atno 13538 bound_to 5545
  128.5740  250.1678  362.6059 LP  0  0  0  0  0  0  0  0  0  0  0  0  # atno 13539 bound_to 5545
  124.5488  251.9240  366.8677 LP  0  0  0  0  0  0  0  0  0  0  0  0  # atno 13551 bound_to 8500
  123.8097  250.5655  366.3433 LP  0  0  0  0  0  0  0  0  0  0  0  0  # atno 13552 bound_to 8500
  119.5634  254.7984  354.9118 LP  0  0  0  0  0  0  0  0  0  0  0  0  # atno 13567 bound_to 12876
  121.1103  254.2788  354.9720 LP  0  0  0  0  0  0  0  0  0  0  0  0  # atno 13568 bound_to 12876
  124.9734  250.6763  345.6810 LP  0  0  0  0  0  0  0  0  0  0  0  0  # atno 13569 bound_to 13433
  123.9722  249.6023  346.3957 LP  0  0  0  0  0  0  0  0  0  0  0  0  # atno 13570 bound_to 13433

> <Gold.Score>
     Fitness  S(hb_ext) S(vdw_ext)  S(hb_int)    S(int)      intcor
     31.77       6.00      19.87       0.00      -1.54      -0.76

> <Gold.Goldscore.Fitness>
31.7714

> <Gold.Goldscore.Internal.Vdw>
-1.9143

> <Gold.Goldscore.Internal.Torsion>
-0.3888

> <Gold.Goldscore.External.Vdw>
19.8661

> <Gold.Goldscore.Internal.HBond>
0.0000

> <Gold.Goldscore.External.HBond>
6.0000

> <Gold.Goldscore.Internal.Correction>
-0.7585

> <Gold.Goldscore.Hbonds>
donor molecule, donor type, donor heavy atom, donor atom, acceptor molecule, acceptor atom, score
      L1  H     8    22       P1 13292  1.00

> <Gold.Goldscore.Internal.Vdw.Weighted>
-1.9143

> <Gold.Goldscore.Internal.Torsion.Weighted>
-0.3888

> <Gold.Goldscore.External.Vdw.Weighted>
27.3159

> <Gold.Goldscore.Internal.HBond.Weighted>
0.0000

> <Gold.Goldscore.External.HBond.Weighted>
6.0000

> <Gold.Goldscore.Internal.Correction.Weighted>
-0.7585

> <Gold.Rescore>
     Score     S(PLP)   S(hbond)     S(cho)   S(metal)  DE(clash)   DE(tors)     intcor
     27.01     -28.10       0.28       0.00       0.00       1.40       0.26       ----

> <Gold.PLP.Fitness>
27.0086

> <Gold.PLP.PLP>
-28.1013

> <Gold.PLP.part.hbond>
-2.2082

> <Gold.PLP.part.metal>
0.0000

> <Gold.PLP.part.buried>
-1.2707

> <Gold.PLP.part.nonpolar>
-24.2808

> <Gold.PLP.part.repulsive>
0.3717

> <Gold.PLP.ligand.clash>
1.4010

> <Gold.PLP.ligand.torsion>
0.2602

> <Gold.PLP.Chemscore.Hbond>
0.2763

> <Gold.PLP.Chemscore.CHOScore>
0.0000

> <Gold.PLP.Chemscore.Metal>
0.0000

> <Gold.Chemscore.Hbonds>
donor molecule, donor type, donor heavy atom, donor atom, acceptor molecule, acceptor atom, score
      L1  H     8    22       P1 13292  0.52

> <Gold.PLP.Chemscore.Internal.Correction>
   9.000000E+99

