#       Name:                CT1002167954
#       Creating user name   hitesit
#       Creation time:       Sun Apr 16 20:16:47 2023


#       File generated by GOLD software.
#

@<TRIPOS>MOLECULE
CT1002167954|ligand_prepared|mol2|1|dock6
    29    30     1
SMALL
NO_CHARGES


@<TRIPOS>ATOM
      1 C1         123.2856 245.7181 358.0718 C.3            1 RES1               0.0000
      2 C2         123.1249 247.1855 358.5185 C.ar           1 RES1               0.0000
      3 C3         121.8831 245.1171 358.0625 C.2            1 RES1               0.0000
      4 C4         123.9536 245.7599 356.7018 C.2            1 RES1               0.0000
      5 C5         124.1760 244.8726 359.0119 C.3            1 RES1               0.0000
      6 C6         124.1700 247.8521 359.1511 C.ar           1 RES1               0.0000
      7 C7         121.9407 247.8854 358.3029 C.ar           1 RES1               0.0000
      8 N8         121.2989 244.8948 356.8503 N.am           1 RES1               0.0000
      9 O9         121.2832 244.8785 359.1034 O.2            1 RES1               0.0000
     10 N10        123.2338 245.3180 355.6227 N.am           1 RES1               0.0000
     11 O11        125.0908 246.1870 356.5447 O.2            1 RES1               0.0000
     12 C12        124.0887 243.3761 358.7574 C.3            1 RES1               0.0000
     13 C13        124.0372 249.1715 359.5510 C.ar           1 RES1               0.0000
     14 C14        121.8099 249.2047 358.7039 C.ar           1 RES1               0.0000
     15 C15        121.9259 244.9161 355.6304 C.2            1 RES1               0.0000
     16 C16        122.8574 249.8487 359.3274 C.ar           1 RES1               0.0000
     17 O17        121.3303 244.5844 354.6094 O.2            1 RES1               0.0000
     18 H18        125.2188 245.1911 358.8913 H              1 RES1               0.0000
     19 H19        123.8825 245.0719 360.0499 H              1 RES1               0.0000
     20 H20        125.1051 247.3346 359.3377 H              1 RES1               0.0000
     21 H21        121.1030 247.3985 357.8152 H              1 RES1               0.0000
     22 H22        120.3039 244.6944 356.8510 H              1 RES1               0.0000
     23 H23        123.7179 245.2856 354.7311 H              1 RES1               0.0000
     24 H24        124.7324 242.8299 359.4437 H              1 RES1               0.0000
     25 H25        123.0694 243.0205 358.8932 H              1 RES1               0.0000
     26 H26        124.3978 243.1389 357.7415 H              1 RES1               0.0000
     27 H27        124.8641 249.6734 360.0425 H              1 RES1               0.0000
     28 H28        120.8794 249.7336 358.5264 H              1 RES1               0.0000
     29 H29        122.7538 250.8824 359.6404 H              1 RES1               0.0000
@<TRIPOS>BOND
    1    1    2 1     
    2    1    3 1     
    3    1    4 1     
    4    1    5 1     
    5    2    6 ar    
    6    2    7 ar    
    7    3    8 1     
    8    3    9 2     
    9    4   10 1     
   10    4   11 2     
   11    5   12 1     
   12    5   18 1     
   13    5   19 1     
   14    6   13 ar    
   15    6   20 1     
   16    7   14 ar    
   17    7   21 1     
   18    8   15 1     
   19    8   22 1     
   20   10   15 1     
   21   10   23 1     
   22   12   24 1     
   23   12   25 1     
   24   12   26 1     
   25   13   16 ar    
   26   13   27 1     
   27   14   16 ar    
   28   14   28 1     
   29   15   17 2     
   30   16   29 1     
@<TRIPOS>SUBSTRUCTURE
      1 RES1           1
@<TRIPOS>SET
DONOR_HYDROGENS      STATIC     ATOMS    <user>   **** ""
2 22 23
ATOM$RED        STATIC     ATOMS    COLORGROUP SYSTEM
2 22 23
@<TRIPOS>COMMENT
> <Gold.Version>
2022.3.0

> <Gold.Id.Protein>
unknown|4uh6_clean|pdb

> <Gold.Protein.RotatedTorsions>
[ 9103 9086 9085 9083 ] final  146.92 input   60.02 | X-H torsion
[ 9012 8996 8995 8992 ] final   82.39 input   59.99 | X-H torsion
[ 8362 8332 8331 8329 ] final   39.25 input   59.98 | X-H torsion
[ 5561 5545 5544 5541 ] final  105.79 input   59.99 | X-H torsion
[ 8509 8500 8499 8496 ] final -136.93 input   60.00 | X-H torsion
[ 12897 12876 12875 12873 ] final  -48.70 input   59.99 | X-H torsion
[ 13481 13433 13432 13428 ] final  -13.35 input   60.03 | X-H torsion
[ 9185 9171 9169 9166 ] final  141.14 input   60.01 | X-H torsion

> <Gold.Protein.ActiveResidues>
 TRP311  MET341  HIS342  TRP414  ARG419  CYS420  VAL421  GLY422  LEU429  LEU460 
 SER462  ALA463  ILE464  ASN481  SER482  GLN483  LEU484  ILE485  ARG486  ASP500 
 ALA502  ASN503  TRP566  TYR567  GLY568  LEU569  PRO570  ALA571  VAL572  SER573 
 ASN574  MET575  PRO588  PHE589  SER590  GLY591  TRP592  TYR593  MET594  GLY595 
 THR596  GLU597  ILE598  VAL600  ARG601  ASP602  TYR603  ASP605  ARG608  ILE653 
 VAL654  TRP683  PRO687  SER691  PHE696  HIS697  TYR711  HEM750  H4B760 

> <Gold.Protein.RotatedAtoms>
  127.0083  249.5743  362.0240 H   0  0  0  0  0  0  0  0  0  0  0  0  # atno 5561 bound_to 5545
  126.3325  242.2805  361.4867 H   0  0  0  0  0  0  0  0  0  0  0  0  # atno 8362 bound_to 8332
  124.1584  250.2121  367.4494 H   0  0  0  0  0  0  0  0  0  0  0  0  # atno 8509 bound_to 8500
  115.0150  244.4495  368.2382 H   0  0  0  0  0  0  0  0  0  0  0  0  # atno 9012 bound_to 8996
  122.6679  241.7793  361.9662 H   0  0  0  0  0  0  0  0  0  0  0  0  # atno 9103 bound_to 9086
  117.8013  240.5667  350.6965 H   0  0  0  0  0  0  0  0  0  0  0  0  # atno 9185 bound_to 9171
  121.1646  254.3123  354.8997 H   0  0  0  0  0  0  0  0  0  0  0  0  # atno 12897 bound_to 12876
  124.2111  249.5736  346.9445 H   0  0  0  0  0  0  0  0  0  0  0  0  # atno 13481 bound_to 13433
  122.4923  242.6145  360.5806 LP  0  0  0  0  0  0  0  0  0  0  0  0  # atno 13496 bound_to 9086
  123.3342  241.2154  360.5928 LP  0  0  0  0  0  0  0  0  0  0  0  0  # atno 13497 bound_to 9086
  114.9440  246.0346  368.5989 LP  0  0  0  0  0  0  0  0  0  0  0  0  # atno 13516 bound_to 8996
  116.0688  245.0835  369.3038 LP  0  0  0  0  0  0  0  0  0  0  0  0  # atno 13517 bound_to 8996
  126.2508  243.3729  362.6903 LP  0  0  0  0  0  0  0  0  0  0  0  0  # atno 13530 bound_to 8332
  124.9240  243.0325  361.8013 LP  0  0  0  0  0  0  0  0  0  0  0  0  # atno 13531 bound_to 8332
  127.6188  249.6404  363.5306 LP  0  0  0  0  0  0  0  0  0  0  0  0  # atno 13538 bound_to 5545
  128.4992  250.1793  362.2653 LP  0  0  0  0  0  0  0  0  0  0  0  0  # atno 13539 bound_to 5545
  124.7329  251.7348  367.4500 LP  0  0  0  0  0  0  0  0  0  0  0  0  # atno 13551 bound_to 8500
  123.9436  251.1575  366.1422 LP  0  0  0  0  0  0  0  0  0  0  0  0  # atno 13552 bound_to 8500
  120.5237  255.2588  353.7413 LP  0  0  0  0  0  0  0  0  0  0  0  0  # atno 13567 bound_to 12876
  119.5971  254.7420  354.9826 LP  0  0  0  0  0  0  0  0  0  0  0  0  # atno 13568 bound_to 12876
  125.4648  250.6044  346.8249 LP  0  0  0  0  0  0  0  0  0  0  0  0  # atno 13569 bound_to 13433
  124.4878  250.3502  345.5414 LP  0  0  0  0  0  0  0  0  0  0  0  0  # atno 13570 bound_to 13433

> <Gold.Score>
     Fitness  S(hb_ext) S(vdw_ext)  S(hb_int)    S(int)      intcor
     33.67       4.26      22.02       0.00      -0.88      -0.76

> <Gold.Goldscore.Fitness>
33.6698

> <Gold.Goldscore.Internal.Vdw>
-1.0026

> <Gold.Goldscore.Internal.Torsion>
-0.6317

> <Gold.Goldscore.External.Vdw>
22.0238

> <Gold.Goldscore.Internal.HBond>
0.0000

> <Gold.Goldscore.External.HBond>
4.2629

> <Gold.Goldscore.Internal.Correction>
-0.7585

> <Gold.Goldscore.Hbonds>
donor molecule, donor type, donor heavy atom, donor atom, acceptor molecule, acceptor atom, score
      L1  H     8    22       P1  9200  0.71

> <Gold.Goldscore.Internal.Vdw.Weighted>
-1.0026

> <Gold.Goldscore.Internal.Torsion.Weighted>
-0.6317

> <Gold.Goldscore.External.Vdw.Weighted>
30.2827

> <Gold.Goldscore.Internal.HBond.Weighted>
0.0000

> <Gold.Goldscore.External.HBond.Weighted>
4.2629

> <Gold.Goldscore.Internal.Correction.Weighted>
-0.7585

> <Gold.Rescore>
     Score     S(PLP)   S(hbond)     S(cho)   S(metal)  DE(clash)   DE(tors)     intcor
     21.77     -20.87       1.00       0.00       0.00       0.00       1.05       ----

> <Gold.PLP.Fitness>
21.7670

> <Gold.PLP.PLP>
-20.8682

> <Gold.PLP.part.hbond>
-2.6954

> <Gold.PLP.part.metal>
0.0000

> <Gold.PLP.part.buried>
1.3446

> <Gold.PLP.part.nonpolar>
-20.9475

> <Gold.PLP.part.repulsive>
0.4986

> <Gold.PLP.ligand.clash>
0.0000

> <Gold.PLP.ligand.torsion>
1.0506

> <Gold.PLP.Chemscore.Hbond>
1.0000

> <Gold.PLP.Chemscore.CHOScore>
0.0000

> <Gold.PLP.Chemscore.Metal>
0.0000

> <Gold.Chemscore.Hbonds>
donor molecule, donor type, donor heavy atom, donor atom, acceptor molecule, acceptor atom, score
      L1  H     8    22       P1  9200  1.00

> <Gold.PLP.Chemscore.Internal.Correction>
   9.000000E+99

