#       Name:                CT1002167954
#       Creating user name   hitesit
#       Creation time:       Sun Apr 16 20:16:43 2023


#       File generated by GOLD software.
#

@<TRIPOS>MOLECULE
CT1002167954|ligand_prepared|mol2|1|dock3
    29    30     1
SMALL
NO_CHARGES


@<TRIPOS>ATOM
      1 C1         123.5002 246.3415 355.8139 C.3            1 RES1               0.0000
      2 C2         122.5433 246.6088 356.9936 C.ar           1 RES1               0.0000
      3 C3         123.1692 244.9426 355.3023 C.2            1 RES1               0.0000
      4 C4         123.2470 247.4511 354.7994 C.2            1 RES1               0.0000
      5 C5         124.9967 246.3813 356.2019 C.3            1 RES1               0.0000
      6 C6         122.8374 247.5893 357.9364 C.ar           1 RES1               0.0000
      7 C7         121.3635 245.8862 357.1506 C.ar           1 RES1               0.0000
      8 N8         122.4945 244.8451 354.1211 N.am           1 RES1               0.0000
      9 O9         123.4610 243.9416 355.9449 O.2            1 RES1               0.0000
     10 N10        122.7142 247.1024 353.5860 N.am           1 RES1               0.0000
     11 O11        123.4885 248.6263 355.0459 O.2            1 RES1               0.0000
     12 C12        125.9345 245.9983 355.0679 C.3            1 RES1               0.0000
     13 C13        121.9817 247.8404 358.9962 C.ar           1 RES1               0.0000
     14 C14        120.5093 246.1388 358.2112 C.ar           1 RES1               0.0000
     15 C15        122.2979 245.8536 353.2123 C.2            1 RES1               0.0000
     16 C16        120.8170 247.1157 359.1341 C.ar           1 RES1               0.0000
     17 O17        121.7778 245.6287 352.1233 O.2            1 RES1               0.0000
     18 H18        125.2469 247.3944 356.5402 H              1 RES1               0.0000
     19 H19        125.1617 245.6967 357.0430 H              1 RES1               0.0000
     20 H20        123.7505 248.1680 357.8457 H              1 RES1               0.0000
     21 H21        121.1016 245.1121 356.4373 H              1 RES1               0.0000
     22 H22        122.0994 243.9385 353.8924 H              1 RES1               0.0000
     23 H23        122.6193 247.8421 352.8975 H              1 RES1               0.0000
     24 H24        126.9717 246.0426 355.3935 H              1 RES1               0.0000
     25 H25        125.7304 244.9866 354.7236 H              1 RES1               0.0000
     26 H26        125.8151 246.6742 354.2237 H              1 RES1               0.0000
     27 H27        122.2291 248.6094 359.7205 H              1 RES1               0.0000
     28 H28        119.5941 245.5656 358.3162 H              1 RES1               0.0000
     29 H29        120.1466 247.3129 359.9641 H              1 RES1               0.0000
@<TRIPOS>BOND
    1    1    2 1     
    2    1    3 1     
    3    1    4 1     
    4    1    5 1     
    5    2    6 ar    
    6    2    7 ar    
    7    3    8 1     
    8    3    9 2     
    9    4   10 1     
   10    4   11 2     
   11    5   12 1     
   12    5   18 1     
   13    5   19 1     
   14    6   13 ar    
   15    6   20 1     
   16    7   14 ar    
   17    7   21 1     
   18    8   15 1     
   19    8   22 1     
   20   10   15 1     
   21   10   23 1     
   22   12   24 1     
   23   12   25 1     
   24   12   26 1     
   25   13   16 ar    
   26   13   27 1     
   27   14   16 ar    
   28   14   28 1     
   29   15   17 2     
   30   16   29 1     
@<TRIPOS>SUBSTRUCTURE
      1 RES1           1
@<TRIPOS>SET
DONOR_HYDROGENS      STATIC     ATOMS    <user>   **** ""
2 22 23
ATOM$RED        STATIC     ATOMS    COLORGROUP SYSTEM
2 22 23
@<TRIPOS>COMMENT
> <Gold.Version>
2022.3.0

> <Gold.Id.Protein>
unknown|4uh6_clean|pdb

> <Gold.Protein.RotatedTorsions>
[ 9103 9086 9085 9083 ] final  -30.60 input   60.02 | X-H torsion
[ 9012 8996 8995 8992 ] final  -68.33 input   59.99 | X-H torsion
[ 8362 8332 8331 8329 ] final -175.31 input   59.98 | X-H torsion
[ 5561 5545 5544 5541 ] final   38.75 input   59.99 | X-H torsion
[ 8509 8500 8499 8496 ] final -159.76 input   60.00 | X-H torsion
[ 12897 12876 12875 12873 ] final  -10.34 input   59.99 | X-H torsion
[ 13481 13433 13432 13428 ] final  -24.76 input   60.03 | X-H torsion
[ 9185 9171 9169 9166 ] final  -67.94 input   60.01 | X-H torsion

> <Gold.Protein.ActiveResidues>
 TRP311  MET341  HIS342  TRP414  ARG419  CYS420  VAL421  GLY422  LEU429  LEU460 
 SER462  ALA463  ILE464  ASN481  SER482  GLN483  LEU484  ILE485  ARG486  ASP500 
 ALA502  ASN503  TRP566  TYR567  GLY568  LEU569  PRO570  ALA571  VAL572  SER573 
 ASN574  MET575  PRO588  PHE589  SER590  GLY591  TRP592  TYR593  MET594  GLY595 
 THR596  GLU597  ILE598  VAL600  ARG601  ASP602  TYR603  ASP605  ARG608  ILE653 
 VAL654  TRP683  PRO687  SER691  PHE696  HIS697  TYR711  HEM750  H4B760 

> <Gold.Protein.RotatedAtoms>
  126.9695  249.4270  363.0463 H   0  0  0  0  0  0  0  0  0  0  0  0  # atno 5561 bound_to 5545
  124.9962  243.2860  362.1204 H   0  0  0  0  0  0  0  0  0  0  0  0  # atno 8362 bound_to 8332
  124.3432  250.4049  367.7064 H   0  0  0  0  0  0  0  0  0  0  0  0  # atno 8509 bound_to 8500
  115.3130  246.0980  368.9270 H   0  0  0  0  0  0  0  0  0  0  0  0  # atno 9012 bound_to 8996
  122.9707  241.9928  360.1310 H   0  0  0  0  0  0  0  0  0  0  0  0  # atno 9103 bound_to 9086
  117.0750  239.3062  351.7781 H   0  0  0  0  0  0  0  0  0  0  0  0  # atno 9185 bound_to 9171
  120.6763  254.2275  355.2645 H   0  0  0  0  0  0  0  0  0  0  0  0  # atno 12897 bound_to 12876
  124.3320  249.6143  347.0801 H   0  0  0  0  0  0  0  0  0  0  0  0  # atno 13481 bound_to 13433
  123.1875  241.1119  361.4821 LP  0  0  0  0  0  0  0  0  0  0  0  0  # atno 13496 bound_to 9086
  122.3341  242.5030  361.5392 LP  0  0  0  0  0  0  0  0  0  0  0  0  # atno 13497 bound_to 9086
  115.9866  244.6286  369.1137 LP  0  0  0  0  0  0  0  0  0  0  0  0  # atno 13516 bound_to 8996
  114.7260  244.8287  368.0951 LP  0  0  0  0  0  0  0  0  0  0  0  0  # atno 13517 bound_to 8996
  125.9590  242.2536  361.3105 LP  0  0  0  0  0  0  0  0  0  0  0  0  # atno 13530 bound_to 8332
  126.5610  243.1395  362.5432 LP  0  0  0  0  0  0  0  0  0  0  0  0  # atno 13531 bound_to 8332
  128.4676  250.0595  363.0969 LP  0  0  0  0  0  0  0  0  0  0  0  0  # atno 13538 bound_to 5545
  127.6895  249.9086  361.6691 LP  0  0  0  0  0  0  0  0  0  0  0  0  # atno 13539 bound_to 5545
  124.6488  251.8931  367.1227 LP  0  0  0  0  0  0  0  0  0  0  0  0  # atno 13551 bound_to 8500
  123.8416  250.8052  366.2108 LP  0  0  0  0  0  0  0  0  0  0  0  0  # atno 13552 bound_to 8500
  121.0667  254.9971  353.8847 LP  0  0  0  0  0  0  0  0  0  0  0  0  # atno 13567 bound_to 12876
  119.5457  255.0890  354.4720 LP  0  0  0  0  0  0  0  0  0  0  0  0  # atno 13568 bound_to 12876
  125.4819  250.6853  346.6567 LP  0  0  0  0  0  0  0  0  0  0  0  0  # atno 13569 bound_to 13433
  124.3490  250.2283  345.5731 LP  0  0  0  0  0  0  0  0  0  0  0  0  # atno 13570 bound_to 13433

> <Gold.Score>
     Fitness  S(hb_ext) S(vdw_ext)  S(hb_int)    S(int)      intcor
     31.69       6.00      19.64       0.00      -1.31      -0.76

> <Gold.Goldscore.Fitness>
31.6880

> <Gold.Goldscore.Internal.Vdw>
-1.6583

> <Gold.Goldscore.Internal.Torsion>
-0.4117

> <Gold.Goldscore.External.Vdw>
19.6360

> <Gold.Goldscore.Internal.HBond>
0.0000

> <Gold.Goldscore.External.HBond>
6.0000

> <Gold.Goldscore.Internal.Correction>
-0.7585

> <Gold.Goldscore.Hbonds>
donor molecule, donor type, donor heavy atom, donor atom, acceptor molecule, acceptor atom, score
      L1  H    10    23       P1 13426  1.00

> <Gold.Goldscore.Internal.Vdw.Weighted>
-1.6583

> <Gold.Goldscore.Internal.Torsion.Weighted>
-0.4117

> <Gold.Goldscore.External.Vdw.Weighted>
26.9995

> <Gold.Goldscore.Internal.HBond.Weighted>
0.0000

> <Gold.Goldscore.External.HBond.Weighted>
6.0000

> <Gold.Goldscore.Internal.Correction.Weighted>
-0.7585

> <Gold.Rescore>
     Score     S(PLP)   S(hbond)     S(cho)   S(metal)  DE(clash)   DE(tors)     intcor
      5.59      -3.83       1.09       0.00       0.00       1.28       0.12       ----

> <Gold.PLP.Fitness>
5.5885

> <Gold.PLP.PLP>
-3.8267

> <Gold.PLP.part.hbond>
-4.8208

> <Gold.PLP.part.metal>
0.0000

> <Gold.PLP.part.buried>
13.8812

> <Gold.PLP.part.nonpolar>
-20.0939

> <Gold.PLP.part.repulsive>
7.7258

> <Gold.PLP.ligand.clash>
1.2817

> <Gold.PLP.ligand.torsion>
0.1172

> <Gold.PLP.Chemscore.Hbond>
1.0927

> <Gold.PLP.Chemscore.CHOScore>
0.0000

> <Gold.PLP.Chemscore.Metal>
0.0000

> <Gold.Chemscore.Hbonds>
donor molecule, donor type, donor heavy atom, donor atom, acceptor molecule, acceptor atom, score
      L1  H    10    23       P1 13426  1.00
      P1  H  9316  9339       L1    17  0.09

> <Gold.PLP.Chemscore.Internal.Correction>
   9.000000E+99

