#       Name:                CT1002167954
#       Creating user name   hitesit
#       Creation time:       Sun Apr 16 20:16:46 2023


#       File generated by GOLD software.
#

@<TRIPOS>MOLECULE
CT1002167954|ligand_prepared|mol2|1|dock5
    29    30     1
SMALL
NO_CHARGES


@<TRIPOS>ATOM
      1 C1         122.6370 245.1779 357.7814 C.3            1 RES1               0.0000
      2 C2         122.8202 245.5208 356.2889 C.ar           1 RES1               0.0000
      3 C3         122.9563 243.6924 357.9221 C.2            1 RES1               0.0000
      4 C4         123.5844 246.0933 358.5489 C.2            1 RES1               0.0000
      5 C5         121.2038 245.4242 358.3078 C.3            1 RES1               0.0000
      6 C6         121.9283 245.0376 355.3362 C.ar           1 RES1               0.0000
      7 C7         123.8728 246.3199 355.8507 C.ar           1 RES1               0.0000
      8 N8         124.1402 243.3534 358.5079 N.am           1 RES1               0.0000
      9 O9         122.1989 242.8323 357.4898 O.2            1 RES1               0.0000
     10 N10        124.6278 245.5164 359.2244 N.am           1 RES1               0.0000
     11 O11        123.4465 247.3103 358.5611 O.2            1 RES1               0.0000
     12 C12        121.0250 245.0878 359.7798 C.3            1 RES1               0.0000
     13 C13        122.0814 245.3445 353.9943 C.ar           1 RES1               0.0000
     14 C14        124.0241 246.6255 354.5083 C.ar           1 RES1               0.0000
     15 C15        124.9665 244.1907 359.2135 C.2            1 RES1               0.0000
     16 C16        123.1290 246.1389 353.5795 C.ar           1 RES1               0.0000
     17 O17        125.9520 243.7554 359.8021 O.2            1 RES1               0.0000
     18 H18        120.9474 246.4795 358.1530 H              1 RES1               0.0000
     19 H19        120.5028 244.8191 357.7197 H              1 RES1               0.0000
     20 H20        121.0992 244.4089 355.6435 H              1 RES1               0.0000
     21 H21        124.5898 246.7130 356.5635 H              1 RES1               0.0000
     22 H22        124.4389 242.3880 358.4126 H              1 RES1               0.0000
     23 H23        125.2055 246.1323 359.7877 H              1 RES1               0.0000
     24 H24        120.0021 245.2787 360.0976 H              1 RES1               0.0000
     25 H25        121.2475 244.0391 359.9657 H              1 RES1               0.0000
     26 H26        121.6894 245.6896 360.3965 H              1 RES1               0.0000
     27 H27        121.3749 244.9580 353.2671 H              1 RES1               0.0000
     28 H28        124.8505 247.2506 354.1862 H              1 RES1               0.0000
     29 H29        123.2484 246.3796 352.5283 H              1 RES1               0.0000
@<TRIPOS>BOND
    1    1    2 1     
    2    1    3 1     
    3    1    4 1     
    4    1    5 1     
    5    2    6 ar    
    6    2    7 ar    
    7    3    8 1     
    8    3    9 2     
    9    4   10 1     
   10    4   11 2     
   11    5   12 1     
   12    5   18 1     
   13    5   19 1     
   14    6   13 ar    
   15    6   20 1     
   16    7   14 ar    
   17    7   21 1     
   18    8   15 1     
   19    8   22 1     
   20   10   15 1     
   21   10   23 1     
   22   12   24 1     
   23   12   25 1     
   24   12   26 1     
   25   13   16 ar    
   26   13   27 1     
   27   14   16 ar    
   28   14   28 1     
   29   15   17 2     
   30   16   29 1     
@<TRIPOS>SUBSTRUCTURE
      1 RES1           1
@<TRIPOS>SET
DONOR_HYDROGENS      STATIC     ATOMS    <user>   **** ""
2 22 23
ATOM$RED        STATIC     ATOMS    COLORGROUP SYSTEM
2 22 23
@<TRIPOS>COMMENT
> <Gold.Version>
2022.3.0

> <Gold.Id.Protein>
unknown|4uh6_clean|pdb

> <Gold.Protein.RotatedTorsions>
[ 9103 9086 9085 9083 ] final   21.13 input   60.02 | X-H torsion
[ 9012 8996 8995 8992 ] final  -13.07 input   59.99 | X-H torsion
[ 8362 8332 8331 8329 ] final -140.11 input   59.98 | X-H torsion
[ 5561 5545 5544 5541 ] final  165.19 input   59.99 | X-H torsion
[ 8509 8500 8499 8496 ] final  -69.80 input   60.00 | X-H torsion
[ 12897 12876 12875 12873 ] final  -34.96 input   59.99 | X-H torsion
[ 13481 13433 13432 13428 ] final  -67.04 input   60.03 | X-H torsion
[ 9185 9171 9169 9166 ] final   77.20 input   60.01 | X-H torsion

> <Gold.Protein.ActiveResidues>
 TRP311  MET341  HIS342  TRP414  ARG419  CYS420  VAL421  GLY422  LEU429  LEU460 
 SER462  ALA463  ILE464  ASN481  SER482  GLN483  LEU484  ILE485  ARG486  ASP500 
 ALA502  ASN503  TRP566  TYR567  GLY568  LEU569  PRO570  ALA571  VAL572  SER573 
 ASN574  MET575  PRO588  PHE589  SER590  GLY591  TRP592  TYR593  MET594  GLY595 
 THR596  GLU597  ILE598  VAL600  ARG601  ASP602  TYR603  ASP605  ARG608  ILE653 
 VAL654  TRP683  PRO687  SER691  PHE696  HIS697  TYR711  HEM750  H4B760 

> <Gold.Protein.RotatedAtoms>
  127.7852  249.9504  361.6853 H   0  0  0  0  0  0  0  0  0  0  0  0  # atno 5561 bound_to 5545
  125.3490  243.5069  362.5046 H   0  0  0  0  0  0  0  0  0  0  0  0  # atno 8362 bound_to 8332
  123.8134  250.4093  366.4932 H   0  0  0  0  0  0  0  0  0  0  0  0  # atno 8509 bound_to 8500
  114.7319  245.8005  368.3545 H   0  0  0  0  0  0  0  0  0  0  0  0  # atno 9012 bound_to 8996
  122.5329  242.5718  360.5059 H   0  0  0  0  0  0  0  0  0  0  0  0  # atno 9103 bound_to 9086
  118.2397  240.6471  351.5823 H   0  0  0  0  0  0  0  0  0  0  0  0  # atno 9185 bound_to 9171
  121.0175  254.2550  355.0586 H   0  0  0  0  0  0  0  0  0  0  0  0  # atno 12897 bound_to 12876
  124.8697  249.9366  347.3313 H   0  0  0  0  0  0  0  0  0  0  0  0  # atno 13481 bound_to 13433
  123.3420  241.1701  360.6763 LP  0  0  0  0  0  0  0  0  0  0  0  0  # atno 13496 bound_to 9086
  122.6205  241.8618  361.9676 LP  0  0  0  0  0  0  0  0  0  0  0  0  # atno 13497 bound_to 9086
  115.9869  245.4742  369.3374 LP  0  0  0  0  0  0  0  0  0  0  0  0  # atno 13516 bound_to 8996
  115.3111  244.2828  368.4482 LP  0  0  0  0  0  0  0  0  0  0  0  0  # atno 13517 bound_to 8996
  125.4142  242.4212  361.2940 LP  0  0  0  0  0  0  0  0  0  0  0  0  # atno 13530 bound_to 8332
  126.7507  242.7495  362.1730 LP  0  0  0  0  0  0  0  0  0  0  0  0  # atno 13531 bound_to 8332
  126.9193  249.4145  362.9541 LP  0  0  0  0  0  0  0  0  0  0  0  0  # atno 13538 bound_to 5545
  128.4159  250.0263  363.1831 LP  0  0  0  0  0  0  0  0  0  0  0  0  # atno 13539 bound_to 5545
  124.5705  250.7992  367.8800 LP  0  0  0  0  0  0  0  0  0  0  0  0  # atno 13551 bound_to 8500
  124.4532  251.8947  366.6747 LP  0  0  0  0  0  0  0  0  0  0  0  0  # atno 13552 bound_to 8500
  120.7365  255.1851  353.7529 LP  0  0  0  0  0  0  0  0  0  0  0  0  # atno 13567 bound_to 12876
  119.5325  254.8733  354.8111 LP  0  0  0  0  0  0  0  0  0  0  0  0  # atno 13568 bound_to 12876
  125.2910  250.7930  346.0131 LP  0  0  0  0  0  0  0  0  0  0  0  0  # atno 13569 bound_to 13433
  123.9986  249.7961  345.9638 LP  0  0  0  0  0  0  0  0  0  0  0  0  # atno 13570 bound_to 13433

> <Gold.Score>
     Fitness  S(hb_ext) S(vdw_ext)  S(hb_int)    S(int)      intcor
     40.28       6.43      26.05       0.00      -1.98      -0.76

> <Gold.Goldscore.Fitness>
40.2757

> <Gold.Goldscore.Internal.Vdw>
-2.3720

> <Gold.Goldscore.Internal.Torsion>
-0.3665

> <Gold.Goldscore.External.Vdw>
26.0519

> <Gold.Goldscore.Internal.HBond>
0.0000

> <Gold.Goldscore.External.HBond>
6.4344

> <Gold.Goldscore.Internal.Correction>
-0.7585

> <Gold.Goldscore.Hbonds>
donor molecule, donor type, donor heavy atom, donor atom, acceptor molecule, acceptor atom, score
      P1  H  5679  5715       L1    17  0.50
      P1  H  5682  5719       L1    17  0.10
      P1  H  9527  9563       L1    17  0.02
      L1  H     8    22       P1  9362  0.46

> <Gold.Goldscore.Internal.Vdw.Weighted>
-2.3720

> <Gold.Goldscore.Internal.Torsion.Weighted>
-0.3665

> <Gold.Goldscore.External.Vdw.Weighted>
35.8213

> <Gold.Goldscore.Internal.HBond.Weighted>
0.0000

> <Gold.Goldscore.External.HBond.Weighted>
6.4344

> <Gold.Goldscore.Internal.Correction.Weighted>
-0.7585

> <Gold.Rescore>
     Score     S(PLP)   S(hbond)     S(cho)   S(metal)  DE(clash)   DE(tors)     intcor
     27.14     -23.25       1.91       0.00       0.00       1.42       0.21       ----

> <Gold.PLP.Fitness>
27.1425

> <Gold.PLP.PLP>
-23.2462

> <Gold.PLP.part.hbond>
-5.6414

> <Gold.PLP.part.metal>
0.0000

> <Gold.PLP.part.buried>
5.4288

> <Gold.PLP.part.nonpolar>
-28.4405

> <Gold.PLP.part.repulsive>
4.9141

> <Gold.PLP.ligand.clash>
1.4200

> <Gold.PLP.ligand.torsion>
0.2098

> <Gold.PLP.Chemscore.Hbond>
1.9120

> <Gold.PLP.Chemscore.CHOScore>
0.0000

> <Gold.PLP.Chemscore.Metal>
0.0000

> <Gold.Chemscore.Hbonds>
donor molecule, donor type, donor heavy atom, donor atom, acceptor molecule, acceptor atom, score
      L1  H     8    22       P1  9362  0.65
      L1  H    10    23       P1  5570  0.01
      P1  H  5679  5715       L1    17  0.71

> <Gold.PLP.Chemscore.Internal.Correction>
   9.000000E+99

