#       Name:                CT1002167954
#       Creating user name   hitesit
#       Creation time:       Sun Apr 16 20:16:48 2023


#       File generated by GOLD software.
#

@<TRIPOS>MOLECULE
CT1002167954|ligand_prepared|mol2|1|dock7
    29    30     1
SMALL
NO_CHARGES


@<TRIPOS>ATOM
      1 C1         117.5136 246.4044 360.0842 C.3            1 RES1               0.0000
      2 C2         118.5169 247.2404 359.2635 C.ar           1 RES1               0.0000
      3 C3         118.1128 246.2659 361.4807 C.2            1 RES1               0.0000
      4 C4         116.1929 247.1653 360.0466 C.2            1 RES1               0.0000
      5 C5         117.2658 244.9887 359.5134 C.3            1 RES1               0.0000
      6 C6         118.3076 248.6014 359.0624 C.ar           1 RES1               0.0000
      7 C7         119.6555 246.6661 358.7046 C.ar           1 RES1               0.0000
      8 N8         117.5518 246.9990 362.4845 N.am           1 RES1               0.0000
      9 O9         119.0876 245.5544 361.6900 O.2            1 RES1               0.0000
     10 N10        115.7148 247.6802 361.2230 N.am           1 RES1               0.0000
     11 O11        115.5704 247.3380 359.0059 O.2            1 RES1               0.0000
     12 C12        116.1084 244.2556 360.1730 C.3            1 RES1               0.0000
     13 C13        119.2055 249.3616 358.3315 C.ar           1 RES1               0.0000
     14 C14        120.5521 247.4281 357.9738 C.ar           1 RES1               0.0000
     15 C15        116.3497 247.6579 362.4349 C.2            1 RES1               0.0000
     16 C16        120.3285 248.7757 357.7872 C.ar           1 RES1               0.0000
     17 O17        115.8808 248.1907 363.4366 O.2            1 RES1               0.0000
     18 H18        117.0644 245.0718 358.4382 H              1 RES1               0.0000
     19 H19        118.1783 244.3928 359.6385 H              1 RES1               0.0000
     20 H20        117.4282 249.0795 359.4810 H              1 RES1               0.0000
     21 H21        119.8513 245.6076 358.8376 H              1 RES1               0.0000
     22 H22        118.0744 247.0634 363.3523 H              1 RES1               0.0000
     23 H23        114.8008 248.1207 361.1926 H              1 RES1               0.0000
     24 H24        115.9778 243.2681 359.7355 H              1 RES1               0.0000
     25 H25        116.2869 244.1330 361.2392 H              1 RES1               0.0000
     26 H26        115.1795 244.8080 360.0462 H              1 RES1               0.0000
     27 H27        119.0243 250.4215 358.1863 H              1 RES1               0.0000
     28 H28        121.4342 246.9627 357.5467 H              1 RES1               0.0000
     29 H29        121.0319 249.3714 357.2150 H              1 RES1               0.0000
@<TRIPOS>BOND
    1    1    2 1     
    2    1    3 1     
    3    1    4 1     
    4    1    5 1     
    5    2    6 ar    
    6    2    7 ar    
    7    3    8 1     
    8    3    9 2     
    9    4   10 1     
   10    4   11 2     
   11    5   12 1     
   12    5   18 1     
   13    5   19 1     
   14    6   13 ar    
   15    6   20 1     
   16    7   14 ar    
   17    7   21 1     
   18    8   15 1     
   19    8   22 1     
   20   10   15 1     
   21   10   23 1     
   22   12   24 1     
   23   12   25 1     
   24   12   26 1     
   25   13   16 ar    
   26   13   27 1     
   27   14   16 ar    
   28   14   28 1     
   29   15   17 2     
   30   16   29 1     
@<TRIPOS>SUBSTRUCTURE
      1 RES1           1
@<TRIPOS>SET
DONOR_HYDROGENS      STATIC     ATOMS    <user>   **** ""
2 22 23
ATOM$RED        STATIC     ATOMS    COLORGROUP SYSTEM
2 22 23
@<TRIPOS>COMMENT
> <Gold.Version>
2022.3.0

> <Gold.Id.Protein>
unknown|4uh6_clean|pdb

> <Gold.Protein.RotatedTorsions>
[ 9103 9086 9085 9083 ] final   -3.20 input   60.02 | X-H torsion
[ 9012 8996 8995 8992 ] final  129.06 input   59.99 | X-H torsion
[ 8362 8332 8331 8329 ] final  170.83 input   59.98 | X-H torsion
[ 5561 5545 5544 5541 ] final  142.34 input   59.99 | X-H torsion
[ 8509 8500 8499 8496 ] final  135.94 input   60.00 | X-H torsion
[ 12897 12876 12875 12873 ] final   31.67 input   59.99 | X-H torsion
[ 13481 13433 13432 13428 ] final   80.43 input   60.03 | X-H torsion
[ 9185 9171 9169 9166 ] final  -90.12 input   60.01 | X-H torsion

> <Gold.Protein.ActiveResidues>
 TRP311  MET341  HIS342  TRP414  ARG419  CYS420  VAL421  GLY422  LEU429  LEU460 
 SER462  ALA463  ILE464  ASN481  SER482  GLN483  LEU484  ILE485  ARG486  ASP500 
 ALA502  ASN503  TRP566  TYR567  GLY568  LEU569  PRO570  ALA571  VAL572  SER573 
 ASN574  MET575  PRO588  PHE589  SER590  GLY591  TRP592  TYR593  MET594  GLY595 
 THR596  GLU597  ILE598  VAL600  ARG601  ASP602  TYR603  ASP605  ARG608  ILE653 
 VAL654  TRP683  PRO687  SER691  PHE696  HIS697  TYR711  HEM750  H4B760 

> <Gold.Protein.RotatedAtoms>
  127.4460  249.8024  361.7065 H   0  0  0  0  0  0  0  0  0  0  0  0  # atno 5561 bound_to 5545
  124.9380  243.1529  361.9474 H   0  0  0  0  0  0  0  0  0  0  0  0  # atno 8362 bound_to 8332
  124.7225  251.3232  367.7864 H   0  0  0  0  0  0  0  0  0  0  0  0  # atno 8509 bound_to 8500
  115.5867  244.2845  368.6806 H   0  0  0  0  0  0  0  0  0  0  0  0  # atno 9012 bound_to 8996
  122.7298  242.3460  360.2490 H   0  0  0  0  0  0  0  0  0  0  0  0  # atno 9103 bound_to 9086
  116.9461  239.3160  351.4420 H   0  0  0  0  0  0  0  0  0  0  0  0  # atno 9185 bound_to 9171
  120.0296  254.4025  355.3045 H   0  0  0  0  0  0  0  0  0  0  0  0  # atno 12897 bound_to 12876
  124.1936  250.0703  345.6708 H   0  0  0  0  0  0  0  0  0  0  0  0  # atno 13481 bound_to 13433
  123.3175  241.0619  361.0578 LP  0  0  0  0  0  0  0  0  0  0  0  0  # atno 13496 bound_to 9086
  122.4467  242.1974  361.8447 LP  0  0  0  0  0  0  0  0  0  0  0  0  # atno 13497 bound_to 9086
  114.6247  245.5003  368.1863 LP  0  0  0  0  0  0  0  0  0  0  0  0  # atno 13516 bound_to 8996
  115.8122  245.7840  369.2707 LP  0  0  0  0  0  0  0  0  0  0  0  0  # atno 13517 bound_to 8996
  126.1725  242.2514  361.3889 LP  0  0  0  0  0  0  0  0  0  0  0  0  # atno 13530 bound_to 8332
  126.4061  243.2757  362.6390 LP  0  0  0  0  0  0  0  0  0  0  0  0  # atno 13531 bound_to 8332
  127.1222  249.4618  363.2641 LP  0  0  0  0  0  0  0  0  0  0  0  0  # atno 13538 bound_to 5545
  128.5548  250.1282  362.8517 LP  0  0  0  0  0  0  0  0  0  0  0  0  # atno 13539 bound_to 5545
  124.1768  251.6168  366.2815 LP  0  0  0  0  0  0  0  0  0  0  0  0  # atno 13551 bound_to 8500
  123.9319  250.1572  366.9716 LP  0  0  0  0  0  0  0  0  0  0  0  0  # atno 13552 bound_to 8500
  121.3402  254.6035  354.3610 LP  0  0  0  0  0  0  0  0  0  0  0  0  # atno 13567 bound_to 12876
  119.9232  255.3065  353.9554 LP  0  0  0  0  0  0  0  0  0  0  0  0  # atno 13568 bound_to 12876
  124.5109  249.6948  347.2222 LP  0  0  0  0  0  0  0  0  0  0  0  0  # atno 13569 bound_to 13433
  125.4593  250.7597  346.4266 LP  0  0  0  0  0  0  0  0  0  0  0  0  # atno 13570 bound_to 13433

> <Gold.Score>
     Fitness  S(hb_ext) S(vdw_ext)  S(hb_int)    S(int)      intcor
     51.58      10.75      30.48       0.00      -1.08      -0.76

> <Gold.Goldscore.Fitness>
51.5821

> <Gold.Goldscore.Internal.Vdw>
-1.3155

> <Gold.Goldscore.Internal.Torsion>
-0.5225

> <Gold.Goldscore.External.Vdw>
30.4846

> <Gold.Goldscore.Internal.HBond>
0.0000

> <Gold.Goldscore.External.HBond>
10.7453

> <Gold.Goldscore.Internal.Correction>
-0.7585

> <Gold.Goldscore.Hbonds>
donor molecule, donor type, donor heavy atom, donor atom, acceptor molecule, acceptor atom, score
      P1  H  8463  8486       L1    17  0.37
      P1  M 13308 13571       L1    11  1.00

> <Gold.Goldscore.Internal.Vdw.Weighted>
-1.3155

> <Gold.Goldscore.Internal.Torsion.Weighted>
-0.5225

> <Gold.Goldscore.External.Vdw.Weighted>
41.9163

> <Gold.Goldscore.Internal.HBond.Weighted>
0.0000

> <Gold.Goldscore.External.HBond.Weighted>
10.7453

> <Gold.Goldscore.Internal.Correction.Weighted>
-0.7585

> <Gold.Rescore>
     Score     S(PLP)   S(hbond)     S(cho)   S(metal)  DE(clash)   DE(tors)     intcor
     39.60     -35.80       0.00       0.00       1.00       2.04       0.08       ----

> <Gold.PLP.Fitness>
39.5985

> <Gold.PLP.PLP>
-35.8011

> <Gold.PLP.part.hbond>
-2.0000

> <Gold.PLP.part.metal>
-0.9769

> <Gold.PLP.part.buried>
15.5344

> <Gold.PLP.part.nonpolar>
-53.8020

> <Gold.PLP.part.repulsive>
4.7576

> <Gold.PLP.ligand.clash>
2.0422

> <Gold.PLP.ligand.torsion>
0.0802

> <Gold.PLP.Chemscore.Hbond>
0.0000

> <Gold.PLP.Chemscore.CHOScore>
0.0000

> <Gold.PLP.Chemscore.Metal>
1.0000

> <Gold.Chemscore.Hbonds>
donor molecule, donor type, donor heavy atom, donor atom, acceptor molecule, acceptor atom, score
      P1  M 13308 13308       L1    11  1.00

> <Gold.PLP.Chemscore.Internal.Correction>
   9.000000E+99

