@<TRIPOS>MOLECULE
F:ID
    27    28     1     0     1
SMALL
NO_CHARGES
****
Generated from the CSD

@<TRIPOS>ATOM
     1 CAA    -43.8851 -41.2710   1.9767   C.ar      1 7L9201   0.0000
     2 CAB    -42.8578 -40.8196   1.1649   C.ar      1 7L9201   0.0000
     3 CAC    -41.5424 -40.8109   1.6214   C.ar      1 7L9201   0.0000
     4 CAD    -41.2877 -41.2622   2.9153   C.ar      1 7L9201   0.0000
     5 CAE    -42.3101 -41.7195   3.7445   C.ar      1 7L9201   0.0000
     6 CAF    -43.6135 -41.7188   3.2585   C.ar      1 7L9201   0.0000
     7 CAG    -42.0087 -42.2065   5.1447   C.ar      1 7L9201   0.0000
     8 CAJ    -40.4202 -40.3226   0.7685   C.ar      1 7L9201   0.0000
     9 CAK    -39.4950 -39.4733   1.3742   C.ar      1 7L9201   0.0000
    10 CAL    -38.4596 -38.9186   0.6327   C.ar      1 7L9201   0.0000
    11 CAN    -39.1740 -40.0104  -1.2498   C.ar      1 7L9201   0.0000
    12 CAO    -40.2256 -40.6452  -0.5923   C.ar      1 7L9201   0.0000
    13 CAP    -41.0855 -41.6345  -1.3520   C.ar      1 7L9201   0.0000
    14 CAS    -37.4446 -38.0017   1.2792   C.ar      1 7L9201   0.0000
    15 NAM    -38.3116 -39.1639  -0.6792   N.ar      1 7L9201   0.0000
    16 OAH    -40.7367 -42.2011   5.6032   O.co2     1 7L9201   0.0000
    17 OAI    -43.0112 -42.6472   5.9377   O.co2     1 7L9201   0.0000
    18 OAQ    -41.2770 -41.4663  -2.6798   O.co2     1 7L9201   0.0000
    19 OAR    -41.6552 -42.6895  -0.7269   O.co2     1 7L9201   0.0000
    20 OAT    -36.4450 -37.4712   0.5395   O.co2     1 7L9201   0.0000
    21 OAU    -37.5373 -37.7128   2.5968   O.co2     1 7L9201   0.0000
    22 H1     -44.4234 -42.0716   3.8885   H         1 7L9201   0.0000
    23 H2     -44.9052 -41.2736   1.6073   H         1 7L9201   0.0000
    24 H3     -43.0803 -40.4691   0.1625   H         1 7L9201   0.0000
    25 H4     -40.2681 -41.2575   3.2861   H         1 7L9201   0.0000
    26 H5     -39.5868 -39.2410   2.4301   H         1 7L9201   0.0000
    27 H6     -39.0428 -40.2227  -2.3057   H         1 7L9201   0.0000
@<TRIPOS>BOND
     1     1     2   ar
     2     2     3   ar
     3     3     4   ar
     4     4     5   ar
     5     1     6   ar
     6     5     6   ar
     7     5     7    1
     8     3     8    1
     9     8     9   ar
    10     9    10   ar
    11     8    12   ar
    12    11    12   ar
    13    12    13    1
    14    10    14    1
    15    10    15   ar
    16    11    15   ar
    17     7    16   ar
    18     7    17   ar
    19    13    18   ar
    20    13    19   ar
    21    14    20   ar
    22    14    21   ar
    23     6    22    1
    24     1    23    1
    25     2    24    1
    26     4    25    1
    27     9    26    1
    28    11    27    1
@<TRIPOS>SUBSTRUCTURE
     1 7L9201      1 GROUP             0 F     7L9     0  
@<TRIPOS>SET
CCDC_LIGAND STATIC ATOMS
27 1 2 3 4 5 6 7 8 9 \
10 11 12 13 14 15 16 17 18 19 \
20 21 22 23 24 25 26 27 
