@<TRIPOS>MOLECULE
F:ID
    27    28     1     0     1
SMALL
NO_CHARGES
****
Generated from the CSD

@<TRIPOS>ATOM
     1 CAA    -43.8972 -41.1842   1.9928   C.ar      1 7L9201   0.0000
     2 CAB    -42.8643 -40.7452   1.1814   C.ar      1 7L9201   0.0000
     3 CAC    -41.5451 -40.7872   1.6246   C.ar      1 7L9201   0.0000
     4 CAD    -41.2921 -41.2764   2.9050   C.ar      1 7L9201   0.0000
     5 CAE    -42.3200 -41.7219   3.7337   C.ar      1 7L9201   0.0000
     6 CAF    -43.6273 -41.6702   3.2610   C.ar      1 7L9201   0.0000
     7 CAG    -42.0204 -42.2508   5.1190   C.ar      1 7L9201   0.0000
     8 CAJ    -40.4166 -40.3130   0.7719   C.ar      1 7L9201   0.0000
     9 CAK    -39.4975 -39.4513   1.3693   C.ar      1 7L9201   0.0000
    10 CAL    -38.4568 -38.9089   0.6261   C.ar      1 7L9201   0.0000
    11 CAN    -39.1545 -40.0363  -1.2417   C.ar      1 7L9201   0.0000
    12 CAO    -40.2106 -40.6604  -0.5811   C.ar      1 7L9201   0.0000
    13 CAP    -41.0630 -41.6649  -1.3293   C.ar      1 7L9201   0.0000
    14 CAS    -37.4483 -37.9788   1.2638   C.ar      1 7L9201   0.0000
    15 NAM    -38.2979 -39.1782  -0.6798   N.ar      1 7L9201   0.0000
    16 OAH    -40.7446 -42.2948   5.5645   O.co2     1 7L9201   0.0000
    17 OAI    -43.0284 -42.6795   5.9116   O.co2     1 7L9201   0.0000
    18 OAQ    -41.5167 -42.7629  -0.6840   O.co2     1 7L9201   0.0000
    19 OAR    -41.3875 -41.4759  -2.6283   O.co2     1 7L9201   0.0000
    20 OAT    -36.4440 -37.4597   0.5222   O.co2     1 7L9201   0.0000
    21 OAU    -37.5513 -37.6668   2.5753   O.co2     1 7L9201   0.0000
    22 H1     -44.9204 -41.1473   1.6339   H         1 7L9201   0.0000
    23 H2     -43.0855 -40.3645   0.1897   H         1 7L9201   0.0000
    24 H3     -40.2693 -41.3113   3.2653   H         1 7L9201   0.0000
    25 H4     -39.0144 -40.2678  -2.2924   H         1 7L9201   0.0000
    26 H5     -44.4416 -42.0131   3.8909   H         1 7L9201   0.0000
    27 H6     -39.5981 -39.1997   2.4199   H         1 7L9201   0.0000
@<TRIPOS>BOND
     1     1     2   ar
     2     2     3   ar
     3     3     4   ar
     4     4     5   ar
     5     1     6   ar
     6     5     6   ar
     7     5     7    1
     8     3     8    1
     9     8     9   ar
    10     9    10   ar
    11     8    12   ar
    12    11    12   ar
    13    12    13    1
    14    10    14    1
    15    10    15   ar
    16    11    15   ar
    17     7    16   ar
    18     7    17   ar
    19    13    18   ar
    20    13    19   ar
    21    14    20   ar
    22    14    21   ar
    23     1    22    1
    24     2    23    1
    25     4    24    1
    26    11    25    1
    27     6    26    1
    28     9    27    1
@<TRIPOS>SUBSTRUCTURE
     1 7L9201      1 GROUP             0 F     7L9     0  
@<TRIPOS>SET
CCDC_LIGAND STATIC ATOMS
27 1 2 3 4 5 6 7 8 9 \
10 11 12 13 14 15 16 17 18 19 \
20 21 22 23 24 25 26 27 
