@<TRIPOS>MOLECULE
00000001
    44    47     1     0     0
SMALL
USER_CHARGES
****
Generated from the CSD

@<TRIPOS>ATOM
     1 C1     -21.6300 -14.5024 -16.6848   C.2       1 noname  -0.0806
     2 C2     -22.5971 -14.1335 -17.5036   C.2       1 noname  -0.0779
     3 N1     -23.9047 -14.4832 -17.1894   N.am      1 noname   0.0248
     4 C3     -24.2253 -14.7074 -15.7859   C.3       1 noname   0.1485
     5 C4     -23.1588 -15.6113 -15.1611   C.2       1 noname   0.0779
     6 N2     -21.8929 -15.3568 -15.6010   N.am      1 noname   0.0223
     7 C5     -20.7497 -15.9871 -14.9200   C.3       1 noname   0.0144
     8 O1     -23.4148 -16.5093 -14.3814   O.2       1 noname  -0.2820
     9 C6     -24.1134 -13.4011 -14.9712   C.ar      1 noname   0.0167
    10 C7     -23.9273 -12.1716 -15.5846   C.ar      1 noname  -0.0133
    11 C8     -23.8398 -11.0442 -14.7859   C.ar      1 noname  -0.0379
    12 C9     -23.9393 -11.1703 -13.4165   C.ar      1 noname  -0.0260
    13 C10    -24.1249 -12.4315 -12.8942   C.ar      1 noname   0.0003
    14 N3     -24.2131 -13.5380 -13.6442   N.ar      1 noname  -0.2412
    15 C11    -20.3632 -15.2703 -13.6316   C.3       1 noname  -0.0142
    16 C12    -19.1896 -15.9338 -12.9510   C.ar      1 noname  -0.0544
    17 C13    -17.8889 -15.5634 -13.2584   C.ar      1 noname  -0.0569
    18 C14    -16.8123 -16.1738 -12.6364   C.ar      1 noname  -0.0605
    19 C15    -17.0233 -17.1633 -11.6993   C.ar      1 noname  -0.0616
    20 C16    -18.3116 -17.5419 -11.3853   C.ar      1 noname  -0.0605
    21 C17    -19.3877 -16.9310 -12.0077   C.ar      1 noname  -0.0569
    22 C18    -24.8985 -14.8704 -18.0508   C.2       1 noname   0.0696
    23 O2     -24.7294 -14.9996 -19.2636   O.2       1 noname  -0.2901
    24 C19    -25.6574 -15.2729 -15.8295   C.3       1 noname  -0.0112
    25 C20    -25.9411 -15.6016 -17.2696   C.3       1 noname   0.0244
    26 H1     -21.2212 -15.2664 -12.9480   H         1 noname  -0.0142
    27 H2     -20.1067 -14.2271 -13.8517   H         1 noname  -0.0142
    28 H3     -17.7126 -14.7863 -13.9948   H         1 noname  -0.0569
    29 H4     -15.8005 -15.8728 -12.8871   H         1 noname  -0.0605
    30 H5     -16.1801 -17.6415 -11.2118   H         1 noname  -0.0616
    31 H6     -18.4828 -18.3201 -10.6489   H         1 noname  -0.0605
    32 H7     -20.3976 -17.2362 -11.7543   H         1 noname  -0.0569
    33 H8     -19.8879 -15.9934 -15.5987   H         1 noname   0.0144
    34 H9     -20.9850 -17.0300 -14.6766   H         1 noname   0.0144
    35 H10    -23.8522 -12.0949 -16.6643   H         1 noname  -0.0133
    36 H11    -26.3665 -14.5307 -15.4659   H         1 noname  -0.0112
    37 H12    -25.7263 -16.1711 -15.2176   H         1 noname  -0.0112
    38 H13    -25.8630 -16.6744 -17.4390   H         1 noname   0.0244
    39 H14    -26.9369 -15.2614 -17.5499   H         1 noname   0.0244
    40 H15    -20.6165 -14.1403 -16.8512   H         1 noname  -0.0806
    41 H16    -22.3749 -13.5670 -18.4067   H         1 noname  -0.0779
    42 H17    -23.6937 -10.0673 -15.2348   H         1 noname  -0.0379
    43 H18    -23.8736 -10.3019 -12.7694   H         1 noname  -0.0260
    44 H19    -24.2038 -12.5341 -11.8169   H         1 noname   0.0003
@<TRIPOS>BOND
     1     1     2    2
     2     6     1    1
     3     2     3    1
     4     3     4    1
     5     3    22   am
     6     4     5    1
     7     4     9    1
     8     4    24    1
     9     5     6   am
    10     5     8    2
    11     6     7    1
    12     7    15    1
    13     9    10   ar
    14    14     9   ar
    15    10    11   ar
    16    11    12   ar
    17    12    13   ar
    18    13    14   ar
    19    15    16    1
    20    16    17   ar
    21    21    16   ar
    22    17    18   ar
    23    18    19   ar
    24    19    20   ar
    25    20    21   ar
    26    22    23    2
    27    25    22    1
    28    24    25    1
    29    15    26    1
    30    15    27    1
    31    17    28    1
    32    18    29    1
    33    19    30    1
    34    20    31    1
    35    21    32    1
    36     7    33    1
    37     7    34    1
    38    10    35    1
    39    24    36    1
    40    24    37    1
    41    25    38    1
    42    25    39    1
    43     1    40    1
    44     2    41    1
    45    11    42    1
    46    12    43    1
    47    13    44    1
@<TRIPOS>SUBSTRUCTURE
     1 noname      1 GROUP             0 ****  ****    0  
