@<TRIPOS>MOLECULE
00000001
    38    41     1     0     0
SMALL
USER_CHARGES
****
Generated from the CSD

@<TRIPOS>ATOM
     1 C1      -7.9620 -13.3859 -14.0484   C.2       1 noname  -0.0111
     2 C2      -9.0427 -13.8465 -13.4472   C.2       1 noname  -0.0624
     3 N1      -9.5668 -15.0646 -13.8609   N.am      1 noname   0.0259
     4 C3      -8.6557 -16.0166 -14.4826   C.3       1 noname   0.1489
     5 C4      -7.8130 -15.2956 -15.5378   C.2       1 noname   0.1550
     6 N2      -7.4351 -14.0354 -15.1772   N.am      1 noname  -0.1166
     7 O1      -7.5638 -15.7845 -16.6238   O.2       1 noname  -0.2620
     8 C5      -7.6106 -16.5330 -13.4708   C.ar      1 noname   0.0167
     9 C6      -7.6999 -16.2460 -12.1171   C.ar      1 noname  -0.0133
    10 C7      -6.7250 -16.7481 -11.2722   C.ar      1 noname  -0.0379
    11 C8      -5.7018 -17.5127 -11.7912   C.ar      1 noname  -0.0260
    12 C9      -5.6937 -17.7481 -13.1485   C.ar      1 noname   0.0003
    13 N3      -6.6243 -17.2745 -13.9877   N.ar      1 noname  -0.2412
    14 C10     -6.4514 -13.3036 -15.9501   C.ar      1 noname  -0.0140
    15 C11     -5.2202 -12.9366 -15.4125   C.ar      1 noname  -0.0201
    16 C12     -4.2846 -12.2546 -16.1705   C.ar      1 noname  -0.0181
    17 C13     -4.5856 -11.9170 -17.4710   C.ar      1 noname  -0.0097
    18 C14     -5.8012 -12.2493 -18.0258   C.ar      1 noname  -0.0181
    19 C15     -6.7274 -12.9416 -17.2658   C.ar      1 noname  -0.0201
    20 C16    -10.8882 -15.4141 -13.9688   C.2       1 noname   0.0697
    21 O2     -11.8140 -14.6355 -13.7383   O.2       1 noname  -0.2900
    22 C17     -9.5923 -17.1224 -15.0047   C.3       1 noname  -0.0112
    23 C18    -10.9919 -16.5821 -14.8948   C.3       1 noname   0.0244
    24 Cl1     -3.4124 -11.0567 -18.4275   Cl        1 noname  -0.0849
    25 H1      -4.8899 -18.3496 -13.5601   H         1 noname   0.0003
    26 H2      -4.9828 -13.1792 -14.3828   H         1 noname  -0.0201
    27 H3      -3.3237 -11.9869 -15.7435   H         1 noname  -0.0181
    28 H4      -6.0302 -11.9719 -19.0495   H         1 noname  -0.0181
    29 H5      -7.6803 -13.2046 -17.7128   H         1 noname  -0.0201
    30 H6      -8.5140 -15.6425 -11.7295   H         1 noname  -0.0133
    31 H7      -6.7659 -16.5412 -10.2079   H         1 noname  -0.0379
    32 H8      -4.9260 -17.9172 -11.1495   H         1 noname  -0.0260
    33 H9      -7.4729 -12.4917 -13.6651   H         1 noname  -0.0111
    34 H10     -9.5139 -13.2831 -12.6431   H         1 noname  -0.0624
    35 H11     -9.4873 -18.0215 -14.3994   H         1 noname  -0.0112
    36 H12     -9.3589 -17.3543 -16.0428   H         1 noname  -0.0112
    37 H13    -11.3567 -16.2648 -15.8706   H         1 noname   0.0244
    38 H14    -11.6615 -17.3365 -14.4846   H         1 noname   0.0244
@<TRIPOS>BOND
     1     1     2    2
     2     6     1    1
     3     2     3    1
     4     3     4    1
     5     3    20   am
     6     4     5    1
     7     4     8    1
     8     4    22    1
     9     5     6   am
    10     5     7    2
    11    14     6    1
    12     8     9   ar
    13    13     8   ar
    14     9    10   ar
    15    10    11   ar
    16    11    12   ar
    17    12    13   ar
    18    14    15   ar
    19    19    14   ar
    20    15    16   ar
    21    16    17   ar
    22    17    18   ar
    23    17    24    1
    24    18    19   ar
    25    20    21    2
    26    23    20    1
    27    22    23    1
    28    12    25    1
    29    15    26    1
    30    16    27    1
    31    18    28    1
    32    19    29    1
    33     9    30    1
    34    10    31    1
    35    11    32    1
    36     1    33    1
    37     2    34    1
    38    22    35    1
    39    22    36    1
    40    23    37    1
    41    23    38    1
@<TRIPOS>SUBSTRUCTURE
     1 noname      1 GROUP             0 ****  ****    0  
