@<TRIPOS>MOLECULE
00000001
    30    31     1     0     0
SMALL
USER_CHARGES
****
Generated from the CSD

@<TRIPOS>ATOM
     1 C1      -3.3678  -1.9534  -1.1444   C.2       1 noname   0.1635
     2 N1      -3.2109  -1.4553   0.1359   N.am      1 noname  -0.2225
     3 C2      -2.0382  -1.1212   0.7612   C.2       1 noname   0.2098
     4 C3      -0.7244  -1.3482   0.0133   C.3       1 noname   0.1150
     5 C4      -0.9520  -1.8532  -1.4119   C.2       1 noname   0.0067
     6 C5      -2.1765  -2.1229  -1.9060   C.2       1 noname   0.0922
     7 O1       0.1491  -2.0090  -2.1164   O.3       1 noname  -0.2878
     8 O2      -4.5100  -2.2111  -1.5490   O.2       1 noname  -0.2627
     9 O3      -2.0742  -0.6444   1.8888   O.2       1 noname  -0.2565
    10 C6       0.0887  -2.4478   0.7442   C.3       1 noname  -0.0318
    11 C7       0.0044   0.0121  -0.0330   C.ar      1 noname  -0.0457
    12 C8      -0.7068   1.1936  -0.2244   C.ar      1 noname  -0.0513
    13 C9      -0.0626   2.4194  -0.2516   C.ar      1 noname  -0.0590
    14 C10      1.3053   2.4887  -0.0952   C.ar      1 noname  -0.0613
    15 C11      2.0288   1.3294   0.0856   C.ar      1 noname  -0.0590
    16 C12      1.3861   0.1028   0.1144   C.ar      1 noname  -0.0513
    17 C13      0.4648  -2.1638   2.1918   C.3       1 noname  -0.0636
    18 H1      -4.0661  -1.3115   0.6728   H         1 noname  -0.2225
    19 H2      -2.2580  -2.4839  -2.9259   H         1 noname   0.0922
    20 H3       0.9597  -1.7771  -1.6010   H         1 noname  -0.2878
    21 H4       1.0155  -2.6174   0.1827   H         1 noname  -0.0318
    22 H5      -0.4864  -3.3814   0.7142   H         1 noname  -0.0318
    23 H6      -1.7831   1.1618  -0.3570   H         1 noname  -0.0513
    24 H7      -0.6366   3.3286  -0.3968   H         1 noname  -0.0590
    25 H8       1.8091   3.4494  -0.1149   H         1 noname  -0.0613
    26 H9       3.1061   1.3780   0.2059   H         1 noname  -0.0590
    27 H10      1.9758  -0.7968   0.2537   H         1 noname  -0.0513
    28 H11     -0.4201  -2.0807   2.8183   H         1 noname  -0.0636
    29 H12      1.0780  -2.9694   2.5900   H         1 noname  -0.0636
    30 H13      1.0299  -1.2385   2.2771   H         1 noname  -0.0636
@<TRIPOS>BOND
     1     1     2   am
     2     1     6    1
     3     1     8    2
     4     2     3   am
     5     4     3    1
     6     3     9    2
     7     4     5    1
     8     4    10    1
     9     4    11    1
    10     5     6    2
    11     5     7    1
    12    10    17    1
    13    11    12   ar
    14    11    16   ar
    15    12    13   ar
    16    13    14   ar
    17    14    15   ar
    18    15    16   ar
    19     2    18    1
    20     6    19    1
    21     7    20    1
    22    10    21    1
    23    10    22    1
    24    12    23    1
    25    13    24    1
    26    14    25    1
    27    15    26    1
    28    16    27    1
    29    17    28    1
    30    17    29    1
    31    17    30    1
@<TRIPOS>SUBSTRUCTURE
     1 noname      1 GROUP             0 ****  ****    0  
