@<TRIPOS>MOLECULE
00000001
    30    31     1     0     0
SMALL
USER_CHARGES
****
Generated from the CSD

@<TRIPOS>ATOM
     1 C1      -3.2937  -2.0587  -0.8912   C.2       1 noname   0.1635
     2 N1      -3.1560  -1.3541   0.3165   N.am      1 noname  -0.2225
     3 C2      -1.9544  -0.9622   0.8501   C.2       1 noname   0.2098
     4 C3      -0.6662  -1.2113   0.0798   C.3       1 noname   0.1150
     5 C4      -0.8674  -1.7774  -1.2993   C.2       1 noname   0.0067
     6 C5      -2.0832  -2.1619  -1.7074   C.2       1 noname   0.0922
     7 O1       0.2022  -1.8751  -2.0607   O.3       1 noname  -0.2878
     8 O2      -4.4013  -2.5293  -1.1851   O.2       1 noname  -0.2627
     9 O3      -1.9658  -0.4076   1.9421   O.2       1 noname  -0.2565
    10 C6       0.1666  -2.2564   0.8663   C.3       1 noname  -0.0318
    11 C7       0.0311   0.1623  -0.0245   C.ar      1 noname  -0.0457
    12 C8       1.2159   0.4122   0.6627   C.ar      1 noname  -0.0513
    13 C9       1.8560   1.6363   0.5622   C.ar      1 noname  -0.0590
    14 C10      1.3217   2.6373  -0.2206   C.ar      1 noname  -0.0613
    15 C11      0.1441   2.4132  -0.9012   C.ar      1 noname  -0.0590
    16 C12     -0.4967   1.1891  -0.8030   C.ar      1 noname  -0.0513
    17 C13     -0.4493  -3.6405   1.0164   C.3       1 noname  -0.0636
    18 H1      -4.0009  -1.1197   0.8277   H         1 noname  -0.2225
    19 H2      -2.1774  -2.5775  -2.7096   H         1 noname   0.0922
    20 H3       1.0341  -1.6775  -1.5653   H         1 noname  -0.2878
    21 H4       0.3512  -1.8593   1.8719   H         1 noname  -0.0318
    22 H5       1.1410  -2.3642   0.3741   H         1 noname  -0.0318
    23 H6       1.6502  -0.3588   1.2904   H         1 noname  -0.0513
    24 H7       2.7813   1.8083   1.1021   H         1 noname  -0.0590
    25 H8       1.8245   3.5954  -0.3002   H         1 noname  -0.0613
    26 H9      -0.2825   3.1987  -1.5162   H         1 noname  -0.0590
    27 H10     -1.4245   1.0363  -1.3438   H         1 noname  -0.0513
    28 H11     -0.5676  -4.1245   0.0499   H         1 noname  -0.0636
    29 H12      0.1875  -4.2753   1.6288   H         1 noname  -0.0636
    30 H13     -1.4260  -3.5871   1.4917   H         1 noname  -0.0636
@<TRIPOS>BOND
     1     1     2   am
     2     1     6    1
     3     1     8    2
     4     2     3   am
     5     4     3    1
     6     3     9    2
     7     4     5    1
     8     4    10    1
     9     4    11    1
    10     5     6    2
    11     5     7    1
    12    10    17    1
    13    11    12   ar
    14    11    16   ar
    15    12    13   ar
    16    13    14   ar
    17    14    15   ar
    18    15    16   ar
    19     2    18    1
    20     6    19    1
    21     7    20    1
    22    10    21    1
    23    10    22    1
    24    12    23    1
    25    13    24    1
    26    14    25    1
    27    15    26    1
    28    16    27    1
    29    17    28    1
    30    17    29    1
    31    17    30    1
@<TRIPOS>SUBSTRUCTURE
     1 noname      1 GROUP             0 ****  ****    0  
