@<TRIPOS>MOLECULE
00000001
    38    41     1     0     0
SMALL
USER_CHARGES
****
Generated from the CSD

@<TRIPOS>ATOM
     1 C1      -8.2866 -13.1422 -14.6449   C.2       1 noname  -0.0111
     2 C2      -9.3302 -13.6925 -14.0241   C.2       1 noname  -0.0624
     3 N1      -9.5730 -15.0433 -14.0918   N.am      1 noname   0.0259
     4 C3      -8.5530 -15.9594 -14.6382   C.3       1 noname   0.1489
     5 C4      -7.5652 -15.2598 -15.5763   C.2       1 noname   0.1550
     6 N2      -7.4245 -13.8763 -15.4387   N.am      1 noname  -0.1166
     7 O1      -6.9522 -15.9356 -16.3800   O.2       1 noname  -0.2620
     8 C5      -7.7312 -16.5408 -13.4757   C.ar      1 noname   0.0167
     9 C6      -7.5802 -15.8617 -12.2761   C.ar      1 noname  -0.0133
    10 C7      -6.8274 -16.4525 -11.2757   C.ar      1 noname  -0.0379
    11 C8      -6.2537 -17.6870 -11.4939   C.ar      1 noname  -0.0260
    12 C9      -6.4576 -18.2889 -12.7161   C.ar      1 noname   0.0003
    13 N3      -7.1814 -17.7394 -13.7005   N.ar      1 noname  -0.2412
    14 C10     -6.4019 -13.1379 -16.1527   C.ar      1 noname  -0.0140
    15 C11     -5.1690 -13.7055 -16.4643   C.ar      1 noname  -0.0201
    16 C12     -4.2108 -12.9927 -17.1633   C.ar      1 noname  -0.0181
    17 C13     -4.4752 -11.6947 -17.5389   C.ar      1 noname  -0.0097
    18 C14     -5.6775 -11.0989 -17.2299   C.ar      1 noname  -0.0181
    19 C15     -6.6356 -11.8215 -16.5409   C.ar      1 noname  -0.0201
    20 C16    -10.6871 -15.7380 -13.6655   C.2       1 noname   0.0697
    21 O2     -11.6636 -15.2507 -13.1128   O.2       1 noname  -0.2900
    22 C17     -9.5054 -17.0135 -15.2346   C.3       1 noname  -0.0112
    23 C18    -10.4471 -17.1774 -14.0455   C.3       1 noname   0.0244
    24 Cl1     -3.2715 -10.7933 -18.4164   Cl        1 noname  -0.0849
    25 H1      -6.0076 -19.2606 -12.8910   H         1 noname   0.0003
    26 H2      -8.0409 -14.8911 -12.1252   H         1 noname  -0.0133
    27 H3      -9.0011 -17.9450 -15.5198   H         1 noname  -0.0112
    28 H4     -10.0346 -16.6183 -16.1106   H         1 noname  -0.0112
    29 H5     -11.3718 -17.6972 -14.3247   H         1 noname   0.0244
    30 H6      -9.9804 -17.7337 -13.2234   H         1 noname   0.0244
    31 H7      -8.1389 -12.0731 -14.5371   H         1 noname  -0.0111
    32 H8     -10.0127 -13.0571 -13.4695   H         1 noname  -0.0624
    33 H9      -4.9436 -14.7196 -16.1540   H         1 noname  -0.0201
    34 H10     -3.2595 -13.4518 -17.4117   H         1 noname  -0.0181
    35 H11     -5.8722 -10.0730 -17.5249   H         1 noname  -0.0181
    36 H12     -7.5823 -11.3462 -16.3069   H         1 noname  -0.0201
    37 H13     -6.6897 -15.9469 -10.3256   H         1 noname  -0.0379
    38 H14     -5.6592 -18.1703 -10.7255   H         1 noname  -0.0260
@<TRIPOS>BOND
     1     1     2    2
     2     6     1    1
     3     2     3    1
     4     3     4    1
     5     3    20   am
     6     4     5    1
     7     4     8    1
     8     4    22    1
     9     5     6   am
    10     5     7    2
    11    14     6    1
    12     8     9   ar
    13    13     8   ar
    14     9    10   ar
    15    10    11   ar
    16    11    12   ar
    17    12    13   ar
    18    14    15   ar
    19    19    14   ar
    20    15    16   ar
    21    16    17   ar
    22    17    18   ar
    23    17    24    1
    24    18    19   ar
    25    20    21    2
    26    23    20    1
    27    22    23    1
    28    12    25    1
    29     9    26    1
    30    22    27    1
    31    22    28    1
    32    23    29    1
    33    23    30    1
    34     1    31    1
    35     2    32    1
    36    15    33    1
    37    16    34    1
    38    18    35    1
    39    19    36    1
    40    10    37    1
    41    11    38    1
@<TRIPOS>SUBSTRUCTURE
     1 noname      1 GROUP             0 ****  ****    0  
