@<TRIPOS>MOLECULE
00000001
    44    47     1     0     0
SMALL
USER_CHARGES
****
Generated from the CSD

@<TRIPOS>ATOM
     1 C1     -21.5772 -15.3045 -16.4442   C.2       1 noname  -0.0806
     2 C2     -22.4373 -14.8635 -17.3603   C.2       1 noname  -0.0779
     3 N1     -23.7700 -14.7254 -17.0510   N.am      1 noname   0.0248
     4 C3     -24.2277 -14.8181 -15.6486   C.3       1 noname   0.1485
     5 C4     -23.2524 -15.5816 -14.7456   C.2       1 noname   0.0779
     6 N2     -21.9595 -15.6858 -15.1881   N.am      1 noname   0.0223
     7 C5     -20.9470 -16.2809 -14.3001   C.3       1 noname   0.0144
     8 O1     -23.6391 -16.0372 -13.6868   O.2       1 noname  -0.2820
     9 C6     -24.3436 -13.3978 -15.0705   C.ar      1 noname   0.0167
    10 C7     -23.4630 -12.3889 -15.4301   C.ar      1 noname  -0.0133
    11 C8     -23.6343 -11.1350 -14.8689   C.ar      1 noname  -0.0379
    12 C9     -24.6645 -10.9227 -13.9776   C.ar      1 noname  -0.0260
    13 C10    -25.4917 -11.9831 -13.6795   C.ar      1 noname   0.0003
    14 N3     -25.3481 -13.2057 -14.2083   N.ar      1 noname  -0.2412
    15 C11    -19.6563 -15.4717 -14.2525   C.3       1 noname  -0.0142
    16 C12    -18.6453 -16.0832 -13.3118   C.ar      1 noname  -0.0544
    17 C13    -18.4814 -17.4587 -13.2431   C.ar      1 noname  -0.0569
    18 C14    -17.5562 -18.0199 -12.3784   C.ar      1 noname  -0.0605
    19 C15    -16.7837 -17.2120 -11.5707   C.ar      1 noname  -0.0616
    20 C16    -16.9376 -15.8428 -11.6284   C.ar      1 noname  -0.0605
    21 C17    -17.8629 -15.2823 -12.4933   C.ar      1 noname  -0.0569
    22 C18    -24.8263 -14.4661 -17.9010   C.2       1 noname   0.0696
    23 O2     -24.7418 -14.2733 -19.1060   O.2       1 noname  -0.2901
    24 C19    -25.6168 -15.4286 -15.9162   C.3       1 noname  -0.0112
    25 C20    -26.0658 -14.5024 -17.0429   C.3       1 noname   0.0244
    26 H1     -26.9347 -14.9035 -17.5792   H         1 noname   0.0244
    27 H2     -26.3268 -13.5019 -16.6768   H         1 noname   0.0244
    28 H3     -22.0882 -14.6346 -18.3617   H         1 noname  -0.0779
    29 H4     -16.3323 -15.2031 -10.9947   H         1 noname  -0.0605
    30 H5     -17.9770 -14.2040 -12.5310   H         1 noname  -0.0569
    31 H6     -20.7202 -17.2969 -14.6463   H         1 noname   0.0144
    32 H7     -21.3413 -16.3608 -13.2801   H         1 noname   0.0144
    33 H8     -26.2802 -15.4017 -15.0429   H         1 noname  -0.0112
    34 H9     -25.5333 -16.4663 -16.2621   H         1 noname  -0.0112
    35 H10    -22.6592 -12.5776 -16.1340   H         1 noname  -0.0133
    36 H11    -22.9618 -10.3242 -15.1290   H         1 noname  -0.0379
    37 H12    -20.5329 -15.3953 -16.7220   H         1 noname  -0.0806
    38 H13    -19.8817 -14.4495 -13.9242   H         1 noname  -0.0142
    39 H14    -19.2205 -15.4115 -15.2569   H         1 noname  -0.0142
    40 H15    -24.8191  -9.9491 -13.5243   H         1 noname  -0.0260
    41 H16    -26.3036 -11.8194 -12.9786   H         1 noname   0.0003
    42 H17    -17.4391 -19.0977 -12.3364   H         1 noname  -0.0605
    43 H18    -16.0587 -17.6514 -10.8935   H         1 noname  -0.0616
    44 H19    -19.0849 -18.1027 -13.8742   H         1 noname  -0.0569
@<TRIPOS>BOND
     1     1     2    2
     2     6     1    1
     3     2     3    1
     4     3     4    1
     5     3    22   am
     6     4     5    1
     7     4     9    1
     8     4    24    1
     9     5     6   am
    10     5     8    2
    11     6     7    1
    12     7    15    1
    13     9    10   ar
    14    14     9   ar
    15    10    11   ar
    16    11    12   ar
    17    12    13   ar
    18    13    14   ar
    19    15    16    1
    20    16    17   ar
    21    21    16   ar
    22    17    18   ar
    23    18    19   ar
    24    19    20   ar
    25    20    21   ar
    26    22    23    2
    27    25    22    1
    28    24    25    1
    29    25    26    1
    30    25    27    1
    31     2    28    1
    32    20    29    1
    33    21    30    1
    34     7    31    1
    35     7    32    1
    36    24    33    1
    37    24    34    1
    38    10    35    1
    39    11    36    1
    40     1    37    1
    41    15    38    1
    42    15    39    1
    43    12    40    1
    44    13    41    1
    45    18    42    1
    46    19    43    1
    47    17    44    1
@<TRIPOS>SUBSTRUCTURE
     1 noname      1 GROUP             0 ****  ****    0  
