#       Name:                CT1002167954
#       Creating user name   hitesit
#       Creation time:       Sun Apr 16 20:15:44 2023


#       File generated by GOLD software.
#

@<TRIPOS>MOLECULE
CT1002167954|ligand_prepared|mol2|1|dock9
    29    30     1
SMALL
NO_CHARGES


@<TRIPOS>ATOM
      1 C1          26.1683   9.5326  -2.9860 C.3            1 RES1               0.0000
      2 C2          25.1974  10.4734  -2.2438 C.ar           1 RES1               0.0000
      3 C3          25.6879   9.4762  -4.4332 C.2            1 RES1               0.0000
      4 C4          27.5590  10.1337  -2.8151 C.2            1 RES1               0.0000
      5 C5          26.1974   8.0930  -2.4217 C.3            1 RES1               0.0000
      6 C6          24.4961  11.4568  -2.9351 C.ar           1 RES1               0.0000
      7 C7          24.9908  10.3685  -0.8708 C.ar           1 RES1               0.0000
      8 N8          26.4197  10.1468  -5.3684 N.am           1 RES1               0.0000
      9 O9          24.6608   8.8852  -4.7430 O.2            1 RES1               0.0000
     10 N10         28.1995  10.5986  -3.9338 N.am           1 RES1               0.0000
     11 O11         28.0991  10.2241  -1.7195 O.2            1 RES1               0.0000
     12 C12         26.9455   7.1044  -3.3020 C.3            1 RES1               0.0000
     13 C13         23.6179  12.3028  -2.2783 C.ar           1 RES1               0.0000
     14 C14         24.1122  11.2157  -0.2159 C.ar           1 RES1               0.0000
     15 C15         27.6803  10.6604  -5.1982 C.2            1 RES1               0.0000
     16 C16         23.4251  12.1825  -0.9185 C.ar           1 RES1               0.0000
     17 O17         28.2976  11.1427  -6.1434 O.2            1 RES1               0.0000
     18 H18         26.6692   8.1114  -1.4315 H              1 RES1               0.0000
     19 H19         25.1656   7.7425  -2.2950 H              1 RES1               0.0000
     20 H20         24.6368  11.5680  -4.0051 H              1 RES1               0.0000
     21 H21         25.5214   9.6159  -0.2975 H              1 RES1               0.0000
     22 H22         25.9899  10.2788  -6.2785 H              1 RES1               0.0000
     23 H23         29.1516  10.9290  -3.8127 H              1 RES1               0.0000
     24 H24         26.9356   6.1102  -2.8601 H              1 RES1               0.0000
     25 H25         26.4878   7.0419  -4.2871 H              1 RES1               0.0000
     26 H26         27.9824   7.4086  -3.4287 H              1 RES1               0.0000
     27 H27         23.0806  13.0629  -2.8356 H              1 RES1               0.0000
     28 H28         23.9640  11.1179   0.8544 H              1 RES1               0.0000
     29 H29         22.7368  12.8451  -0.4043 H              1 RES1               0.0000
@<TRIPOS>BOND
    1    1    2 1     
    2    1    3 1     
    3    1    4 1     
    4    1    5 1     
    5    2    6 ar    
    6    2    7 ar    
    7    3    8 1     
    8    3    9 2     
    9    4   10 1     
   10    4   11 2     
   11    5   12 1     
   12    5   18 1     
   13    5   19 1     
   14    6   13 ar    
   15    6   20 1     
   16    7   14 ar    
   17    7   21 1     
   18    8   15 1     
   19    8   22 1     
   20   10   15 1     
   21   10   23 1     
   22   12   24 1     
   23   12   25 1     
   24   12   26 1     
   25   13   16 ar    
   26   13   27 1     
   27   14   16 ar    
   28   14   28 1     
   29   15   17 2     
   30   16   29 1     
@<TRIPOS>SUBSTRUCTURE
      1 RES1           1
@<TRIPOS>SET
DONOR_HYDROGENS      STATIC     ATOMS    <user>   **** ""
2 22 23
ATOM$RED        STATIC     ATOMS    COLORGROUP SYSTEM
2 22 23
@<TRIPOS>COMMENT
> <Gold.Version>
2022.3.0

> <Gold.Id.Protein>
unknown|3oog_clean|pdb

> <Gold.Protein.RotatedTorsions>
[ 2749 2742 2740 2737 ] final  -95.57 input   59.98 | X-H torsion
[ 1741 1732 1731 1729 ] final -138.02 input   60.02 | X-H torsion
[ 2430 2423 2422 2420 ] final   89.26 input   60.03 | X-H torsion
[ 4996 4987 4986 4984 ] final   71.94 input   60.02 | X-H torsion

> <Gold.Protein.ActiveResidues>
 LEU49   GLY50   THR51   ARG56   VAL57   MET58   LEU59   HIS68   TYR69   ALA70  
 MET71   LYS72   LEU74   GLU91   LEU95   VAL104  LYS105  LEU106  MET118  VAL119 
 MET120  GLU121  TYR122  VAL123  PRO124  GLY125  GLY126  GLU127  TYR164  GLU170 
 ASN171  LEU172  LEU173  ILE174  ASP175  GLN181  VAL182  THR183  ASP184  PHE185 
 GLY186  THR324  PHE327  TYR330 

> <Gold.Protein.RotatedAtoms>
   35.3418   11.6881  -10.9835 H   0  0  0  0  0  0  0  0  0  0  0  0  # atno 1741 bound_to 1732
   27.1851    2.2142    2.5385 H   0  0  0  0  0  0  0  0  0  0  0  0  # atno 2430 bound_to 2423
   28.6788    5.7627   -1.2570 H   0  0  0  0  0  0  0  0  0  0  0  0  # atno 2749 bound_to 2742
   23.1928   10.4290   -8.5615 H   0  0  0  0  0  0  0  0  0  0  0  0  # atno 4996 bound_to 4987
   27.9463    7.1630   -0.8677 LP  0  0  0  0  0  0  0  0  0  0  0  0  # atno 5321 bound_to 2742
   27.6759    5.8217    0.0236 LP  0  0  0  0  0  0  0  0  0  0  0  0  # atno 5322 bound_to 2742
   34.4894   13.0619  -10.7987 LP  0  0  0  0  0  0  0  0  0  0  0  0  # atno 5347 bound_to 1732
   33.8401   11.6294  -10.3596 LP  0  0  0  0  0  0  0  0  0  0  0  0  # atno 5348 bound_to 1732

> <Gold.Score>
     Fitness  S(hb_ext) S(vdw_ext)  S(hb_int)    S(int)      intcor
     32.74       0.00      24.45       0.00      -0.88      -0.76

> <Gold.Goldscore.Fitness>
32.7380

> <Gold.Goldscore.Internal.Vdw>
-1.0836

> <Gold.Goldscore.Internal.Torsion>
-0.5566

> <Gold.Goldscore.External.Vdw>
24.4459

> <Gold.Goldscore.Internal.HBond>
0.0000

> <Gold.Goldscore.External.HBond>
0.0000

> <Gold.Goldscore.Internal.Correction>
-0.7650

> <Gold.Goldscore.Internal.Vdw.Weighted>
-1.0836

> <Gold.Goldscore.Internal.Torsion.Weighted>
-0.5566

> <Gold.Goldscore.External.Vdw.Weighted>
33.6132

> <Gold.Goldscore.Internal.HBond.Weighted>
0.0000

> <Gold.Goldscore.External.HBond.Weighted>
0.0000

> <Gold.Goldscore.Internal.Correction.Weighted>
-0.7650

> <Gold.Rescore>
     Score     S(PLP)   S(hbond)     S(cho)   S(metal)  DE(clash)   DE(tors)     intcor
     28.07     -30.14       0.00       0.00       0.00       0.04       1.02       ----

> <Gold.PLP.Fitness>
28.0726

> <Gold.PLP.PLP>
-30.1434

> <Gold.PLP.part.hbond>
-0.4048

> <Gold.PLP.part.metal>
0.0000

> <Gold.PLP.part.buried>
-2.5106

> <Gold.PLP.part.nonpolar>
-27.6264

> <Gold.PLP.part.repulsive>
0.2805

> <Gold.PLP.ligand.clash>
0.0361

> <Gold.PLP.ligand.torsion>
1.0173

> <Gold.PLP.Chemscore.Hbond>
0.0000

> <Gold.PLP.Chemscore.CHOScore>
0.0000

> <Gold.PLP.Chemscore.Metal>
0.0000

> <Gold.Chemscore.Hbonds>
donor molecule, donor type, donor heavy atom, donor atom, acceptor molecule, acceptor atom, score
      L1  H     8    22       P1   503  0.14

> <Gold.PLP.Chemscore.Internal.Correction>
   9.000000E+99

