#       Name:                CT1002167954
#       Creating user name   hitesit
#       Creation time:       Sun Apr 16 20:15:46 2023


#       File generated by GOLD software.
#

@<TRIPOS>MOLECULE
CT1002167954|ligand_prepared|mol2|1|dock10
    29    30     1
SMALL
NO_CHARGES


@<TRIPOS>ATOM
      1 C1          25.9240   9.8082  -1.2167 C.3            1 RES1               0.0000
      2 C2          24.9259  10.9785  -1.3311 C.ar           1 RES1               0.0000
      3 C3          26.9550  10.0148  -2.3224 C.2            1 RES1               0.0000
      4 C4          26.5013   9.8761   0.1928 C.2            1 RES1               0.0000
      5 C5          25.2778   8.4155  -1.4018 C.3            1 RES1               0.0000
      6 C6          24.8946  11.9800  -0.3654 C.ar           1 RES1               0.0000
      7 C7          24.0338  11.0713  -2.3960 C.ar           1 RES1               0.0000
      8 N8          28.1956  10.4474  -1.9567 N.am           1 RES1               0.0000
      9 O9          26.6720   9.8389  -3.5011 O.2            1 RES1               0.0000
     10 N10         27.8352  10.1597   0.3274 N.am           1 RES1               0.0000
     11 O11         25.8096   9.7030   1.1887 O.2            1 RES1               0.0000
     12 C12         26.2508   7.2600  -1.2275 C.3            1 RES1               0.0000
     13 C13         24.0057  13.0378  -0.4622 C.ar           1 RES1               0.0000
     14 C14         23.1455  12.1299  -2.4908 C.ar           1 RES1               0.0000
     15 C15         28.7019  10.4787  -0.6822 C.2            1 RES1               0.0000
     16 C16         23.1310  13.1137  -1.5251 C.ar           1 RES1               0.0000
     17 O17         29.8753  10.7756  -0.4769 O.2            1 RES1               0.0000
     18 H18         24.4639   8.3045  -0.6747 H              1 RES1               0.0000
     19 H19         24.8400   8.3599  -2.4061 H              1 RES1               0.0000
     20 H20         25.5738  11.9359   0.4795 H              1 RES1               0.0000
     21 H21         24.0266  10.3083  -3.1669 H              1 RES1               0.0000
     22 H22         28.8030  10.7784  -2.6996 H              1 RES1               0.0000
     23 H23         28.2175  10.1301   1.2672 H              1 RES1               0.0000
     24 H24         25.7462   6.3064  -1.3677 H              1 RES1               0.0000
     25 H25         27.0602   7.3248  -1.9516 H              1 RES1               0.0000
     26 H26         26.6863   7.2696  -0.2305 H              1 RES1               0.0000
     27 H27         23.9974  13.8087   0.3012 H              1 RES1               0.0000
     28 H28         22.4584  12.1852  -3.3287 H              1 RES1               0.0000
     29 H29         22.4350  13.9426  -1.6009 H              1 RES1               0.0000
@<TRIPOS>BOND
    1    1    2 1     
    2    1    3 1     
    3    1    4 1     
    4    1    5 1     
    5    2    6 ar    
    6    2    7 ar    
    7    3    8 1     
    8    3    9 2     
    9    4   10 1     
   10    4   11 2     
   11    5   12 1     
   12    5   18 1     
   13    5   19 1     
   14    6   13 ar    
   15    6   20 1     
   16    7   14 ar    
   17    7   21 1     
   18    8   15 1     
   19    8   22 1     
   20   10   15 1     
   21   10   23 1     
   22   12   24 1     
   23   12   25 1     
   24   12   26 1     
   25   13   16 ar    
   26   13   27 1     
   27   14   16 ar    
   28   14   28 1     
   29   15   17 2     
   30   16   29 1     
@<TRIPOS>SUBSTRUCTURE
      1 RES1           1
@<TRIPOS>SET
DONOR_HYDROGENS      STATIC     ATOMS    <user>   **** ""
2 22 23
ATOM$RED        STATIC     ATOMS    COLORGROUP SYSTEM
2 22 23
@<TRIPOS>COMMENT
> <Gold.Version>
2022.3.0

> <Gold.Id.Protein>
unknown|3oog_clean|pdb

> <Gold.Protein.RotatedTorsions>
[ 2749 2742 2740 2737 ] final  -58.08 input   59.98 | X-H torsion
[ 1741 1732 1731 1729 ] final    1.48 input   60.02 | X-H torsion
[ 2430 2423 2422 2420 ] final   14.65 input   60.03 | X-H torsion
[ 4996 4987 4986 4984 ] final  -78.77 input   60.02 | X-H torsion

> <Gold.Protein.ActiveResidues>
 LEU49   GLY50   THR51   ARG56   VAL57   MET58   LEU59   HIS68   TYR69   ALA70  
 MET71   LYS72   LEU74   GLU91   LEU95   VAL104  LYS105  LEU106  MET118  VAL119 
 MET120  GLU121  TYR122  VAL123  PRO124  GLY125  GLY126  GLU127  TYR164  GLU170 
 ASN171  LEU172  LEU173  ILE174  ASP175  GLN181  VAL182  THR183  ASP184  PHE185 
 GLY186  THR324  PHE327  TYR330 

> <Gold.Protein.RotatedAtoms>
   33.7229   11.9249  -10.3440 H   0  0  0  0  0  0  0  0  0  0  0  0  # atno 1741 bound_to 1732
   26.9811    3.1600    3.1323 H   0  0  0  0  0  0  0  0  0  0  0  0  # atno 2430 bound_to 2423
   28.4654    5.3948   -0.8310 H   0  0  0  0  0  0  0  0  0  0  0  0  # atno 2749 bound_to 2742
   22.4792   10.0083  -10.1720 H   0  0  0  0  0  0  0  0  0  0  0  0  # atno 4996 bound_to 4987
   28.3315    6.9519   -1.2852 LP  0  0  0  0  0  0  0  0  0  0  0  0  # atno 5321 bound_to 2742
   27.5055    6.4031    0.0122 LP  0  0  0  0  0  0  0  0  0  0  0  0  # atno 5322 bound_to 2742
   35.1761   11.4340  -10.8873 LP  0  0  0  0  0  0  0  0  0  0  0  0  # atno 5347 bound_to 1732
   34.7837   13.0189  -10.9150 LP  0  0  0  0  0  0  0  0  0  0  0  0  # atno 5348 bound_to 1732

> <Gold.Score>
     Fitness  S(hb_ext) S(vdw_ext)  S(hb_int)    S(int)      intcor
     31.54       2.04      23.16       0.00      -2.35      -0.76

> <Gold.Goldscore.Fitness>
31.5388

> <Gold.Goldscore.Internal.Vdw>
-2.7361

> <Gold.Goldscore.Internal.Torsion>
-0.3774

> <Gold.Goldscore.External.Vdw>
23.1594

> <Gold.Goldscore.Internal.HBond>
0.0000

> <Gold.Goldscore.External.HBond>
2.0433

> <Gold.Goldscore.Internal.Correction>
-0.7650

> <Gold.Goldscore.Hbonds>
donor molecule, donor type, donor heavy atom, donor atom, acceptor molecule, acceptor atom, score
      P1  H   856   868       L1    11  0.34

> <Gold.Goldscore.Internal.Vdw.Weighted>
-2.7361

> <Gold.Goldscore.Internal.Torsion.Weighted>
-0.3774

> <Gold.Goldscore.External.Vdw.Weighted>
31.8441

> <Gold.Goldscore.Internal.HBond.Weighted>
0.0000

> <Gold.Goldscore.External.HBond.Weighted>
2.0433

> <Gold.Goldscore.Internal.Correction.Weighted>
-0.7650

> <Gold.Rescore>
     Score     S(PLP)   S(hbond)     S(cho)   S(metal)  DE(clash)   DE(tors)     intcor
     29.08     -28.54       1.00       0.00       0.00       1.87       0.30       ----

> <Gold.PLP.Fitness>
29.0795

> <Gold.PLP.PLP>
-28.5427

> <Gold.PLP.part.hbond>
-1.0000

> <Gold.PLP.part.metal>
0.0000

> <Gold.PLP.part.buried>
2.6292

> <Gold.PLP.part.nonpolar>
-30.6579

> <Gold.PLP.part.repulsive>
0.2382

> <Gold.PLP.ligand.clash>
1.8727

> <Gold.PLP.ligand.torsion>
0.2952

> <Gold.PLP.Chemscore.Hbond>
1.0000

> <Gold.PLP.Chemscore.CHOScore>
0.0000

> <Gold.PLP.Chemscore.Metal>
0.0000

> <Gold.Chemscore.Hbonds>
donor molecule, donor type, donor heavy atom, donor atom, acceptor molecule, acceptor atom, score
      P1  H   856   868       L1    11  0.94

> <Gold.PLP.Chemscore.Internal.Correction>
   9.000000E+99

