#       Name:                CT1002167954
#       Creating user name   hitesit
#       Creation time:       Sun Apr 16 20:15:37 2023


#       File generated by GOLD software.
#

@<TRIPOS>MOLECULE
CT1002167954|ligand_prepared|mol2|1|dock2
    29    30     1
SMALL
NO_CHARGES


@<TRIPOS>ATOM
      1 C1          27.0248   9.4886  -3.4633 C.3            1 RES1               0.0000
      2 C2          27.3334   9.6048  -1.9567 C.ar           1 RES1               0.0000
      3 C3          26.8891   7.9979  -3.7592 C.2            1 RES1               0.0000
      4 C4          25.7487  10.2886  -3.7004 C.2            1 RES1               0.0000
      5 C5          28.1303  10.0715  -4.3743 C.3            1 RES1               0.0000
      6 C6          28.6099   9.9451  -1.5189 C.ar           1 RES1               0.0000
      7 C7          26.3531   9.3777  -0.9944 C.ar           1 RES1               0.0000
      8 N8          25.6350   7.5088  -3.9782 N.am           1 RES1               0.0000
      9 O9          27.8634   7.2555  -3.7612 O.2            1 RES1               0.0000
     10 N10         24.6265   9.6064  -4.0915 N.am           1 RES1               0.0000
     11 O11         25.7006  11.5014  -3.5359 O.2            1 RES1               0.0000
     12 C12         27.7133  10.2148  -5.8295 C.3            1 RES1               0.0000
     13 C13         28.8953  10.0572  -0.1683 C.ar           1 RES1               0.0000
     14 C14         26.6407   9.4901   0.3558 C.ar           1 RES1               0.0000
     15 C15         24.5039   8.2489  -4.2114 C.2            1 RES1               0.0000
     16 C16         27.9110   9.8302   0.7699 C.ar           1 RES1               0.0000
     17 O17         23.4459   7.7051  -4.5151 O.2            1 RES1               0.0000
     18 H18         28.4199  11.0578  -3.9912 H              1 RES1               0.0000
     19 H19         29.0111   9.4197  -4.3220 H              1 RES1               0.0000
     20 H20         29.3979  10.1250  -2.2425 H              1 RES1               0.0000
     21 H21         25.3470   9.1078  -1.2970 H              1 RES1               0.0000
     22 H22         25.5284   6.4994  -3.9675 H              1 RES1               0.0000
     23 H23         23.8067  10.1620  -4.3140 H              1 RES1               0.0000
     24 H24         28.5251  10.6279  -6.4245 H              1 RES1               0.0000
     25 H25         27.4426   9.2486  -6.2501 H              1 RES1               0.0000
     26 H26         26.8549  10.8770  -5.9213 H              1 RES1               0.0000
     27 H27         29.8969  10.3238   0.1525 H              1 RES1               0.0000
     28 H28         25.8631   9.3100   1.0907 H              1 RES1               0.0000
     29 H29         28.1347   9.9185   1.8279 H              1 RES1               0.0000
@<TRIPOS>BOND
    1    1    2 1     
    2    1    3 1     
    3    1    4 1     
    4    1    5 1     
    5    2    6 ar    
    6    2    7 ar    
    7    3    8 1     
    8    3    9 2     
    9    4   10 1     
   10    4   11 2     
   11    5   12 1     
   12    5   18 1     
   13    5   19 1     
   14    6   13 ar    
   15    6   20 1     
   16    7   14 ar    
   17    7   21 1     
   18    8   15 1     
   19    8   22 1     
   20   10   15 1     
   21   10   23 1     
   22   12   24 1     
   23   12   25 1     
   24   12   26 1     
   25   13   16 ar    
   26   13   27 1     
   27   14   16 ar    
   28   14   28 1     
   29   15   17 2     
   30   16   29 1     
@<TRIPOS>SUBSTRUCTURE
      1 RES1           1
@<TRIPOS>SET
DONOR_HYDROGENS      STATIC     ATOMS    <user>   **** ""
2 22 23
ATOM$RED        STATIC     ATOMS    COLORGROUP SYSTEM
2 22 23
@<TRIPOS>COMMENT
> <Gold.Version>
2022.3.0

> <Gold.Id.Protein>
unknown|3oog_clean|pdb

> <Gold.Protein.RotatedTorsions>
[ 2749 2742 2740 2737 ] final -175.38 input   59.98 | X-H torsion
[ 1741 1732 1731 1729 ] final  145.67 input   60.02 | X-H torsion
[ 2430 2423 2422 2420 ] final   87.44 input   60.03 | X-H torsion
[ 4996 4987 4986 4984 ] final   93.51 input   60.02 | X-H torsion

> <Gold.Protein.ActiveResidues>
 LEU49   GLY50   THR51   ARG56   VAL57   MET58   LEU59   HIS68   TYR69   ALA70  
 MET71   LYS72   LEU74   GLU91   LEU95   VAL104  LYS105  LEU106  MET118  VAL119 
 MET120  GLU121  TYR122  VAL123  PRO124  GLY125  GLY126  GLU127  TYR164  GLU170 
 ASN171  LEU172  LEU173  ILE174  ASP175  GLN181  VAL182  THR183  ASP184  PHE185 
 GLY186  THR324  PHE327  TYR330 

> <Gold.Protein.RotatedAtoms>
   35.1065   12.8200  -11.0218 H   0  0  0  0  0  0  0  0  0  0  0  0  # atno 1741 bound_to 1732
   27.1981    2.2365    2.5531 H   0  0  0  0  0  0  0  0  0  0  0  0  # atno 2430 bound_to 2423
   28.3572    6.9196   -1.3023 H   0  0  0  0  0  0  0  0  0  0  0  0  # atno 2749 bound_to 2742
   22.8810   10.4596   -8.4049 H   0  0  0  0  0  0  0  0  0  0  0  0  # atno 4996 bound_to 4987
   27.5025    6.4453   -0.0009 LP  0  0  0  0  0  0  0  0  0  0  0  0  # atno 5321 bound_to 2742
   28.4434    5.3746   -0.7977 LP  0  0  0  0  0  0  0  0  0  0  0  0  # atno 5322 bound_to 2742
   33.6973   12.3161  -10.3828 LP  0  0  0  0  0  0  0  0  0  0  0  0  # atno 5347 bound_to 1732
   34.8692   11.2355  -10.7370 LP  0  0  0  0  0  0  0  0  0  0  0  0  # atno 5348 bound_to 1732

> <Gold.Score>
     Fitness  S(hb_ext) S(vdw_ext)  S(hb_int)    S(int)      intcor
     37.43       1.91      26.43       0.00      -0.83      -0.84

> <Gold.Goldscore.Fitness>
37.4264

> <Gold.Goldscore.Internal.Vdw>
-1.0934

> <Gold.Goldscore.Internal.Torsion>
-0.5752

> <Gold.Goldscore.External.Vdw>
26.4282

> <Gold.Goldscore.Internal.HBond>
0.0000

> <Gold.Goldscore.External.HBond>
1.9146

> <Gold.Goldscore.Internal.Correction>
-0.8416

> <Gold.Goldscore.Hbonds>
donor molecule, donor type, donor heavy atom, donor atom, acceptor molecule, acceptor atom, score
      P1  H  2742  2749       L1     9  0.03
      L1  H     8    22       P1  2527  0.92

> <Gold.Goldscore.Internal.Vdw.Weighted>
-1.0934

> <Gold.Goldscore.Internal.Torsion.Weighted>
-0.5752

> <Gold.Goldscore.External.Vdw.Weighted>
36.3388

> <Gold.Goldscore.Internal.HBond.Weighted>
0.0000

> <Gold.Goldscore.External.HBond.Weighted>
1.9146

> <Gold.Goldscore.Internal.Correction.Weighted>
-0.8416

> <Gold.Rescore>
     Score     S(PLP)   S(hbond)     S(cho)   S(metal)  DE(clash)   DE(tors)     intcor
     42.99     -37.80       1.86       0.00       0.00       0.00       0.20       ----

> <Gold.PLP.Fitness>
42.9942

> <Gold.PLP.PLP>
-37.7955

> <Gold.PLP.part.hbond>
-2.2684

> <Gold.PLP.part.metal>
0.0000

> <Gold.PLP.part.buried>
-2.9521

> <Gold.PLP.part.nonpolar>
-32.4729

> <Gold.PLP.part.repulsive>
0.4856

> <Gold.PLP.ligand.clash>
0.0000

> <Gold.PLP.ligand.torsion>
0.1967

> <Gold.PLP.Chemscore.Hbond>
1.8640

> <Gold.PLP.Chemscore.CHOScore>
0.0000

> <Gold.PLP.Chemscore.Metal>
0.0000

> <Gold.Chemscore.Hbonds>
donor molecule, donor type, donor heavy atom, donor atom, acceptor molecule, acceptor atom, score
      L1  H     8    22       P1  2527  1.00

> <Gold.PLP.Chemscore.Internal.Correction>
   9.000000E+99

