#       Name:                CT1002167954
#       Creating user name   hitesit
#       Creation time:       Sun Apr 16 20:15:43 2023


#       File generated by GOLD software.
#

@<TRIPOS>MOLECULE
CT1002167954|ligand_prepared|mol2|1|dock8
    29    30     1
SMALL
NO_CHARGES


@<TRIPOS>ATOM
      1 C1          26.4497   9.4519  -3.2893 C.3            1 RES1               0.0000
      2 C2          25.5043  10.3154  -2.4295 C.ar           1 RES1               0.0000
      3 C3          26.1833   9.8401  -4.7407 C.2            1 RES1               0.0000
      4 C4          27.8639   9.7628  -2.8117 C.2            1 RES1               0.0000
      5 C5          26.2178   7.9305  -3.1372 C.3            1 RES1               0.0000
      6 C6          25.4652  10.1616  -1.0469 C.ar           1 RES1               0.0000
      7 C7          24.6687  11.2700  -3.0032 C.ar           1 RES1               0.0000
      8 N8          27.1213  10.6013  -5.3736 N.am           1 RES1               0.0000
      9 O9          25.1475   9.5165  -5.3088 O.2            1 RES1               0.0000
     10 N10         28.7138  10.3885  -3.6858 N.am           1 RES1               0.0000
     11 O11         28.2447   9.4866  -1.6808 O.2            1 RES1               0.0000
     12 C12         27.2953   7.0779  -3.7885 C.3            1 RES1               0.0000
     13 C13         24.6236  10.9360  -0.2658 C.ar           1 RES1               0.0000
     14 C14         23.8276  12.0433  -2.2202 C.ar           1 RES1               0.0000
     15 C15         28.3970  10.8494  -4.9346 C.2            1 RES1               0.0000
     16 C16         23.8046  11.8776  -0.8518 C.ar           1 RES1               0.0000
     17 O17         29.2009  11.4514  -5.6406 O.2            1 RES1               0.0000
     18 H18         26.1713   7.6854  -2.0690 H              1 RES1               0.0000
     19 H19         25.2483   7.6749  -3.5824 H              1 RES1               0.0000
     20 H20         26.1007   9.4239  -0.5682 H              1 RES1               0.0000
     21 H21         24.6693  11.4169  -4.0779 H              1 RES1               0.0000
     22 H22         26.8491  11.0253  -6.2547 H              1 RES1               0.0000
     23 H23         29.6713  10.5229  -3.3770 H              1 RES1               0.0000
     24 H24         27.0843   6.0193  -3.6524 H              1 RES1               0.0000
     25 H25         27.3521   7.2775  -4.8565 H              1 RES1               0.0000
     26 H26         28.2696   7.2880  -3.3521 H              1 RES1               0.0000
     27 H27         24.6082  10.8008   0.8107 H              1 RES1               0.0000
     28 H28         23.1844  12.7827  -2.6858 H              1 RES1               0.0000
     29 H29         23.1456  12.4844  -0.2396 H              1 RES1               0.0000
@<TRIPOS>BOND
    1    1    2 1     
    2    1    3 1     
    3    1    4 1     
    4    1    5 1     
    5    2    6 ar    
    6    2    7 ar    
    7    3    8 1     
    8    3    9 2     
    9    4   10 1     
   10    4   11 2     
   11    5   12 1     
   12    5   18 1     
   13    5   19 1     
   14    6   13 ar    
   15    6   20 1     
   16    7   14 ar    
   17    7   21 1     
   18    8   15 1     
   19    8   22 1     
   20   10   15 1     
   21   10   23 1     
   22   12   24 1     
   23   12   25 1     
   24   12   26 1     
   25   13   16 ar    
   26   13   27 1     
   27   14   16 ar    
   28   14   28 1     
   29   15   17 2     
   30   16   29 1     
@<TRIPOS>SUBSTRUCTURE
      1 RES1           1
@<TRIPOS>SET
DONOR_HYDROGENS      STATIC     ATOMS    <user>   **** ""
2 22 23
ATOM$RED        STATIC     ATOMS    COLORGROUP SYSTEM
2 22 23
@<TRIPOS>COMMENT
> <Gold.Version>
2022.3.0

> <Gold.Id.Protein>
unknown|3oog_clean|pdb

> <Gold.Protein.RotatedTorsions>
[ 2749 2742 2740 2737 ] final  161.49 input   59.98 | X-H torsion
[ 1741 1732 1731 1729 ] final   80.85 input   60.02 | X-H torsion
[ 2430 2423 2422 2420 ] final  -50.02 input   60.03 | X-H torsion
[ 4996 4987 4986 4984 ] final   64.02 input   60.02 | X-H torsion

> <Gold.Protein.ActiveResidues>
 LEU49   GLY50   THR51   ARG56   VAL57   MET58   LEU59   HIS68   TYR69   ALA70  
 MET71   LYS72   LEU74   GLU91   LEU95   VAL104  LYS105  LEU106  MET118  VAL119 
 MET120  GLU121  TYR122  VAL123  PRO124  GLY125  GLY126  GLU127  TYR164  GLU170 
 ASN171  LEU172  LEU173  ILE174  ASP175  GLN181  VAL182  THR183  ASP184  PHE185 
 GLY186  THR324  PHE327  TYR330 

> <Gold.Protein.RotatedAtoms>
   34.1842   12.9817  -10.6607 H   0  0  0  0  0  0  0  0  0  0  0  0  # atno 1741 bound_to 1732
   25.9950    3.3238    3.1991 H   0  0  0  0  0  0  0  0  0  0  0  0  # atno 2430 bound_to 2423
   28.1247    7.1068   -1.0744 H   0  0  0  0  0  0  0  0  0  0  0  0  # atno 2749 bound_to 2742
   23.2891   10.4106   -8.6457 H   0  0  0  0  0  0  0  0  0  0  0  0  # atno 4996 bound_to 4987
   27.5702    6.0781    0.0584 LP  0  0  0  0  0  0  0  0  0  0  0  0  # atno 5321 bound_to 2742
   28.6098    5.5533   -1.0863 LP  0  0  0  0  0  0  0  0  0  0  0  0  # atno 5322 bound_to 2742
   34.0667   11.3762  -10.4228 LP  0  0  0  0  0  0  0  0  0  0  0  0  # atno 5347 bound_to 1732
   35.4286   12.0124  -11.0607 LP  0  0  0  0  0  0  0  0  0  0  0  0  # atno 5348 bound_to 1732

> <Gold.Score>
     Fitness  S(hb_ext) S(vdw_ext)  S(hb_int)    S(int)      intcor
     32.04       0.50      25.35       0.00      -3.33      -0.76

> <Gold.Goldscore.Fitness>
32.0367

> <Gold.Goldscore.Internal.Vdw>
-3.5684

> <Gold.Goldscore.Internal.Torsion>
-0.5234

> <Gold.Goldscore.External.Vdw>
25.3545

> <Gold.Goldscore.Internal.HBond>
0.0000

> <Gold.Goldscore.External.HBond>
0.5012

> <Gold.Goldscore.Internal.Correction>
-0.7650

> <Gold.Goldscore.Hbonds>
donor molecule, donor type, donor heavy atom, donor atom, acceptor molecule, acceptor atom, score
      P1  H  2742  2749       L1    11  0.19
      L1  H     8    22       P1   503  0.06

> <Gold.Goldscore.Internal.Vdw.Weighted>
-3.5684

> <Gold.Goldscore.Internal.Torsion.Weighted>
-0.5234

> <Gold.Goldscore.External.Vdw.Weighted>
34.8624

> <Gold.Goldscore.Internal.HBond.Weighted>
0.0000

> <Gold.Goldscore.External.HBond.Weighted>
0.5012

> <Gold.Goldscore.Internal.Correction.Weighted>
-0.7650

> <Gold.Rescore>
     Score     S(PLP)   S(hbond)     S(cho)   S(metal)  DE(clash)   DE(tors)     intcor
     32.41     -31.10       1.09       0.00       0.00       1.29       0.33       ----

> <Gold.PLP.Fitness>
32.4085

> <Gold.PLP.PLP>
-31.0980

> <Gold.PLP.part.hbond>
-0.9954

> <Gold.PLP.part.metal>
0.0000

> <Gold.PLP.part.buried>
-4.2337

> <Gold.PLP.part.nonpolar>
-26.8637

> <Gold.PLP.part.repulsive>
0.2595

> <Gold.PLP.ligand.clash>
1.2877

> <Gold.PLP.ligand.torsion>
0.3340

> <Gold.PLP.Chemscore.Hbond>
1.0888

> <Gold.PLP.Chemscore.CHOScore>
0.0000

> <Gold.PLP.Chemscore.Metal>
0.0000

> <Gold.Chemscore.Hbonds>
donor molecule, donor type, donor heavy atom, donor atom, acceptor molecule, acceptor atom, score
      L1  H     8    22       P1   503  1.00
      P1  H  2742  2749       L1    11  0.10

> <Gold.PLP.Chemscore.Internal.Correction>
   9.000000E+99

