#       Name:                CT1002167954
#       Creating user name   hitesit
#       Creation time:       Sun Apr 16 20:15:36 2023


#       File generated by GOLD software.
#

@<TRIPOS>MOLECULE
CT1002167954|ligand_prepared|mol2|1|dock1
    29    30     1
SMALL
NO_CHARGES


@<TRIPOS>ATOM
      1 C1          26.6513   9.6241  -3.5804 C.3            1 RES1               0.0000
      2 C2          26.9647   9.8226  -2.0834 C.ar           1 RES1               0.0000
      3 C3          26.6415   8.1172  -3.8199 C.2            1 RES1               0.0000
      4 C4          25.3085  10.3022  -3.8288 C.2            1 RES1               0.0000
      5 C5          27.6926  10.2652  -4.5271 C.3            1 RES1               0.0000
      6 C6          28.2645   9.6810  -1.6067 C.ar           1 RES1               0.0000
      7 C7          25.9668  10.1497  -1.1691 C.ar           1 RES1               0.0000
      8 N8          25.4321   7.5144  -4.0037 N.am           1 RES1               0.0000
      9 O9          27.6761   7.4616  -3.8084 O.2            1 RES1               0.0000
     10 N10         24.2452   9.5120  -4.1793 N.am           1 RES1               0.0000
     11 O11         25.1576  11.5117  -3.7078 O.2            1 RES1               0.0000
     12 C12         27.3592  10.1073  -6.0023 C.3            1 RES1               0.0000
     13 C13         28.5567   9.8626  -0.2650 C.ar           1 RES1               0.0000
     14 C14         26.2612  10.3307   0.1722 C.ar           1 RES1               0.0000
     15 C15         24.2388   8.1455  -4.2480 C.2            1 RES1               0.0000
     16 C16         27.5555  10.1880   0.6251 C.ar           1 RES1               0.0000
     17 O17         23.2286   7.5019  -4.5171 O.2            1 RES1               0.0000
     18 H18         27.7696  11.3346  -4.2950 H              1 RES1               0.0000
     19 H19         28.6718   9.8092  -4.3358 H              1 RES1               0.0000
     20 H20         29.0650   9.4228  -2.2919 H              1 RES1               0.0000
     21 H21         24.9413  10.2661  -1.5027 H              1 RES1               0.0000
     22 H22         25.4130   6.5007  -3.9548 H              1 RES1               0.0000
     23 H23         23.3782   9.9865  -4.4105 H              1 RES1               0.0000
     24 H24         28.1214  10.5747  -6.6222 H              1 RES1               0.0000
     25 H25         27.2996   9.0554  -6.2739 H              1 RES1               0.0000
     26 H26         26.4028  10.5718  -6.2334 H              1 RES1               0.0000
     27 H27         29.5767   9.7478   0.0866 H              1 RES1               0.0000
     28 H28         25.4700  10.5861   0.8693 H              1 RES1               0.0000
     29 H29         27.7848  10.3306   1.6760 H              1 RES1               0.0000
@<TRIPOS>BOND
    1    1    2 1     
    2    1    3 1     
    3    1    4 1     
    4    1    5 1     
    5    2    6 ar    
    6    2    7 ar    
    7    3    8 1     
    8    3    9 2     
    9    4   10 1     
   10    4   11 2     
   11    5   12 1     
   12    5   18 1     
   13    5   19 1     
   14    6   13 ar    
   15    6   20 1     
   16    7   14 ar    
   17    7   21 1     
   18    8   15 1     
   19    8   22 1     
   20   10   15 1     
   21   10   23 1     
   22   12   24 1     
   23   12   25 1     
   24   12   26 1     
   25   13   16 ar    
   26   13   27 1     
   27   14   16 ar    
   28   14   28 1     
   29   15   17 2     
   30   16   29 1     
@<TRIPOS>SUBSTRUCTURE
      1 RES1           1
@<TRIPOS>SET
DONOR_HYDROGENS      STATIC     ATOMS    <user>   **** ""
2 22 23
ATOM$RED        STATIC     ATOMS    COLORGROUP SYSTEM
2 22 23
@<TRIPOS>COMMENT
> <Gold.Version>
2022.3.0

> <Gold.Id.Protein>
unknown|3oog_clean|pdb

> <Gold.Protein.RotatedTorsions>
[ 2749 2742 2740 2737 ] final  107.65 input   59.98 | X-H torsion
[ 1741 1732 1731 1729 ] final -177.86 input   60.02 | X-H torsion
[ 2430 2423 2422 2420 ] final  -87.72 input   60.03 | X-H torsion
[ 4996 4987 4986 4984 ] final    5.93 input   60.02 | X-H torsion

> <Gold.Protein.ActiveResidues>
 LEU49   GLY50   THR51   ARG56   VAL57   MET58   LEU59   HIS68   TYR69   ALA70  
 MET71   LYS72   LEU74   GLU91   LEU95   VAL104  LYS105  LEU106  MET118  VAL119 
 MET120  GLU121  TYR122  VAL123  PRO124  GLY125  GLY126  GLU127  TYR164  GLU170 
 ASN171  LEU172  LEU173  ILE174  ASP175  GLN181  VAL182  THR183  ASP184  PHE185 
 GLY186  THR324  PHE327  TYR330 

> <Gold.Protein.RotatedAtoms>
   35.3987   12.3158  -11.0821 H   0  0  0  0  0  0  0  0  0  0  0  0  # atno 1741 bound_to 1732
   25.5397    2.9955    2.9729 H   0  0  0  0  0  0  0  0  0  0  0  0  # atno 2430 bound_to 2423
   27.6343    6.9980   -0.3913 H   0  0  0  0  0  0  0  0  0  0  0  0  # atno 2749 bound_to 2742
   23.5270   10.2045   -9.4983 H   0  0  0  0  0  0  0  0  0  0  0  0  # atno 4996 bound_to 4987
   28.0145    5.4211   -0.2571 LP  0  0  0  0  0  0  0  0  0  0  0  0  # atno 5321 bound_to 2742
   28.6591    6.3199   -1.4586 LP  0  0  0  0  0  0  0  0  0  0  0  0  # atno 5322 bound_to 2742
   33.9484   12.8240  -10.5471 LP  0  0  0  0  0  0  0  0  0  0  0  0  # atno 5347 bound_to 1732
   34.3238   11.2352  -10.5120 LP  0  0  0  0  0  0  0  0  0  0  0  0  # atno 5348 bound_to 1732

> <Gold.Score>
     Fitness  S(hb_ext) S(vdw_ext)  S(hb_int)    S(int)      intcor
     35.10       1.07      25.86       0.00      -1.52      -0.89

> <Gold.Goldscore.Fitness>
35.1021

> <Gold.Goldscore.Internal.Vdw>
-2.0373

> <Gold.Goldscore.Internal.Torsion>
-0.3709

> <Gold.Goldscore.External.Vdw>
25.8604

> <Gold.Goldscore.Internal.HBond>
0.0000

> <Gold.Goldscore.External.HBond>
1.0656

> <Gold.Goldscore.Internal.Correction>
-0.8867

> <Gold.Goldscore.Hbonds>
donor molecule, donor type, donor heavy atom, donor atom, acceptor molecule, acceptor atom, score
      L1  H     8    22       P1  2527  0.53

> <Gold.Goldscore.Internal.Vdw.Weighted>
-2.0373

> <Gold.Goldscore.Internal.Torsion.Weighted>
-0.3709

> <Gold.Goldscore.External.Vdw.Weighted>
35.5580

> <Gold.Goldscore.Internal.HBond.Weighted>
0.0000

> <Gold.Goldscore.External.HBond.Weighted>
1.0656

> <Gold.Goldscore.Internal.Correction.Weighted>
-0.8867

> <Gold.Rescore>
     Score     S(PLP)   S(hbond)     S(cho)   S(metal)  DE(clash)   DE(tors)     intcor
     38.17     -37.12       0.90       0.00       0.00       0.00       0.82       ----

> <Gold.PLP.Fitness>
38.1685

> <Gold.PLP.PLP>
-37.1155

> <Gold.PLP.part.hbond>
-2.0954

> <Gold.PLP.part.metal>
0.0000

> <Gold.PLP.part.buried>
-3.3272

> <Gold.PLP.part.nonpolar>
-32.4826

> <Gold.PLP.part.repulsive>
0.4540

> <Gold.PLP.ligand.clash>
0.0000

> <Gold.PLP.ligand.torsion>
0.8175

> <Gold.PLP.Chemscore.Hbond>
0.8960

> <Gold.PLP.Chemscore.CHOScore>
0.0000

> <Gold.PLP.Chemscore.Metal>
0.0000

> <Gold.Chemscore.Hbonds>
donor molecule, donor type, donor heavy atom, donor atom, acceptor molecule, acceptor atom, score
      L1  H     8    22       P1  2527  1.00

> <Gold.PLP.Chemscore.Internal.Correction>
   9.000000E+99

