#       Name:                CT1002167954
#       Creating user name   hitesit
#       Creation time:       Sun Apr 16 20:15:42 2023


#       File generated by GOLD software.
#

@<TRIPOS>MOLECULE
CT1002167954|ligand_prepared|mol2|1|dock7
    29    30     1
SMALL
NO_CHARGES


@<TRIPOS>ATOM
      1 C1          26.8703   9.1564  -2.6954 C.3            1 RES1               0.0000
      2 C2          28.1058   9.7067  -3.4366 C.ar           1 RES1               0.0000
      3 C3          25.6801   9.9823  -3.1745 C.2            1 RES1               0.0000
      4 C4          26.7838   7.6763  -3.0507 C.2            1 RES1               0.0000
      5 C5          26.9616   9.2737  -1.1561 C.3            1 RES1               0.0000
      6 C6          28.0178  10.0932  -4.7707 C.ar           1 RES1               0.0000
      7 C7          29.3374   9.8359  -2.8002 C.ar           1 RES1               0.0000
      8 N8          24.8033   9.3878  -4.0334 N.am           1 RES1               0.0000
      9 O9          25.5347  11.1502  -2.8351 O.2            1 RES1               0.0000
     10 N10         25.7081   7.2546  -3.7875 N.am           1 RES1               0.0000
     11 O11         27.6459   6.8742  -2.7134 O.2            1 RES1               0.0000
     12 C12         25.6564   8.9660  -0.4392 C.3            1 RES1               0.0000
     13 C13         29.1204  10.5936  -5.4433 C.ar           1 RES1               0.0000
     14 C14         30.4388  10.3364  -3.4747 C.ar           1 RES1               0.0000
     15 C15         24.7298   8.0486  -4.3211 C.2            1 RES1               0.0000
     16 C16         30.3313  10.7159  -4.7958 C.ar           1 RES1               0.0000
     17 O17         23.8240   7.6024  -5.0193 O.2            1 RES1               0.0000
     18 H18         27.7342   8.5838  -0.7946 H              1 RES1               0.0000
     19 H19         27.2747  10.2928  -0.8975 H              1 RES1               0.0000
     20 H20         27.0738  10.0019  -5.2974 H              1 RES1               0.0000
     21 H21         29.4456   9.5426  -1.7615 H              1 RES1               0.0000
     22 H22         24.1411   9.9952  -4.5055 H              1 RES1               0.0000
     23 H23         25.6293   6.2563  -3.9535 H              1 RES1               0.0000
     24 H24         25.7758   9.0630   0.6379 H              1 RES1               0.0000
     25 H25         24.8718   9.6499  -0.7561 H              1 RES1               0.0000
     26 H26         25.3285   7.9510  -0.6538 H              1 RES1               0.0000
     27 H27         29.0309  10.8896  -6.4833 H              1 RES1               0.0000
     28 H28         31.3900  10.4303  -2.9613 H              1 RES1               0.0000
     29 H29         31.1947  11.1083  -5.3228 H              1 RES1               0.0000
@<TRIPOS>BOND
    1    1    2 1     
    2    1    3 1     
    3    1    4 1     
    4    1    5 1     
    5    2    6 ar    
    6    2    7 ar    
    7    3    8 1     
    8    3    9 2     
    9    4   10 1     
   10    4   11 2     
   11    5   12 1     
   12    5   18 1     
   13    5   19 1     
   14    6   13 ar    
   15    6   20 1     
   16    7   14 ar    
   17    7   21 1     
   18    8   15 1     
   19    8   22 1     
   20   10   15 1     
   21   10   23 1     
   22   12   24 1     
   23   12   25 1     
   24   12   26 1     
   25   13   16 ar    
   26   13   27 1     
   27   14   16 ar    
   28   14   28 1     
   29   15   17 2     
   30   16   29 1     
@<TRIPOS>SUBSTRUCTURE
      1 RES1           1
@<TRIPOS>SET
DONOR_HYDROGENS      STATIC     ATOMS    <user>   **** ""
2 22 23
ATOM$RED        STATIC     ATOMS    COLORGROUP SYSTEM
2 22 23
@<TRIPOS>COMMENT
> <Gold.Version>
2022.3.0

> <Gold.Id.Protein>
unknown|3oog_clean|pdb

> <Gold.Protein.RotatedTorsions>
[ 2749 2742 2740 2737 ] final  -71.04 input   59.98 | X-H torsion
[ 1741 1732 1731 1729 ] final   91.88 input   60.02 | X-H torsion
[ 2430 2423 2422 2420 ] final  -14.86 input   60.03 | X-H torsion
[ 4996 4987 4986 4984 ] final   96.44 input   60.02 | X-H torsion

> <Gold.Protein.ActiveResidues>
 LEU49   GLY50   THR51   ARG56   VAL57   MET58   LEU59   HIS68   TYR69   ALA70  
 MET71   LYS72   LEU74   GLU91   LEU95   VAL104  LYS105  LEU106  MET118  VAL119 
 MET120  GLU121  TYR122  VAL123  PRO124  GLY125  GLY126  GLU127  TYR164  GLU170 
 ASN171  LEU172  LEU173  ILE174  ASP175  GLN181  VAL182  THR183  ASP184  PHE185 
 GLY186  THR324  PHE327  TYR330 

> <Gold.Protein.RotatedAtoms>
   34.3404   13.0357  -10.7315 H   0  0  0  0  0  0  0  0  0  0  0  0  # atno 1741 bound_to 1732
   26.5586    3.3536    3.2395 H   0  0  0  0  0  0  0  0  0  0  0  0  # atno 2430 bound_to 2423
   28.5624    5.4871   -0.9945 H   0  0  0  0  0  0  0  0  0  0  0  0  # atno 2749 bound_to 2742
   22.8349   10.4614   -8.3927 H   0  0  0  0  0  0  0  0  0  0  0  0  # atno 4996 bound_to 4987
   28.2012    7.0654   -1.1609 LP  0  0  0  0  0  0  0  0  0  0  0  0  # atno 5321 bound_to 2742
   27.5381    6.1968    0.0525 LP  0  0  0  0  0  0  0  0  0  0  0  0  # atno 5322 bound_to 2742
   33.9380   11.4977  -10.3842 LP  0  0  0  0  0  0  0  0  0  0  0  0  # atno 5347 bound_to 1732
   35.4000   11.8367  -11.0278 LP  0  0  0  0  0  0  0  0  0  0  0  0  # atno 5348 bound_to 1732

> <Gold.Score>
     Fitness  S(hb_ext) S(vdw_ext)  S(hb_int)    S(int)      intcor
     34.61       1.49      24.26       0.00      -0.23      -0.76

> <Gold.Goldscore.Fitness>
34.6112

> <Gold.Goldscore.Internal.Vdw>
-0.4581

> <Gold.Goldscore.Internal.Torsion>
-0.5391

> <Gold.Goldscore.External.Vdw>
24.2584

> <Gold.Goldscore.Internal.HBond>
0.0000

> <Gold.Goldscore.External.HBond>
1.4881

> <Gold.Goldscore.Internal.Correction>
-0.7650

> <Gold.Goldscore.Hbonds>
donor molecule, donor type, donor heavy atom, donor atom, acceptor molecule, acceptor atom, score
      L1  H    10    23       P1  2527  0.74

> <Gold.Goldscore.Internal.Vdw.Weighted>
-0.4581

> <Gold.Goldscore.Internal.Torsion.Weighted>
-0.5391

> <Gold.Goldscore.External.Vdw.Weighted>
33.3554

> <Gold.Goldscore.Internal.HBond.Weighted>
0.0000

> <Gold.Goldscore.External.HBond.Weighted>
1.4881

> <Gold.Goldscore.Internal.Correction.Weighted>
-0.7650

> <Gold.Rescore>
     Score     S(PLP)   S(hbond)     S(cho)   S(metal)  DE(clash)   DE(tors)     intcor
     37.66     -35.66       1.00       0.00       0.00       0.00       0.50       ----

> <Gold.PLP.Fitness>
37.6619

> <Gold.PLP.PLP>
-35.6608

> <Gold.PLP.part.hbond>
-1.5533

> <Gold.PLP.part.metal>
0.0000

> <Gold.PLP.part.buried>
-2.8923

> <Gold.PLP.part.nonpolar>
-32.0126

> <Gold.PLP.part.repulsive>
0.4713

> <Gold.PLP.ligand.clash>
0.0000

> <Gold.PLP.ligand.torsion>
0.4995

> <Gold.PLP.Chemscore.Hbond>
1.0000

> <Gold.PLP.Chemscore.CHOScore>
0.0000

> <Gold.PLP.Chemscore.Metal>
0.0000

> <Gold.Chemscore.Hbonds>
donor molecule, donor type, donor heavy atom, donor atom, acceptor molecule, acceptor atom, score
      L1  H    10    23       P1  2527  1.00

> <Gold.PLP.Chemscore.Internal.Correction>
   9.000000E+99

