#       Name:                CT1002167954
#       Creating user name   hitesit
#       Creation time:       Sun Apr 16 20:17:50 2023


#       File generated by GOLD software.
#

@<TRIPOS>MOLECULE
CT1002167954|ligand_prepared|mol2|1|dock10
    29    30     1
SMALL
NO_CHARGES


@<TRIPOS>ATOM
      1 C1         117.1142 245.6775 324.2424 C.3            1 RES1               0.0000
      2 C2         115.9754 244.7228 324.6551 C.ar           1 RES1               0.0000
      3 C3         118.2976 245.3496 325.1481 C.2            1 RES1               0.0000
      4 C4         117.3730 245.4181 322.7624 C.2            1 RES1               0.0000
      5 C5         116.7665 247.1748 324.4113 C.3            1 RES1               0.0000
      6 C6         115.0361 245.1098 325.6063 C.ar           1 RES1               0.0000
      7 C7         115.8496 243.4554 324.0926 C.ar           1 RES1               0.0000
      8 N8         119.3456 244.6720 324.5981 N.am           1 RES1               0.0000
      9 O9         118.2941 245.6462 326.3365 O.2            1 RES1               0.0000
     10 N10        118.5833 244.8833 322.4062 N.am           1 RES1               0.0000
     11 O11        116.5334 245.6565 321.9030 O.2            1 RES1               0.0000
     12 C12        117.7085 248.1105 323.6703 C.3            1 RES1               0.0000
     13 C13        114.0066 244.2617 325.9795 C.ar           1 RES1               0.0000
     14 C14        114.8195 242.6087 324.4674 C.ar           1 RES1               0.0000
     15 C15        119.5695 244.4699 323.2599 C.2            1 RES1               0.0000
     16 C16        113.8974 243.0109 325.4101 C.ar           1 RES1               0.0000
     17 O17        120.6085 243.9477 322.8662 O.2            1 RES1               0.0000
     18 H18        115.7447 247.3430 324.0493 H              1 RES1               0.0000
     19 H19        116.7891 247.4243 325.4793 H              1 RES1               0.0000
     20 H20        115.1073 246.0894 326.0671 H              1 RES1               0.0000
     21 H21        116.5642 243.1174 323.3498 H              1 RES1               0.0000
     22 H22        120.0256 244.2792 325.2412 H              1 RES1               0.0000
     23 H23        118.7661 244.7842 321.4127 H              1 RES1               0.0000
     24 H24        117.4198 249.1484 323.8222 H              1 RES1               0.0000
     25 H25        118.7304 247.9879 324.0231 H              1 RES1               0.0000
     26 H26        117.6923 247.9072 322.6015 H              1 RES1               0.0000
     27 H27        113.2843 244.5824 326.7228 H              1 RES1               0.0000
     28 H28        114.7378 241.6249 324.0171 H              1 RES1               0.0000
     29 H29        113.0907 242.3468 325.7023 H              1 RES1               0.0000
@<TRIPOS>BOND
    1    1    2 1     
    2    1    3 1     
    3    1    4 1     
    4    1    5 1     
    5    2    6 ar    
    6    2    7 ar    
    7    3    8 1     
    8    3    9 2     
    9    4   10 1     
   10    4   11 2     
   11    5   12 1     
   12    5   18 1     
   13    5   19 1     
   14    6   13 ar    
   15    6   20 1     
   16    7   14 ar    
   17    7   21 1     
   18    8   15 1     
   19    8   22 1     
   20   10   15 1     
   21   10   23 1     
   22   12   24 1     
   23   12   25 1     
   24   12   26 1     
   25   13   16 ar    
   26   13   27 1     
   27   14   16 ar    
   28   14   28 1     
   29   15   17 2     
   30   16   29 1     
@<TRIPOS>SUBSTRUCTURE
      1 RES1           1
@<TRIPOS>SET
DONOR_HYDROGENS      STATIC     ATOMS    <user>   **** ""
2 22 23
ATOM$RED        STATIC     ATOMS    COLORGROUP SYSTEM
2 22 23
@<TRIPOS>COMMENT
> <Gold.Version>
2022.3.0

> <Gold.Id.Protein>
unknown|4uh6_clean|pdb

> <Gold.Protein.RotatedTorsions>
[ 8453 8448 8449 8450 ] final    3.95 input   43.75 | X-H torsion
[ 8477 8470 8471 8472 ] final  154.72 input  101.27 | X-H torsion
[ 9021 9017 9018 9019 ] final -104.60 input   41.82 | X-H torsion
[ 9055 9041 9042 9043 ] final  116.31 input   38.00 | X-H torsion
[ 9104 9087 9088 9089 ] final  128.69 input   99.63 | X-H torsion
[ 9112 9098 9097 9095 ] final  103.48 input   60.00 | X-H torsion
[ 9142 9125 9126 9127 ] final  -42.87 input   87.39 | X-H torsion
[ 9217 9202 9203 9204 ] final -137.40 input  119.00 | X-H torsion
[ 3599 3592 3593 3594 ] final   18.15 input   87.50 | X-H torsion
[ 9003 8997 8998 8999 ] final  -18.71 input   29.71 | X-H torsion
[ 9162 9155 9156 9157 ] final -155.81 input  127.29 | X-H torsion
[ 11075 11068 11069 11070 ] final  141.13 input   56.03 | X-H torsion
[ 4901 4888 4887 4884 ] final  143.75 input   60.01 | X-H torsion
[ 9007 9002 9001 8998 ] final  -93.87 input   59.98 | X-H torsion
[ 8973 8962 8963 8964 ] final -139.01 input   50.05 | X-H torsion
[ 8510 8501 8502 8503 ] final -137.00 input   53.62 | X-H torsion
[ 4917 4907 4908 4909 ] final  133.01 input   25.27 | X-H torsion
[ 8353 8344 8343 8341 ] final  -33.53 input   59.99 | X-H torsion
[ 5556 5551 5550 5547 ] final  -53.39 input   59.99 | X-H torsion
[ 5580 5571 5572 5573 ] final   43.15 input   51.16 | X-H torsion
[ 9375 9363 9364 9365 ] final -123.94 input  121.73 | X-H torsion
[ 9250 9231 9232 9233 ] final  148.52 input   97.49 | X-H torsion
[ 5552 5546 5547 5548 ] final  -96.71 input   98.49 | X-H torsion
[ 5612 5604 5605 5606 ] final   50.46 input  122.00 | X-H torsion
[ 8539 8525 8526 8527 ] final   15.44 input   68.51 | X-H torsion
[ 8514 8506 8505 8502 ] final  -60.61 input   59.98 | X-H torsion
[ 9192 9178 9176 9173 ] final -117.04 input   60.02 | X-H torsion
[ 9272 9265 9266 9267 ] final   52.84 input  106.17 | X-H torsion
[ 9298 9282 9283 9284 ] final   59.25 input   76.97 | X-H torsion
[ 9342 9318 9319 9320 ] final  116.25 input  100.94 | X-H torsion
[ 9411 9391 9392 9393 ] final  -86.41 input   95.23 | X-H torsion
[ 12906 12888 12887 12885 ] final -177.87 input   60.01 | X-H torsion
[ 13471 13450 13449 13445 ] final -124.48 input   59.98 | X-H torsion
[ 3579 3563 3564 3565 ] final -122.83 input   99.66 | X-H torsion
[ 13485 8425 8424 8423 ] final -122.17 input    0.00 | X-H torsion
[ 13489 8965 8964 8963 ] final   27.93 input    0.00 | X-H torsion
[ 13492 9020 9019 9018 ] final  -57.72 input   -0.00 | X-H torsion
[ 13495 9044 9043 9042 ] final   -0.39 input    0.00 | X-H torsion
[ 13498 9090 9089 9088 ] final   93.30 input    0.00 | X-H torsion
[ 13503 9128 9127 9126 ] final  123.75 input    0.00 | X-H torsion
[ 13516 9000 8999 8998 ] final  -35.78 input    0.00 | X-H torsion
[ 13518 8370 8369 8368 ] final  154.36 input    0.00 | X-H torsion
[ 13522 11071 11070 11069 ] final  147.03 input   -0.00 | X-H torsion
[ 13526 8388 8387 8386 ] final -102.00 input    0.00 | X-H torsion
[ 13530 8451 8450 8449 ] final   87.95 input    0.00 | X-H torsion
[ 13532 8473 8472 8471 ] final  -13.15 input    0.00 | X-H torsion
[ 13539 4910 4909 4908 ] final  -90.57 input   -0.00 | X-H torsion
[ 13543 5549 5548 5547 ] final -158.19 input    0.00 | X-H torsion
[ 13547 9205 9204 9203 ] final -100.50 input   -0.00 | X-H torsion
[ 13556 5645 5644 5643 ] final -151.26 input   -0.00 | X-H torsion
[ 13562 9321 9320 9319 ] final  -96.27 input    0.00 | X-H torsion
[ 13567 5574 5573 5572 ] final   59.63 input    0.00 | X-H torsion
[ 13571 5523 5522 5521 ] final  -90.81 input    0.00 | X-H torsion
[ 13573 6144 6143 6142 ] final  -16.18 input    0.00 | X-H torsion
[ 13577 9175 9174 9173 ] final  107.25 input    0.00 | X-H torsion
[ 13581 9234 9233 9232 ] final  -22.29 input    0.00 | X-H torsion
[ 13585 9285 9284 9283 ] final   44.01 input    0.00 | X-H torsion
[ 13592 9366 9365 9364 ] final  -25.03 input   -0.00 | X-H torsion

> <Gold.Protein.ActiveResidues>
 TRP311  MET341  HIS342  TRP414  ARG419  CYS420  VAL421  GLY422  LEU429  LEU460 
 SER462  ALA463  ILE464  ASN481  SER482  GLN483  LEU484  ILE485  ARG486  ASP500 
 ALA502  ASN503  TRP566  TYR567  GLY568  LEU569  PRO570  ALA571  VAL572  SER573 
 ASN574  MET575  PRO588  PHE589  SER590  GLY591  TRP592  TYR593  MET594  GLY595 
 THR596  GLU597  ILE598  GLY599  VAL600  ARG601  ASP602  TYR603  ASP605  ARG608 
 ILE653  VAL654  TRP683  PRO687  SER691  PHE696  HIS697  TYR711  HEM750  H4B760 

> <Gold.Protein.RotatedAtoms>
  122.0727  250.4072  329.9404 H   0  0  0  0  0  0  0  0  0  0  0  0  # atno 3579 bound_to 3563
  124.0311  249.7384  327.9629 H   0  0  0  0  0  0  0  0  0  0  0  0  # atno 3599 bound_to 3592
  126.0681  247.6828  318.9392 H   0  0  0  0  0  0  0  0  0  0  0  0  # atno 4901 bound_to 4888
  123.0380  247.1840  314.7832 H   0  0  0  0  0  0  0  0  0  0  0  0  # atno 4917 bound_to 4907
  106.1862  246.1370  317.7863 H   0  0  0  0  0  0  0  0  0  0  0  0  # atno 5552 bound_to 5546
  106.4785  243.9164  320.4943 H   0  0  0  0  0  0  0  0  0  0  0  0  # atno 5556 bound_to 5551
  108.1558  244.0971  318.7329 H   0  0  0  0  0  0  0  0  0  0  0  0  # atno 5580 bound_to 5571
  111.7731  243.3700  317.0245 H   0  0  0  0  0  0  0  0  0  0  0  0  # atno 5612 bound_to 5604
  110.7075  238.5661  321.5359 H   0  0  0  0  0  0  0  0  0  0  0  0  # atno 8353 bound_to 8344
  114.9519  243.4210  319.6493 H   0  0  0  0  0  0  0  0  0  0  0  0  # atno 8453 bound_to 8448
  115.1576  246.3861  319.7825 H   0  0  0  0  0  0  0  0  0  0  0  0  # atno 8477 bound_to 8470
  112.5040  248.2407  318.3485 H   0  0  0  0  0  0  0  0  0  0  0  0  # atno 8510 bound_to 8501
  110.1812  246.4230  317.2482 H   0  0  0  0  0  0  0  0  0  0  0  0  # atno 8514 bound_to 8506
  110.3419  250.3047  319.0608 H   0  0  0  0  0  0  0  0  0  0  0  0  # atno 8539 bound_to 8525
  115.6303  250.0771  315.2870 H   0  0  0  0  0  0  0  0  0  0  0  0  # atno 8973 bound_to 8962
  119.4360  248.4763  317.2694 H   0  0  0  0  0  0  0  0  0  0  0  0  # atno 9003 bound_to 8997
  119.2809  245.9424  314.6728 H   0  0  0  0  0  0  0  0  0  0  0  0  # atno 9007 bound_to 9002
  120.6530  245.6084  317.9372 H   0  0  0  0  0  0  0  0  0  0  0  0  # atno 9021 bound_to 9017
  123.6176  243.6491  320.4736 H   0  0  0  0  0  0  0  0  0  0  0  0  # atno 9055 bound_to 9041
  121.6782  239.8409  322.1552 H   0  0  0  0  0  0  0  0  0  0  0  0  # atno 9104 bound_to 9087
  114.8732  240.0901  322.2392 H   0  0  0  0  0  0  0  0  0  0  0  0  # atno 9112 bound_to 9098
  121.4915  239.9810  325.8734 H   0  0  0  0  0  0  0  0  0  0  0  0  # atno 9142 bound_to 9125
  122.7043  238.1472  327.9397 H   0  0  0  0  0  0  0  0  0  0  0  0  # atno 9162 bound_to 9155
  120.9802  240.1033  332.8063 H   0  0  0  0  0  0  0  0  0  0  0  0  # atno 9192 bound_to 9178
  118.3787  239.5584  330.9330 H   0  0  0  0  0  0  0  0  0  0  0  0  # atno 9217 bound_to 9202
  117.1846  237.9054  327.8352 H   0  0  0  0  0  0  0  0  0  0  0  0  # atno 9250 bound_to 9231
  117.0295  235.9417  330.2130 H   0  0  0  0  0  0  0  0  0  0  0  0  # atno 9272 bound_to 9265
  116.0927  236.3766  331.8965 H   0  0  0  0  0  0  0  0  0  0  0  0  # atno 9298 bound_to 9282
  114.6142  238.2022  332.3251 H   0  0  0  0  0  0  0  0  0  0  0  0  # atno 9342 bound_to 9318
  111.7868  238.4059  330.4094 H   0  0  0  0  0  0  0  0  0  0  0  0  # atno 9375 bound_to 9363
  110.9805  235.1809  329.6762 H   0  0  0  0  0  0  0  0  0  0  0  0  # atno 9411 bound_to 9391
  125.9141  239.1265  325.1541 H   0  0  0  0  0  0  0  0  0  0  0  0  # atno 11075 bound_to 11068
  111.4821  253.2601  329.9284 H   0  0  0  0  0  0  0  0  0  0  0  0  # atno 12906 bound_to 12888
  108.6960  246.6449  336.7736 H   0  0  0  0  0  0  0  0  0  0  0  0  # atno 13471 bound_to 13450
  117.8004  244.9815  319.6458 LP  0  0  0  0  0  0  0  0  0  0  0  0  # atno 13485 bound_to 8425
  118.6466  243.7166  318.8189 LP  0  0  0  0  0  0  0  0  0  0  0  0  # atno 13486 bound_to 8425
  116.4481  243.0322  318.8363 LP  0  0  0  0  0  0  0  0  0  0  0  0  # atno 13487 bound_to 8448
  114.5285  246.4620  318.1524 LP  0  0  0  0  0  0  0  0  0  0  0  0  # atno 13488 bound_to 8470
  115.7418  247.7319  317.5050 LP  0  0  0  0  0  0  0  0  0  0  0  0  # atno 13489 bound_to 8965
  116.9213  247.0097  318.5478 LP  0  0  0  0  0  0  0  0  0  0  0  0  # atno 13490 bound_to 8965
  120.0295  245.2484  319.5314 LP  0  0  0  0  0  0  0  0  0  0  0  0  # atno 13491 bound_to 9017
  121.3093  242.7970  318.0784 LP  0  0  0  0  0  0  0  0  0  0  0  0  # atno 13492 bound_to 9020
  122.9420  242.2369  318.2215 LP  0  0  0  0  0  0  0  0  0  0  0  0  # atno 13493 bound_to 9020
  121.8794  243.6580  320.6818 LP  0  0  0  0  0  0  0  0  0  0  0  0  # atno 13494 bound_to 9041
  122.6197  243.5393  322.8995 LP  0  0  0  0  0  0  0  0  0  0  0  0  # atno 13495 bound_to 9044
  121.9950  242.5723  324.1935 LP  0  0  0  0  0  0  0  0  0  0  0  0  # atno 13496 bound_to 9044
  122.5817  241.1977  322.7878 LP  0  0  0  0  0  0  0  0  0  0  0  0  # atno 13497 bound_to 9087
  124.1190  240.2930  325.0303 LP  0  0  0  0  0  0  0  0  0  0  0  0  # atno 13498 bound_to 9090
  123.4608  238.7247  325.3577 LP  0  0  0  0  0  0  0  0  0  0  0  0  # atno 13499 bound_to 9090
  114.4975  239.7543  323.7864 LP  0  0  0  0  0  0  0  0  0  0  0  0  # atno 13500 bound_to 9098
  114.6395  238.5462  322.6968 LP  0  0  0  0  0  0  0  0  0  0  0  0  # atno 13501 bound_to 9098
  121.6332  241.6648  326.3236 LP  0  0  0  0  0  0  0  0  0  0  0  0  # atno 13502 bound_to 9125
  119.7589  238.4503  327.6898 LP  0  0  0  0  0  0  0  0  0  0  0  0  # atno 13503 bound_to 9128
  119.7409  239.9110  328.6205 LP  0  0  0  0  0  0  0  0  0  0  0  0  # atno 13504 bound_to 9128
  118.4633  238.3025  329.7246 LP  0  0  0  0  0  0  0  0  0  0  0  0  # atno 13505 bound_to 9202
  123.9952  248.0881  328.5314 LP  0  0  0  0  0  0  0  0  0  0  0  0  # atno 13514 bound_to 3592
  118.0080  247.8689  316.4773 LP  0  0  0  0  0  0  0  0  0  0  0  0  # atno 13515 bound_to 8997
  121.3350  247.2721  316.5320 LP  0  0  0  0  0  0  0  0  0  0  0  0  # atno 13516 bound_to 9000
  122.1552  247.3251  318.0566 LP  0  0  0  0  0  0  0  0  0  0  0  0  # atno 13517 bound_to 9000
  120.3725  238.9237  318.9446 LP  0  0  0  0  0  0  0  0  0  0  0  0  # atno 13518 bound_to 8370
  120.4843  237.5732  320.0233 LP  0  0  0  0  0  0  0  0  0  0  0  0  # atno 13519 bound_to 8370
  122.0170  238.8203  329.4013 LP  0  0  0  0  0  0  0  0  0  0  0  0  # atno 13520 bound_to 9155
  125.4996  237.6901  326.0511 LP  0  0  0  0  0  0  0  0  0  0  0  0  # atno 13521 bound_to 11068
  124.4527  238.1695  329.1545 LP  0  0  0  0  0  0  0  0  0  0  0  0  # atno 13522 bound_to 11071
  124.5025  239.5362  328.0916 LP  0  0  0  0  0  0  0  0  0  0  0  0  # atno 13523 bound_to 11071
  125.5111  246.3119  318.2612 LP  0  0  0  0  0  0  0  0  0  0  0  0  # atno 13524 bound_to 4888
  124.5128  247.2510  319.1490 LP  0  0  0  0  0  0  0  0  0  0  0  0  # atno 13525 bound_to 4888
  115.7696  241.0089  317.5520 LP  0  0  0  0  0  0  0  0  0  0  0  0  # atno 13526 bound_to 8388
  115.6109  239.4759  318.3424 LP  0  0  0  0  0  0  0  0  0  0  0  0  # atno 13527 bound_to 8388
  119.7779  244.4355  315.0331 LP  0  0  0  0  0  0  0  0  0  0  0  0  # atno 13528 bound_to 9002
  120.5266  245.7260  315.6970 LP  0  0  0  0  0  0  0  0  0  0  0  0  # atno 13529 bound_to 9002
  112.5831  244.6222  318.5592 LP  0  0  0  0  0  0  0  0  0  0  0  0  # atno 13530 bound_to 8451
  112.7820  245.6233  317.1598 LP  0  0  0  0  0  0  0  0  0  0  0  0  # atno 13531 bound_to 8451
  114.4741  249.3554  318.1860 LP  0  0  0  0  0  0  0  0  0  0  0  0  # atno 13532 bound_to 8473
  113.2359  249.5839  316.9966 LP  0  0  0  0  0  0  0  0  0  0  0  0  # atno 13533 bound_to 8473
  115.2184  249.3860  316.8389 LP  0  0  0  0  0  0  0  0  0  0  0  0  # atno 13534 bound_to 8962
  110.8958  247.9293  318.9475 LP  0  0  0  0  0  0  0  0  0  0  0  0  # atno 13535 bound_to 8501
  122.7717  248.5769  315.8017 LP  0  0  0  0  0  0  0  0  0  0  0  0  # atno 13538 bound_to 4907
  119.5094  248.5575  314.8043 LP  0  0  0  0  0  0  0  0  0  0  0  0  # atno 13539 bound_to 4910
  120.3724  249.5572  315.9250 LP  0  0  0  0  0  0  0  0  0  0  0  0  # atno 13540 bound_to 4910
  110.4801  246.6363  319.3767 LP  0  0  0  0  0  0  0  0  0  0  0  0  # atno 13543 bound_to 5549
  109.3699  247.4383  320.4370 LP  0  0  0  0  0  0  0  0  0  0  0  0  # atno 13544 bound_to 5549
  111.8582  239.7166  321.5011 LP  0  0  0  0  0  0  0  0  0  0  0  0  # atno 13545 bound_to 8344
  111.9244  238.5252  322.6159 LP  0  0  0  0  0  0  0  0  0  0  0  0  # atno 13546 bound_to 8344
  114.3020  238.1210  329.9774 LP  0  0  0  0  0  0  0  0  0  0  0  0  # atno 13547 bound_to 9205
  114.1476  239.1042  328.5598 LP  0  0  0  0  0  0  0  0  0  0  0  0  # atno 13548 bound_to 9205
  106.4591  244.1350  322.1068 LP  0  0  0  0  0  0  0  0  0  0  0  0  # atno 13553 bound_to 5551
  107.8698  244.2059  321.2873 LP  0  0  0  0  0  0  0  0  0  0  0  0  # atno 13554 bound_to 5551
  108.8253  245.5489  319.4546 LP  0  0  0  0  0  0  0  0  0  0  0  0  # atno 13555 bound_to 5571
  111.2613  239.3215  319.2266 LP  0  0  0  0  0  0  0  0  0  0  0  0  # atno 13556 bound_to 5645
  111.9475  240.6199  318.3082 LP  0  0  0  0  0  0  0  0  0  0  0  0  # atno 13557 bound_to 5645
  112.8760  237.0435  330.5458 LP  0  0  0  0  0  0  0  0  0  0  0  0  # atno 13560 bound_to 9363
  116.4156  237.8578  329.4072 LP  0  0  0  0  0  0  0  0  0  0  0  0  # atno 13561 bound_to 9231
  110.2057  236.5540  332.0072 LP  0  0  0  0  0  0  0  0  0  0  0  0  # atno 13562 bound_to 9321
  109.6634  238.1357  331.5553 LP  0  0  0  0  0  0  0  0  0  0  0  0  # atno 13563 bound_to 9321
  106.1589  244.6460  318.6947 LP  0  0  0  0  0  0  0  0  0  0  0  0  # atno 13566 bound_to 5546
  108.2442  243.6902  316.7867 LP  0  0  0  0  0  0  0  0  0  0  0  0  # atno 13567 bound_to 5574
  109.1076  242.2300  316.4368 LP  0  0  0  0  0  0  0  0  0  0  0  0  # atno 13568 bound_to 5574
  110.6674  244.6362  316.5440 LP  0  0  0  0  0  0  0  0  0  0  0  0  # atno 13569 bound_to 5604
  109.3219  249.3462  318.0215 LP  0  0  0  0  0  0  0  0  0  0  0  0  # atno 13570 bound_to 8525
  107.8540  247.2412  316.8133 LP  0  0  0  0  0  0  0  0  0  0  0  0  # atno 13571 bound_to 5523
  106.4213  248.1009  317.2700 LP  0  0  0  0  0  0  0  0  0  0  0  0  # atno 13572 bound_to 5523
  102.2563  242.4124  325.6439 LP  0  0  0  0  0  0  0  0  0  0  0  0  # atno 13573 bound_to 6144
  102.2395  242.1249  323.9359 LP  0  0  0  0  0  0  0  0  0  0  0  0  # atno 13574 bound_to 6144
  109.4862  246.2575  315.7856 LP  0  0  0  0  0  0  0  0  0  0  0  0  # atno 13575 bound_to 8506
  108.8665  247.3063  316.8730 LP  0  0  0  0  0  0  0  0  0  0  0  0  # atno 13576 bound_to 8506
  116.3055  238.9484  332.2343 LP  0  0  0  0  0  0  0  0  0  0  0  0  # atno 13577 bound_to 9175
  116.3578  237.2967  331.7157 LP  0  0  0  0  0  0  0  0  0  0  0  0  # atno 13578 bound_to 9175
  119.4887  240.7440  332.9229 LP  0  0  0  0  0  0  0  0  0  0  0  0  # atno 13579 bound_to 9178
  119.9620  240.0168  331.5395 LP  0  0  0  0  0  0  0  0  0  0  0  0  # atno 13580 bound_to 9178
  113.6485  235.4830  329.2154 LP  0  0  0  0  0  0  0  0  0  0  0  0  # atno 13581 bound_to 9234
  114.3065  234.1407  330.0902 LP  0  0  0  0  0  0  0  0  0  0  0  0  # atno 13582 bound_to 9234
  116.3236  234.8076  329.0824 LP  0  0  0  0  0  0  0  0  0  0  0  0  # atno 13583 bound_to 9265
  116.1394  234.7668  332.5698 LP  0  0  0  0  0  0  0  0  0  0  0  0  # atno 13584 bound_to 9282
  112.7013  236.1494  334.9691 LP  0  0  0  0  0  0  0  0  0  0  0  0  # atno 13585 bound_to 9285
  111.9029  236.1859  333.4325 LP  0  0  0  0  0  0  0  0  0  0  0  0  # atno 13586 bound_to 9285
  113.6926  236.9146  333.0647 LP  0  0  0  0  0  0  0  0  0  0  0  0  # atno 13587 bound_to 9318
  112.5719  234.9743  330.3700 LP  0  0  0  0  0  0  0  0  0  0  0  0  # atno 13588 bound_to 9391
  108.9172  235.7515  329.1913 LP  0  0  0  0  0  0  0  0  0  0  0  0  # atno 13592 bound_to 9366
  109.3939  234.0881  329.2658 LP  0  0  0  0  0  0  0  0  0  0  0  0  # atno 13593 bound_to 9366
  112.2058  252.6869  328.5884 LP  0  0  0  0  0  0  0  0  0  0  0  0  # atno 13594 bound_to 12888
  110.9464  251.8828  329.2473 LP  0  0  0  0  0  0  0  0  0  0  0  0  # atno 13595 bound_to 12888
  109.4937  246.9834  338.1515 LP  0  0  0  0  0  0  0  0  0  0  0  0  # atno 13596 bound_to 13450
  110.3023  246.3962  336.8599 LP  0  0  0  0  0  0  0  0  0  0  0  0  # atno 13597 bound_to 13450

> <Gold.Score>
     Fitness  S(hb_ext) S(vdw_ext)  S(hb_int)    S(int)      intcor
     41.67       1.16      29.95       0.00      -0.67      -0.76

> <Gold.Goldscore.Fitness>
41.6713

> <Gold.Goldscore.Internal.Vdw>
-0.7020

> <Gold.Goldscore.Internal.Torsion>
-0.7360

> <Gold.Goldscore.External.Vdw>
29.9500

> <Gold.Goldscore.Internal.HBond>
0.0000

> <Gold.Goldscore.External.HBond>
1.1632

> <Gold.Goldscore.Internal.Correction>
-0.7650

> <Gold.Goldscore.Hbonds>
donor molecule, donor type, donor heavy atom, donor atom, acceptor molecule, acceptor atom, score
      P1  H  8470  8477       L1    11  0.54
      L1  H    10    23       P1  8425  0.04

> <Gold.Goldscore.Internal.Vdw.Weighted>
-0.7020

> <Gold.Goldscore.Internal.Torsion.Weighted>
-0.7360

> <Gold.Goldscore.External.Vdw.Weighted>
41.1812

> <Gold.Goldscore.Internal.HBond.Weighted>
0.0000

> <Gold.Goldscore.External.HBond.Weighted>
1.1632

> <Gold.Goldscore.Internal.Correction.Weighted>
-0.7650

> <Gold.Rescore>
     Score     S(PLP)   S(hbond)     S(cho)   S(metal)  DE(clash)   DE(tors)     intcor
     28.69     -24.27       1.75       0.00       0.00       0.00       0.42       ----

> <Gold.PLP.Fitness>
28.6950

> <Gold.PLP.PLP>
-24.2719

> <Gold.PLP.part.hbond>
-3.9453

> <Gold.PLP.part.metal>
0.0000

> <Gold.PLP.part.buried>
15.0644

> <Gold.PLP.part.nonpolar>
-39.0296

> <Gold.PLP.part.repulsive>
2.3772

> <Gold.PLP.ligand.clash>
0.0000

> <Gold.PLP.ligand.torsion>
0.4165

> <Gold.PLP.Chemscore.Hbond>
1.7520

> <Gold.PLP.Chemscore.CHOScore>
0.0000

> <Gold.PLP.Chemscore.Metal>
0.0000

> <Gold.Chemscore.Hbonds>
donor molecule, donor type, donor heavy atom, donor atom, acceptor molecule, acceptor atom, score
      L1  H    10    23       P1  8425  0.13

> <Gold.PLP.Chemscore.Internal.Correction>
   9.000000E+99

