#       Name:                CT1002167954
#       Creating user name   hitesit
#       Creation time:       Sun Apr 16 20:17:42 2023


#       File generated by GOLD software.
#

@<TRIPOS>MOLECULE
CT1002167954|ligand_prepared|mol2|1|dock3
    29    30     1
SMALL
NO_CHARGES


@<TRIPOS>ATOM
      1 C1         112.9460 243.1719 326.0759 C.3            1 RES1               0.0000
      2 C2         114.0123 244.1379 325.5203 C.ar           1 RES1               0.0000
      3 C3         111.9886 242.8820 324.9237 C.2            1 RES1               0.0000
      4 C4         113.7012 241.9472 326.5803 C.2            1 RES1               0.0000
      5 C5         112.1326 243.7514 327.2566 C.3            1 RES1               0.0000
      6 C6         115.1454 243.6486 324.8771 C.ar           1 RES1               0.0000
      7 C7         113.8758 245.5182 325.6407 C.ar           1 RES1               0.0000
      8 N8         112.0653 241.6558 324.3317 N.am           1 RES1               0.0000
      9 O9         111.2053 243.7304 324.5149 O.2            1 RES1               0.0000
     10 N10        113.4942 240.7552 325.9370 N.am           1 RES1               0.0000
     11 O11        114.4863 242.0072 327.5185 O.2            1 RES1               0.0000
     12 C12        111.3568 242.7037 328.0393 C.3            1 RES1               0.0000
     13 C13        116.1057 244.5082 324.3701 C.ar           1 RES1               0.0000
     14 C14        114.8376 246.3761 325.1332 C.ar           1 RES1               0.0000
     15 C15        112.7338 240.5604 324.8162 C.2            1 RES1               0.0000
     16 C16        115.9524 245.8724 324.4973 C.ar           1 RES1               0.0000
     17 O17        112.6399 239.4686 324.2627 O.2            1 RES1               0.0000
     18 H18        112.8195 244.2657 327.9399 H              1 RES1               0.0000
     19 H19        111.4268 244.4957 326.8676 H              1 RES1               0.0000
     20 H20        115.2844 242.5780 324.7698 H              1 RES1               0.0000
     21 H21        113.0076 245.9370 326.1381 H              1 RES1               0.0000
     22 H22        111.5808 241.5430 323.4469 H              1 RES1               0.0000
     23 H23        113.9489 239.9372 326.3300 H              1 RES1               0.0000
     24 H24        110.8039 243.1633 328.8559 H              1 RES1               0.0000
     25 H25        110.6458 242.1895 327.3959 H              1 RES1               0.0000
     26 H26        112.0302 241.9609 328.4619 H              1 RES1               0.0000
     27 H27        116.9819 244.1067 323.8718 H              1 RES1               0.0000
     28 H28        114.7131 247.4490 325.2361 H              1 RES1               0.0000
     29 H29        116.7046 246.5455 324.0997 H              1 RES1               0.0000
@<TRIPOS>BOND
    1    1    2 1     
    2    1    3 1     
    3    1    4 1     
    4    1    5 1     
    5    2    6 ar    
    6    2    7 ar    
    7    3    8 1     
    8    3    9 2     
    9    4   10 1     
   10    4   11 2     
   11    5   12 1     
   12    5   18 1     
   13    5   19 1     
   14    6   13 ar    
   15    6   20 1     
   16    7   14 ar    
   17    7   21 1     
   18    8   15 1     
   19    8   22 1     
   20   10   15 1     
   21   10   23 1     
   22   12   24 1     
   23   12   25 1     
   24   12   26 1     
   25   13   16 ar    
   26   13   27 1     
   27   14   16 ar    
   28   14   28 1     
   29   15   17 2     
   30   16   29 1     
@<TRIPOS>SUBSTRUCTURE
      1 RES1           1
@<TRIPOS>SET
DONOR_HYDROGENS      STATIC     ATOMS    <user>   **** ""
2 22 23
ATOM$RED        STATIC     ATOMS    COLORGROUP SYSTEM
2 22 23
@<TRIPOS>COMMENT
> <Gold.Version>
2022.3.0

> <Gold.Id.Protein>
unknown|4uh6_clean|pdb

> <Gold.Protein.RotatedTorsions>
[ 8453 8448 8449 8450 ] final  -99.69 input   43.75 | X-H torsion
[ 8477 8470 8471 8472 ] final -126.55 input  101.27 | X-H torsion
[ 9021 9017 9018 9019 ] final  -69.27 input   41.82 | X-H torsion
[ 9055 9041 9042 9043 ] final   91.44 input   38.00 | X-H torsion
[ 9104 9087 9088 9089 ] final    9.63 input   99.63 | X-H torsion
[ 9112 9098 9097 9095 ] final  164.06 input   60.00 | X-H torsion
[ 9142 9125 9126 9127 ] final  101.46 input   87.39 | X-H torsion
[ 9217 9202 9203 9204 ] final  152.75 input  119.00 | X-H torsion
[ 3599 3592 3593 3594 ] final  -13.75 input   87.50 | X-H torsion
[ 9003 8997 8998 8999 ] final   98.62 input   29.71 | X-H torsion
[ 9162 9155 9156 9157 ] final  -62.55 input  127.29 | X-H torsion
[ 11075 11068 11069 11070 ] final  133.37 input   56.03 | X-H torsion
[ 4901 4888 4887 4884 ] final  148.61 input   60.01 | X-H torsion
[ 9007 9002 9001 8998 ] final   90.92 input   59.98 | X-H torsion
[ 8973 8962 8963 8964 ] final -118.70 input   50.05 | X-H torsion
[ 8510 8501 8502 8503 ] final   10.02 input   53.62 | X-H torsion
[ 4917 4907 4908 4909 ] final -130.82 input   25.27 | X-H torsion
[ 8353 8344 8343 8341 ] final  114.84 input   59.99 | X-H torsion
[ 5556 5551 5550 5547 ] final  155.61 input   59.99 | X-H torsion
[ 5580 5571 5572 5573 ] final   55.38 input   51.16 | X-H torsion
[ 9375 9363 9364 9365 ] final -153.90 input  121.73 | X-H torsion
[ 9250 9231 9232 9233 ] final  114.36 input   97.49 | X-H torsion
[ 5552 5546 5547 5548 ] final  167.39 input   98.49 | X-H torsion
[ 5612 5604 5605 5606 ] final  161.37 input  122.00 | X-H torsion
[ 8539 8525 8526 8527 ] final -136.80 input   68.51 | X-H torsion
[ 8514 8506 8505 8502 ] final   31.85 input   59.98 | X-H torsion
[ 9192 9178 9176 9173 ] final   45.96 input   60.02 | X-H torsion
[ 9272 9265 9266 9267 ] final  145.54 input  106.17 | X-H torsion
[ 9298 9282 9283 9284 ] final  141.66 input   76.97 | X-H torsion
[ 9342 9318 9319 9320 ] final -139.53 input  100.94 | X-H torsion
[ 9411 9391 9392 9393 ] final  -83.36 input   95.23 | X-H torsion
[ 12906 12888 12887 12885 ] final   97.98 input   60.01 | X-H torsion
[ 13471 13450 13449 13445 ] final  140.14 input   59.98 | X-H torsion
[ 3579 3563 3564 3565 ] final -105.66 input   99.66 | X-H torsion
[ 13485 8425 8424 8423 ] final   56.25 input    0.00 | X-H torsion
[ 13489 8965 8964 8963 ] final  -33.75 input    0.00 | X-H torsion
[ 13492 9020 9019 9018 ] final   70.31 input   -0.00 | X-H torsion
[ 13495 9044 9043 9042 ] final -140.63 input    0.00 | X-H torsion
[ 13498 9090 9089 9088 ] final  122.34 input    0.00 | X-H torsion
[ 13503 9128 9127 9126 ] final -167.34 input    0.00 | X-H torsion
[ 13516 9000 8999 8998 ] final -129.37 input    0.00 | X-H torsion
[ 13518 8370 8369 8368 ] final  -99.84 input    0.00 | X-H torsion
[ 13522 11071 11070 11069 ] final  115.31 input   -0.00 | X-H torsion
[ 13526 8388 8387 8386 ] final  -68.91 input    0.00 | X-H torsion
[ 13530 8451 8450 8449 ] final -167.34 input    0.00 | X-H torsion
[ 13532 8473 8472 8471 ] final  143.44 input    0.00 | X-H torsion
[ 13539 4910 4909 4908 ] final  111.09 input   -0.00 | X-H torsion
[ 13543 5549 5548 5547 ] final  147.66 input    0.00 | X-H torsion
[ 13547 9205 9204 9203 ] final   -1.41 input   -0.00 | X-H torsion
[ 13556 5645 5644 5643 ] final -113.91 input   -0.00 | X-H torsion
[ 13562 9321 9320 9319 ] final  -98.44 input    0.00 | X-H torsion
[ 13567 5574 5573 5572 ] final  132.19 input    0.00 | X-H torsion
[ 13571 5523 5522 5521 ] final  -21.09 input    0.00 | X-H torsion
[ 13573 6144 6143 6142 ] final -151.87 input    0.00 | X-H torsion
[ 13577 9175 9174 9173 ] final    9.84 input    0.00 | X-H torsion
[ 13581 9234 9233 9232 ] final  -18.28 input    0.00 | X-H torsion
[ 13585 9285 9284 9283 ] final   91.41 input    0.00 | X-H torsion
[ 13592 9366 9365 9364 ] final    9.84 input   -0.00 | X-H torsion

> <Gold.Protein.ActiveResidues>
 TRP311  MET341  HIS342  TRP414  ARG419  CYS420  VAL421  GLY422  LEU429  LEU460 
 SER462  ALA463  ILE464  ASN481  SER482  GLN483  LEU484  ILE485  ARG486  ASP500 
 ALA502  ASN503  TRP566  TYR567  GLY568  LEU569  PRO570  ALA571  VAL572  SER573 
 ASN574  MET575  PRO588  PHE589  SER590  GLY591  TRP592  TYR593  MET594  GLY595 
 THR596  GLU597  ILE598  GLY599  VAL600  ARG601  ASP602  TYR603  ASP605  ARG608 
 ILE653  VAL654  TRP683  PRO687  SER691  PHE696  HIS697  TYR711  HEM750  H4B760 

> <Gold.Protein.RotatedAtoms>
  122.2044  250.4937  329.7273 H   0  0  0  0  0  0  0  0  0  0  0  0  # atno 3579 bound_to 3563
  124.3937  249.6993  328.2808 H   0  0  0  0  0  0  0  0  0  0  0  0  # atno 3599 bound_to 3592
  126.0170  247.7263  318.9818 H   0  0  0  0  0  0  0  0  0  0  0  0  # atno 4901 bound_to 4888
  123.7041  248.2369  315.1889 H   0  0  0  0  0  0  0  0  0  0  0  0  # atno 4917 bound_to 4907
  105.4282  245.5592  318.6825 H   0  0  0  0  0  0  0  0  0  0  0  0  # atno 5552 bound_to 5546
  106.9413  244.2166  322.2215 H   0  0  0  0  0  0  0  0  0  0  0  0  # atno 5556 bound_to 5551
  108.1848  244.0222  318.9062 H   0  0  0  0  0  0  0  0  0  0  0  0  # atno 5580 bound_to 5571
  111.6538  244.7233  316.4930 H   0  0  0  0  0  0  0  0  0  0  0  0  # atno 5612 bound_to 5604
  112.1866  238.8895  322.5131 H   0  0  0  0  0  0  0  0  0  0  0  0  # atno 8353 bound_to 8344
  116.3153  243.6696  319.6977 H   0  0  0  0  0  0  0  0  0  0  0  0  # atno 8453 bound_to 8448
  114.4254  245.7051  319.2681 H   0  0  0  0  0  0  0  0  0  0  0  0  # atno 8477 bound_to 8470
  111.0261  248.3652  319.1433 H   0  0  0  0  0  0  0  0  0  0  0  0  # atno 8510 bound_to 8501
  109.1299  247.2744  317.2333 H   0  0  0  0  0  0  0  0  0  0  0  0  # atno 8514 bound_to 8506
  109.4802  249.6314  317.7593 H   0  0  0  0  0  0  0  0  0  0  0  0  # atno 8539 bound_to 8525
  115.6187  249.7744  315.2111 H   0  0  0  0  0  0  0  0  0  0  0  0  # atno 8973 bound_to 8962
  118.8069  247.8878  316.0499 H   0  0  0  0  0  0  0  0  0  0  0  0  # atno 9003 bound_to 8997
  120.4003  244.7366  315.5622 H   0  0  0  0  0  0  0  0  0  0  0  0  # atno 9007 bound_to 9002
  120.5473  245.0807  317.9560 H   0  0  0  0  0  0  0  0  0  0  0  0  # atno 9021 bound_to 9017
  123.5794  243.7414  320.8435 H   0  0  0  0  0  0  0  0  0  0  0  0  # atno 9055 bound_to 9041
  122.9226  240.3818  322.8551 H   0  0  0  0  0  0  0  0  0  0  0  0  # atno 9104 bound_to 9087
  114.8418  239.1688  322.0346 H   0  0  0  0  0  0  0  0  0  0  0  0  # atno 9112 bound_to 9098
  121.1523  241.5092  326.5028 H   0  0  0  0  0  0  0  0  0  0  0  0  # atno 9142 bound_to 9125
  121.6274  238.7819  328.2651 H   0  0  0  0  0  0  0  0  0  0  0  0  # atno 9162 bound_to 9155
  119.4259  240.3397  331.8269 H   0  0  0  0  0  0  0  0  0  0  0  0  # atno 9192 bound_to 9178
  118.8971  239.6206  330.0730 H   0  0  0  0  0  0  0  0  0  0  0  0  # atno 9217 bound_to 9202
  117.4900  237.6173  328.1468 H   0  0  0  0  0  0  0  0  0  0  0  0  # atno 9250 bound_to 9231
  117.4657  235.0520  329.3919 H   0  0  0  0  0  0  0  0  0  0  0  0  # atno 9272 bound_to 9265
  116.8668  235.8601  332.5879 H   0  0  0  0  0  0  0  0  0  0  0  0  # atno 9298 bound_to 9282
  114.0833  237.7897  333.5481 H   0  0  0  0  0  0  0  0  0  0  0  0  # atno 9342 bound_to 9318
  112.1203  238.4897  330.1052 H   0  0  0  0  0  0  0  0  0  0  0  0  # atno 9375 bound_to 9363
  110.9662  235.1985  329.7175 H   0  0  0  0  0  0  0  0  0  0  0  0  # atno 9411 bound_to 9391
  125.8212  239.1769  325.2076 H   0  0  0  0  0  0  0  0  0  0  0  0  # atno 11075 bound_to 11068
  112.2557  253.1367  328.9484 H   0  0  0  0  0  0  0  0  0  0  0  0  # atno 12906 bound_to 12888
  109.1090  247.0141  338.0434 H   0  0  0  0  0  0  0  0  0  0  0  0  # atno 13471 bound_to 13450
  118.6550  243.7089  318.8398 LP  0  0  0  0  0  0  0  0  0  0  0  0  # atno 13485 bound_to 8425
  117.7920  244.9891  319.6249 LP  0  0  0  0  0  0  0  0  0  0  0  0  # atno 13486 bound_to 8425
  115.1118  242.7886  318.7888 LP  0  0  0  0  0  0  0  0  0  0  0  0  # atno 13487 bound_to 8448
  115.2411  247.1247  318.6530 LP  0  0  0  0  0  0  0  0  0  0  0  0  # atno 13488 bound_to 8470
  115.9841  248.1285  318.2615 LP  0  0  0  0  0  0  0  0  0  0  0  0  # atno 13489 bound_to 8965
  116.6789  246.6132  317.7913 LP  0  0  0  0  0  0  0  0  0  0  0  0  # atno 13490 bound_to 8965
  120.1322  245.7609  319.5132 LP  0  0  0  0  0  0  0  0  0  0  0  0  # atno 13491 bound_to 9017
  122.8344  242.8355  317.7676 LP  0  0  0  0  0  0  0  0  0  0  0  0  # atno 13492 bound_to 9020
  121.4169  242.1983  318.5323 LP  0  0  0  0  0  0  0  0  0  0  0  0  # atno 13493 bound_to 9020
  121.9164  243.5687  320.3241 LP  0  0  0  0  0  0  0  0  0  0  0  0  # atno 13494 bound_to 9041
  122.5838  242.5699  324.2080 LP  0  0  0  0  0  0  0  0  0  0  0  0  # atno 13495 bound_to 9044
  122.0309  243.5417  322.8851 LP  0  0  0  0  0  0  0  0  0  0  0  0  # atno 13496 bound_to 9044
  121.3694  240.6709  322.1060 LP  0  0  0  0  0  0  0  0  0  0  0  0  # atno 13497 bound_to 9087
  124.1524  240.2486  325.4610 LP  0  0  0  0  0  0  0  0  0  0  0  0  # atno 13498 bound_to 9090
  123.4274  238.7690  324.9269 LP  0  0  0  0  0  0  0  0  0  0  0  0  # atno 13499 bound_to 9090
  114.7021  240.3859  323.1054 LP  0  0  0  0  0  0  0  0  0  0  0  0  # atno 13500 bound_to 9098
  114.4665  238.8425  323.5839 LP  0  0  0  0  0  0  0  0  0  0  0  0  # atno 13501 bound_to 9098
  121.9632  240.1775  325.7110 LP  0  0  0  0  0  0  0  0  0  0  0  0  # atno 13502 bound_to 9125
  119.6840  238.4846  328.6662 LP  0  0  0  0  0  0  0  0  0  0  0  0  # atno 13503 bound_to 9128
  119.8157  239.8767  327.6441 LP  0  0  0  0  0  0  0  0  0  0  0  0  # atno 13504 bound_to 9128
  117.9523  238.2411  330.5724 LP  0  0  0  0  0  0  0  0  0  0  0  0  # atno 13505 bound_to 9202
  123.6386  248.1265  328.2188 LP  0  0  0  0  0  0  0  0  0  0  0  0  # atno 13514 bound_to 3592
  118.6329  248.4534  317.6886 LP  0  0  0  0  0  0  0  0  0  0  0  0  # atno 13515 bound_to 8997
  122.2371  246.6087  317.1153 LP  0  0  0  0  0  0  0  0  0  0  0  0  # atno 13516 bound_to 9000
  121.2531  247.9884  317.4733 LP  0  0  0  0  0  0  0  0  0  0  0  0  # atno 13517 bound_to 9000
  119.8295  238.3842  320.0946 LP  0  0  0  0  0  0  0  0  0  0  0  0  # atno 13518 bound_to 8370
  121.0273  238.1127  318.8733 LP  0  0  0  0  0  0  0  0  0  0  0  0  # atno 13519 bound_to 8370
  123.0610  238.2049  329.0859 LP  0  0  0  0  0  0  0  0  0  0  0  0  # atno 13520 bound_to 9155
  125.5916  237.6401  325.9982 LP  0  0  0  0  0  0  0  0  0  0  0  0  # atno 13521 bound_to 11068
  124.3783  237.9980  328.7196 LP  0  0  0  0  0  0  0  0  0  0  0  0  # atno 13522 bound_to 11071
  124.5769  239.7077  328.5265 LP  0  0  0  0  0  0  0  0  0  0  0  0  # atno 13523 bound_to 11071
  125.5869  246.3360  318.2529 LP  0  0  0  0  0  0  0  0  0  0  0  0  # atno 13524 bound_to 4888
  124.4884  247.1832  319.1144 LP  0  0  0  0  0  0  0  0  0  0  0  0  # atno 13525 bound_to 4888
  115.8641  240.6649  317.2115 LP  0  0  0  0  0  0  0  0  0  0  0  0  # atno 13526 bound_to 8388
  115.5164  239.8199  318.6829 LP  0  0  0  0  0  0  0  0  0  0  0  0  # atno 13527 bound_to 8388
  120.0035  246.2895  315.2814 LP  0  0  0  0  0  0  0  0  0  0  0  0  # atno 13528 bound_to 9002
  119.1732  245.0869  314.5527 LP  0  0  0  0  0  0  0  0  0  0  0  0  # atno 13529 bound_to 9002
  112.3646  245.8936  318.0936 LP  0  0  0  0  0  0  0  0  0  0  0  0  # atno 13530 bound_to 8451
  113.0004  244.3519  317.6254 LP  0  0  0  0  0  0  0  0  0  0  0  0  # atno 13531 bound_to 8451
  113.4081  249.3060  316.8678 LP  0  0  0  0  0  0  0  0  0  0  0  0  # atno 13532 bound_to 8473
  114.3019  249.6333  318.3148 LP  0  0  0  0  0  0  0  0  0  0  0  0  # atno 13533 bound_to 8473
  115.2296  249.6810  316.9128 LP  0  0  0  0  0  0  0  0  0  0  0  0  # atno 13534 bound_to 8962
  112.3557  247.8063  318.1625 LP  0  0  0  0  0  0  0  0  0  0  0  0  # atno 13535 bound_to 8501
  122.1169  247.5418  315.4029 LP  0  0  0  0  0  0  0  0  0  0  0  0  # atno 13538 bound_to 4907
  120.1382  249.7617  315.8283 LP  0  0  0  0  0  0  0  0  0  0  0  0  # atno 13539 bound_to 4910
  119.7436  248.3531  314.9010 LP  0  0  0  0  0  0  0  0  0  0  0  0  # atno 13540 bound_to 4910
  110.4548  246.3877  320.1245 LP  0  0  0  0  0  0  0  0  0  0  0  0  # atno 13543 bound_to 5549
  109.3953  247.6869  319.6892 LP  0  0  0  0  0  0  0  0  0  0  0  0  # atno 13544 bound_to 5549
  110.8144  238.2825  321.8827 LP  0  0  0  0  0  0  0  0  0  0  0  0  # atno 13545 bound_to 8344
  111.4789  239.6337  321.2505 LP  0  0  0  0  0  0  0  0  0  0  0  0  # atno 13546 bound_to 8344
  114.3180  239.3930  329.6324 LP  0  0  0  0  0  0  0  0  0  0  0  0  # atno 13547 bound_to 9205
  114.1317  237.8323  328.9048 LP  0  0  0  0  0  0  0  0  0  0  0  0  # atno 13548 bound_to 9205
  107.7411  244.1224  320.8073 LP  0  0  0  0  0  0  0  0  0  0  0  0  # atno 13553 bound_to 5551
  106.1217  243.9162  320.8479 LP  0  0  0  0  0  0  0  0  0  0  0  0  # atno 13554 bound_to 5551
  108.7976  245.6205  319.2890 LP  0  0  0  0  0  0  0  0  0  0  0  0  # atno 13555 bound_to 5571
  111.7465  239.1536  319.0168 LP  0  0  0  0  0  0  0  0  0  0  0  0  # atno 13556 bound_to 5645
  111.4622  240.7878  318.5181 LP  0  0  0  0  0  0  0  0  0  0  0  0  # atno 13557 bound_to 5645
  112.5526  236.9623  330.8407 LP  0  0  0  0  0  0  0  0  0  0  0  0  # atno 13560 bound_to 9363
  116.1205  238.1363  329.1060 LP  0  0  0  0  0  0  0  0  0  0  0  0  # atno 13561 bound_to 9231
  110.1997  236.5439  331.9766 LP  0  0  0  0  0  0  0  0  0  0  0  0  # atno 13562 bound_to 9321
  109.6694  238.1458  331.5859 LP  0  0  0  0  0  0  0  0  0  0  0  0  # atno 13563 bound_to 9321
  106.9033  245.2134  317.8146 LP  0  0  0  0  0  0  0  0  0  0  0  0  # atno 13566 bound_to 5546
  108.6778  243.4416  315.8920 LP  0  0  0  0  0  0  0  0  0  0  0  0  # atno 13567 bound_to 5574
  108.6740  242.4785  317.3316 LP  0  0  0  0  0  0  0  0  0  0  0  0  # atno 13568 bound_to 5574
  110.7836  243.3176  317.0618 LP  0  0  0  0  0  0  0  0  0  0  0  0  # atno 13569 bound_to 5604
  110.1759  250.0135  319.3115 LP  0  0  0  0  0  0  0  0  0  0  0  0  # atno 13570 bound_to 8525
  107.1140  247.4744  316.1986 LP  0  0  0  0  0  0  0  0  0  0  0  0  # atno 13571 bound_to 5523
  107.1613  247.8677  317.8847 LP  0  0  0  0  0  0  0  0  0  0  0  0  # atno 13572 bound_to 5523
  101.6451  242.0700  324.2007 LP  0  0  0  0  0  0  0  0  0  0  0  0  # atno 13573 bound_to 6144
  102.8507  242.4673  325.3791 LP  0  0  0  0  0  0  0  0  0  0  0  0  # atno 13574 bound_to 6144
  110.2734  246.1671  316.8929 LP  0  0  0  0  0  0  0  0  0  0  0  0  # atno 13575 bound_to 8506
  109.1374  246.5399  315.7807 LP  0  0  0  0  0  0  0  0  0  0  0  0  # atno 13576 bound_to 8506
  116.7344  237.7999  332.6704 LP  0  0  0  0  0  0  0  0  0  0  0  0  # atno 13577 bound_to 9175
  115.9288  238.4452  331.2795 LP  0  0  0  0  0  0  0  0  0  0  0  0  # atno 13578 bound_to 9175
  120.9471  239.8670  332.1602 LP  0  0  0  0  0  0  0  0  0  0  0  0  # atno 13579 bound_to 9178
  120.0686  240.6558  333.2883 LP  0  0  0  0  0  0  0  0  0  0  0  0  # atno 13580 bound_to 9178
  113.6489  235.4481  329.1658 LP  0  0  0  0  0  0  0  0  0  0  0  0  # atno 13581 bound_to 9234
  114.3061  234.1756  330.1398 LP  0  0  0  0  0  0  0  0  0  0  0  0  # atno 13582 bound_to 9234
  115.9015  235.6686  329.8770 LP  0  0  0  0  0  0  0  0  0  0  0  0  # atno 13583 bound_to 9265
  115.3778  235.2750  331.8896 LP  0  0  0  0  0  0  0  0  0  0  0  0  # atno 13584 bound_to 9282
  112.3752  236.7501  334.8375 LP  0  0  0  0  0  0  0  0  0  0  0  0  # atno 13585 bound_to 9285
  112.2290  235.5852  333.5641 LP  0  0  0  0  0  0  0  0  0  0  0  0  # atno 13586 bound_to 9285
  114.2110  237.3174  331.8704 LP  0  0  0  0  0  0  0  0  0  0  0  0  # atno 13587 bound_to 9318
  112.5859  234.9571  330.3298 LP  0  0  0  0  0  0  0  0  0  0  0  0  # atno 13588 bound_to 9391
  109.0529  235.6070  328.7117 LP  0  0  0  0  0  0  0  0  0  0  0  0  # atno 13592 bound_to 9366
  109.2582  234.2325  329.7454 LP  0  0  0  0  0  0  0  0  0  0  0  0  # atno 13593 bound_to 9366
  111.3041  251.8257  328.7941 LP  0  0  0  0  0  0  0  0  0  0  0  0  # atno 13594 bound_to 12888
  111.0688  252.8682  330.0288 LP  0  0  0  0  0  0  0  0  0  0  0  0  # atno 13595 bound_to 12888
  110.4221  246.5033  337.2283 LP  0  0  0  0  0  0  0  0  0  0  0  0  # atno 13596 bound_to 13450
  108.9582  246.5046  336.5048 LP  0  0  0  0  0  0  0  0  0  0  0  0  # atno 13597 bound_to 13450

> <Gold.Score>
     Fitness  S(hb_ext) S(vdw_ext)  S(hb_int)    S(int)      intcor
     37.24       5.90      23.14       0.00      -0.47      -0.77

> <Gold.Goldscore.Fitness>
37.2402

> <Gold.Goldscore.Internal.Vdw>
-0.5103

> <Gold.Goldscore.Internal.Torsion>
-0.7282

> <Gold.Goldscore.External.Vdw>
23.1404

> <Gold.Goldscore.Internal.HBond>
0.0000

> <Gold.Goldscore.External.HBond>
5.8954

> <Gold.Goldscore.Internal.Correction>
-0.7653

> <Gold.Goldscore.Hbonds>
donor molecule, donor type, donor heavy atom, donor atom, acceptor molecule, acceptor atom, score
      P1  H  8344  8353       L1    17  0.83
      L1  H     8    22       P1  5579  0.63
      L1  H    10    23       P1  9370  0.08

> <Gold.Goldscore.Internal.Vdw.Weighted>
-0.5103

> <Gold.Goldscore.Internal.Torsion.Weighted>
-0.7282

> <Gold.Goldscore.External.Vdw.Weighted>
31.8180

> <Gold.Goldscore.Internal.HBond.Weighted>
0.0000

> <Gold.Goldscore.External.HBond.Weighted>
5.8954

> <Gold.Goldscore.Internal.Correction.Weighted>
-0.7653

> <Gold.Rescore>
     Score     S(PLP)   S(hbond)     S(cho)   S(metal)  DE(clash)   DE(tors)     intcor
     26.15     -18.80       2.63       0.00       0.00       0.00       0.27       ----

> <Gold.PLP.Fitness>
26.1546

> <Gold.PLP.PLP>
-18.7953

> <Gold.PLP.part.hbond>
-4.1827

> <Gold.PLP.part.metal>
0.0000

> <Gold.PLP.part.buried>
7.4970

> <Gold.PLP.part.nonpolar>
-25.4533

> <Gold.PLP.part.repulsive>
4.7261

> <Gold.PLP.ligand.clash>
0.0000

> <Gold.PLP.ligand.torsion>
0.2683

> <Gold.PLP.Chemscore.Hbond>
2.6320

> <Gold.PLP.Chemscore.CHOScore>
0.0000

> <Gold.PLP.Chemscore.Metal>
0.0000

> <Gold.Chemscore.Hbonds>
donor molecule, donor type, donor heavy atom, donor atom, acceptor molecule, acceptor atom, score
      L1  H     8    22       P1  5579  0.52
      L1  H    10    23       P1  9370  0.70
      P1  H  8344  8353       L1    17  1.00

> <Gold.PLP.Chemscore.Internal.Correction>
   9.000000E+99

