#       Name:                CT1002167954
#       Creating user name   hitesit
#       Creation time:       Sun Apr 16 20:17:49 2023


#       File generated by GOLD software.
#

@<TRIPOS>MOLECULE
CT1002167954|ligand_prepared|mol2|1|dock9
    29    30     1
SMALL
NO_CHARGES


@<TRIPOS>ATOM
      1 C1         113.6714 243.6129 325.0215 C.3            1 RES1               0.0000
      2 C2         112.2731 244.1875 324.7162 C.ar           1 RES1               0.0000
      3 C3         114.1071 244.2279 326.3482 C.2            1 RES1               0.0000
      4 C4         113.5104 242.0973 325.0614 C.2            1 RES1               0.0000
      5 C5         114.7339 243.9524 323.9503 C.3            1 RES1               0.0000
      6 C6         111.9971 244.7601 323.4782 C.ar           1 RES1               0.0000
      7 C7         111.2500 244.1500 325.6599 C.ar           1 RES1               0.0000
      8 N8         114.0903 243.4267 327.4517 N.am           1 RES1               0.0000
      9 O9         114.4227 245.4084 326.4323 O.2            1 RES1               0.0000
     10 N10        113.7136 241.4613 326.2580 N.am           1 RES1               0.0000
     11 O11        113.1932 241.4499 324.0711 O.2            1 RES1               0.0000
     12 C12        116.1553 243.6069 324.3655 C.3            1 RES1               0.0000
     13 C13        110.7429 245.2739 323.1927 C.ar           1 RES1               0.0000
     14 C14        109.9966 244.6646 325.3725 C.ar           1 RES1               0.0000
     15 C15        113.9661 242.0607 327.4619 C.2            1 RES1               0.0000
     16 C16        109.7418 245.2261 324.1394 C.ar           1 RES1               0.0000
     17 O17        114.0828 241.4246 328.5054 O.2            1 RES1               0.0000
     18 H18        114.4930 243.4080 323.0289 H              1 RES1               0.0000
     19 H19        114.6818 245.0256 323.7290 H              1 RES1               0.0000
     20 H20        112.7731 244.8089 322.7216 H              1 RES1               0.0000
     21 H21        111.4280 243.7140 326.6370 H              1 RES1               0.0000
     22 H22        114.1781 243.8858 328.3528 H              1 RES1               0.0000
     23 H23        113.6729 240.4471 326.2507 H              1 RES1               0.0000
     24 H24        116.8607 243.8652 323.5784 H              1 RES1               0.0000
     25 H25        116.4374 244.1503 325.2649 H              1 RES1               0.0000
     26 H26        116.2496 242.5422 324.5691 H              1 RES1               0.0000
     27 H27        110.5479 245.7160 322.2213 H              1 RES1               0.0000
     28 H28        109.2119 244.6254 326.1207 H              1 RES1               0.0000
     29 H29        108.7593 245.6282 323.9154 H              1 RES1               0.0000
@<TRIPOS>BOND
    1    1    2 1     
    2    1    3 1     
    3    1    4 1     
    4    1    5 1     
    5    2    6 ar    
    6    2    7 ar    
    7    3    8 1     
    8    3    9 2     
    9    4   10 1     
   10    4   11 2     
   11    5   12 1     
   12    5   18 1     
   13    5   19 1     
   14    6   13 ar    
   15    6   20 1     
   16    7   14 ar    
   17    7   21 1     
   18    8   15 1     
   19    8   22 1     
   20   10   15 1     
   21   10   23 1     
   22   12   24 1     
   23   12   25 1     
   24   12   26 1     
   25   13   16 ar    
   26   13   27 1     
   27   14   16 ar    
   28   14   28 1     
   29   15   17 2     
   30   16   29 1     
@<TRIPOS>SUBSTRUCTURE
      1 RES1           1
@<TRIPOS>SET
DONOR_HYDROGENS      STATIC     ATOMS    <user>   **** ""
2 22 23
ATOM$RED        STATIC     ATOMS    COLORGROUP SYSTEM
2 22 23
@<TRIPOS>COMMENT
> <Gold.Version>
2022.3.0

> <Gold.Id.Protein>
unknown|4uh6_clean|pdb

> <Gold.Protein.RotatedTorsions>
[ 8453 8448 8449 8450 ] final  135.20 input   43.75 | X-H torsion
[ 8477 8470 8471 8472 ] final   -1.12 input  101.27 | X-H torsion
[ 9021 9017 9018 9019 ] final  154.67 input   41.82 | X-H torsion
[ 9055 9041 9042 9043 ] final   35.39 input   38.00 | X-H torsion
[ 9104 9087 9088 9089 ] final  -74.46 input   99.63 | X-H torsion
[ 9112 9098 9097 9095 ] final  -82.86 input   60.00 | X-H torsion
[ 9142 9125 9126 9127 ] final  -89.08 input   87.39 | X-H torsion
[ 9217 9202 9203 9204 ] final  -43.38 input  119.00 | X-H torsion
[ 3599 3592 3593 3594 ] final -150.87 input   87.50 | X-H torsion
[ 9003 8997 8998 8999 ] final   -9.23 input   29.71 | X-H torsion
[ 9162 9155 9156 9157 ] final  -99.17 input  127.29 | X-H torsion
[ 11075 11068 11069 11070 ] final   21.79 input   56.03 | X-H torsion
[ 4901 4888 4887 4884 ] final  -73.15 input   60.01 | X-H torsion
[ 9007 9002 9001 8998 ] final   42.08 input   59.98 | X-H torsion
[ 8973 8962 8963 8964 ] final   98.31 input   50.05 | X-H torsion
[ 8510 8501 8502 8503 ] final  116.73 input   53.62 | X-H torsion
[ 4917 4907 4908 4909 ] final  131.40 input   25.27 | X-H torsion
[ 8353 8344 8343 8341 ] final   -3.08 input   59.99 | X-H torsion
[ 5556 5551 5550 5547 ] final -173.59 input   59.99 | X-H torsion
[ 5580 5571 5572 5573 ] final  -95.75 input   51.16 | X-H torsion
[ 9375 9363 9364 9365 ] final  -22.43 input  121.73 | X-H torsion
[ 9250 9231 9232 9233 ] final  -43.73 input   97.49 | X-H torsion
[ 5552 5546 5547 5548 ] final -135.69 input   98.49 | X-H torsion
[ 5612 5604 5605 5606 ] final -179.94 input  122.00 | X-H torsion
[ 8539 8525 8526 8527 ] final  105.35 input   68.51 | X-H torsion
[ 8514 8506 8505 8502 ] final  115.05 input   59.98 | X-H torsion
[ 9192 9178 9176 9173 ] final  -28.34 input   60.02 | X-H torsion
[ 9272 9265 9266 9267 ] final  -83.95 input  106.17 | X-H torsion
[ 9298 9282 9283 9284 ] final  -84.51 input   76.97 | X-H torsion
[ 9342 9318 9319 9320 ] final  128.81 input  100.94 | X-H torsion
[ 9411 9391 9392 9393 ] final   91.46 input   95.23 | X-H torsion
[ 12906 12888 12887 12885 ] final -105.51 input   60.01 | X-H torsion
[ 13471 13450 13449 13445 ] final   22.43 input   59.98 | X-H torsion
[ 3579 3563 3564 3565 ] final   19.96 input   99.66 | X-H torsion
[ 13485 8425 8424 8423 ] final   44.04 input    0.00 | X-H torsion
[ 13489 8965 8964 8963 ] final   95.68 input    0.00 | X-H torsion
[ 13492 9020 9019 9018 ] final   37.74 input   -0.00 | X-H torsion
[ 13495 9044 9043 9042 ] final   96.91 input    0.00 | X-H torsion
[ 13498 9090 9089 9088 ] final  -77.53 input    0.00 | X-H torsion
[ 13503 9128 9127 9126 ] final -151.97 input    0.00 | X-H torsion
[ 13516 9000 8999 8998 ] final    9.62 input    0.00 | X-H torsion
[ 13518 8370 8369 8368 ] final  151.91 input    0.00 | X-H torsion
[ 13522 11071 11070 11069 ] final -121.16 input   -0.00 | X-H torsion
[ 13526 8388 8387 8386 ] final  154.47 input    0.00 | X-H torsion
[ 13530 8451 8450 8449 ] final  134.70 input    0.00 | X-H torsion
[ 13532 8473 8472 8471 ] final   23.83 input    0.00 | X-H torsion
[ 13539 4910 4909 4908 ] final   20.24 input   -0.00 | X-H torsion
[ 13543 5549 5548 5547 ] final  -34.55 input    0.00 | X-H torsion
[ 13547 9205 9204 9203 ] final -124.22 input   -0.00 | X-H torsion
[ 13556 5645 5644 5643 ] final   25.72 input   -0.00 | X-H torsion
[ 13562 9321 9320 9319 ] final   52.47 input    0.00 | X-H torsion
[ 13567 5574 5573 5572 ] final -100.96 input    0.00 | X-H torsion
[ 13571 5523 5522 5521 ] final  -14.70 input    0.00 | X-H torsion
[ 13573 6144 6143 6142 ] final -150.07 input    0.00 | X-H torsion
[ 13577 9175 9174 9173 ] final   18.83 input    0.00 | X-H torsion
[ 13581 9234 9233 9232 ] final   -0.04 input    0.00 | X-H torsion
[ 13585 9285 9284 9283 ] final   50.16 input    0.00 | X-H torsion
[ 13592 9366 9365 9364 ] final   52.94 input   -0.00 | X-H torsion

> <Gold.Protein.ActiveResidues>
 TRP311  MET341  HIS342  TRP414  ARG419  CYS420  VAL421  GLY422  LEU429  LEU460 
 SER462  ALA463  ILE464  ASN481  SER482  GLN483  LEU484  ILE485  ARG486  ASP500 
 ALA502  ASN503  TRP566  TYR567  GLY568  LEU569  PRO570  ALA571  VAL572  SER573 
 ASN574  MET575  PRO588  PHE589  SER590  GLY591  TRP592  TYR593  MET594  GLY595 
 THR596  GLU597  ILE598  GLY599  VAL600  ARG601  ASP602  TYR603  ASP605  ARG608 
 ILE653  VAL654  TRP683  PRO687  SER691  PHE696  HIS697  TYR711  HEM750  H4B760 

> <Gold.Protein.RotatedAtoms>
  122.2633  249.3278  328.6643 H   0  0  0  0  0  0  0  0  0  0  0  0  # atno 3579 bound_to 3563
  124.1239  248.1220  328.6335 H   0  0  0  0  0  0  0  0  0  0  0  0  # atno 3599 bound_to 3592
  124.4591  246.9286  318.9621 H   0  0  0  0  0  0  0  0  0  0  0  0  # atno 4901 bound_to 4888
  123.0150  247.1764  314.7881 H   0  0  0  0  0  0  0  0  0  0  0  0  # atno 4917 bound_to 4907
  105.7138  246.1290  318.1360 H   0  0  0  0  0  0  0  0  0  0  0  0  # atno 5552 bound_to 5546
  106.4649  244.1377  322.1026 H   0  0  0  0  0  0  0  0  0  0  0  0  # atno 5556 bound_to 5551
  108.7238  245.6724  318.8576 H   0  0  0  0  0  0  0  0  0  0  0  0  # atno 5580 bound_to 5571
  111.3845  244.8177  316.4577 H   0  0  0  0  0  0  0  0  0  0  0  0  # atno 5612 bound_to 5604
  110.8355  238.2707  321.9077 H   0  0  0  0  0  0  0  0  0  0  0  0  # atno 8353 bound_to 8344
  115.8733  242.7153  318.5379 H   0  0  0  0  0  0  0  0  0  0  0  0  # atno 8453 bound_to 8448
  114.7374  246.7636  318.1437 H   0  0  0  0  0  0  0  0  0  0  0  0  # atno 8477 bound_to 8470
  111.4606  247.3014  318.3297 H   0  0  0  0  0  0  0  0  0  0  0  0  # atno 8510 bound_to 8501
  108.8212  246.9477  316.0734 H   0  0  0  0  0  0  0  0  0  0  0  0  # atno 8514 bound_to 8506
  109.6405  249.2968  319.2124 H   0  0  0  0  0  0  0  0  0  0  0  0  # atno 8539 bound_to 8525
  115.3139  250.2185  316.8016 H   0  0  0  0  0  0  0  0  0  0  0  0  # atno 8973 bound_to 8962
  119.5038  248.4432  317.1462 H   0  0  0  0  0  0  0  0  0  0  0  0  # atno 9003 bound_to 8997
  120.5737  245.4719  315.7303 H   0  0  0  0  0  0  0  0  0  0  0  0  # atno 9007 bound_to 9002
  120.3685  246.2293  319.1211 H   0  0  0  0  0  0  0  0  0  0  0  0  # atno 9021 bound_to 9017
  122.9762  243.8626  321.4099 H   0  0  0  0  0  0  0  0  0  0  0  0  # atno 9055 bound_to 9041
  122.2973  241.3746  322.6804 H   0  0  0  0  0  0  0  0  0  0  0  0  # atno 9104 bound_to 9087
  114.4815  238.7670  323.5002 H   0  0  0  0  0  0  0  0  0  0  0  0  # atno 9112 bound_to 9098
  122.1001  240.2625  325.6889 H   0  0  0  0  0  0  0  0  0  0  0  0  # atno 9142 bound_to 9125
  121.9565  238.5332  327.8891 H   0  0  0  0  0  0  0  0  0  0  0  0  # atno 9162 bound_to 9155
  120.4354  239.8654  331.6398 H   0  0  0  0  0  0  0  0  0  0  0  0  # atno 9192 bound_to 9178
  117.9091  238.3720  330.7751 H   0  0  0  0  0  0  0  0  0  0  0  0  # atno 9217 bound_to 9202
  116.2594  237.9460  329.3437 H   0  0  0  0  0  0  0  0  0  0  0  0  # atno 9250 bound_to 9231
  115.8521  235.1233  329.3891 H   0  0  0  0  0  0  0  0  0  0  0  0  # atno 9272 bound_to 9265
  115.6891  234.7965  332.2676 H   0  0  0  0  0  0  0  0  0  0  0  0  # atno 9298 bound_to 9282
  114.6149  238.2757  332.5040 H   0  0  0  0  0  0  0  0  0  0  0  0  # atno 9342 bound_to 9318
  111.9339  237.2244  331.0985 H   0  0  0  0  0  0  0  0  0  0  0  0  # atno 9375 bound_to 9363
  112.5786  234.9770  330.4094 H   0  0  0  0  0  0  0  0  0  0  0  0  # atno 9411 bound_to 9391
  125.0097  238.4167  326.1367 H   0  0  0  0  0  0  0  0  0  0  0  0  # atno 11075 bound_to 11068
  110.8372  252.3693  329.8195 H   0  0  0  0  0  0  0  0  0  0  0  0  # atno 12906 bound_to 12888
  110.4190  246.5180  337.2634 H   0  0  0  0  0  0  0  0  0  0  0  0  # atno 13471 bound_to 13450
  118.7086  243.6667  319.0110 LP  0  0  0  0  0  0  0  0  0  0  0  0  # atno 13485 bound_to 8425
  117.7384  245.0314  319.4537 LP  0  0  0  0  0  0  0  0  0  0  0  0  # atno 13486 bound_to 8425
  115.5450  243.7240  319.9255 LP  0  0  0  0  0  0  0  0  0  0  0  0  # atno 13487 bound_to 8448
  114.9374  246.0946  319.7472 LP  0  0  0  0  0  0  0  0  0  0  0  0  # atno 13488 bound_to 8470
  116.1793  246.8910  317.3217 LP  0  0  0  0  0  0  0  0  0  0  0  0  # atno 13489 bound_to 8965
  116.4837  247.8506  318.7311 LP  0  0  0  0  0  0  0  0  0  0  0  0  # atno 13490 bound_to 8965
  120.3058  244.6453  318.3815 LP  0  0  0  0  0  0  0  0  0  0  0  0  # atno 13491 bound_to 9017
  122.4634  243.1109  317.6178 LP  0  0  0  0  0  0  0  0  0  0  0  0  # atno 13492 bound_to 9020
  121.7880  241.9229  318.6820 LP  0  0  0  0  0  0  0  0  0  0  0  0  # atno 13493 bound_to 9020
  122.4999  243.4516  319.7762 LP  0  0  0  0  0  0  0  0  0  0  0  0  # atno 13494 bound_to 9041
  121.4666  243.1715  323.3742 LP  0  0  0  0  0  0  0  0  0  0  0  0  # atno 13495 bound_to 9044
  123.1481  242.9401  323.7188 LP  0  0  0  0  0  0  0  0  0  0  0  0  # atno 13496 bound_to 9044
  121.9786  239.7036  322.2762 LP  0  0  0  0  0  0  0  0  0  0  0  0  # atno 13497 bound_to 9087
  123.4404  238.7169  325.2209 LP  0  0  0  0  0  0  0  0  0  0  0  0  # atno 13498 bound_to 9090
  124.1393  240.3008  325.1670 LP  0  0  0  0  0  0  0  0  0  0  0  0  # atno 13499 bound_to 9090
  114.8557  239.2764  322.0009 LP  0  0  0  0  0  0  0  0  0  0  0  0  # atno 13500 bound_to 9098
  114.6758  240.3566  323.2122 LP  0  0  0  0  0  0  0  0  0  0  0  0  # atno 13501 bound_to 9098
  121.0409  241.3908  326.5031 LP  0  0  0  0  0  0  0  0  0  0  0  0  # atno 13502 bound_to 9125
  119.6771  238.6459  328.8325 LP  0  0  0  0  0  0  0  0  0  0  0  0  # atno 13503 bound_to 9128
  119.8227  239.7154  327.4778 LP  0  0  0  0  0  0  0  0  0  0  0  0  # atno 13504 bound_to 9128
  118.9261  239.4719  329.8802 LP  0  0  0  0  0  0  0  0  0  0  0  0  # atno 13505 bound_to 9202
  123.9040  249.6775  327.8720 LP  0  0  0  0  0  0  0  0  0  0  0  0  # atno 13514 bound_to 3592
  117.9406  247.9017  316.5996 LP  0  0  0  0  0  0  0  0  0  0  0  0  # atno 13515 bound_to 8997
  121.1245  247.7733  316.9208 LP  0  0  0  0  0  0  0  0  0  0  0  0  # atno 13516 bound_to 9000
  122.3657  246.8239  317.6678 LP  0  0  0  0  0  0  0  0  0  0  0  0  # atno 13517 bound_to 9000
  120.3999  238.9089  318.9245 LP  0  0  0  0  0  0  0  0  0  0  0  0  # atno 13518 bound_to 8370
  120.4569  237.5880  320.0434 LP  0  0  0  0  0  0  0  0  0  0  0  0  # atno 13519 bound_to 8370
  122.7420  238.4461  329.4503 LP  0  0  0  0  0  0  0  0  0  0  0  0  # atno 13520 bound_to 9155
  126.3950  238.3927  325.0783 LP  0  0  0  0  0  0  0  0  0  0  0  0  # atno 13521 bound_to 11068
  124.6269  239.3945  329.2821 LP  0  0  0  0  0  0  0  0  0  0  0  0  # atno 13522 bound_to 11071
  124.3284  238.3112  327.9640 LP  0  0  0  0  0  0  0  0  0  0  0  0  # atno 13523 bound_to 11071
  125.7903  247.8498  319.1308 LP  0  0  0  0  0  0  0  0  0  0  0  0  # atno 13524 bound_to 4888
  125.8529  246.4722  318.2563 LP  0  0  0  0  0  0  0  0  0  0  0  0  # atno 13525 bound_to 4888
  115.4804  240.4543  318.7603 LP  0  0  0  0  0  0  0  0  0  0  0  0  # atno 13526 bound_to 8388
  115.9000  240.0305  317.1341 LP  0  0  0  0  0  0  0  0  0  0  0  0  # atno 13527 bound_to 8388
  119.4190  246.1291  314.7910 LP  0  0  0  0  0  0  0  0  0  0  0  0  # atno 13528 bound_to 9002
  119.5830  244.5065  314.8737 LP  0  0  0  0  0  0  0  0  0  0  0  0  # atno 13529 bound_to 9002
  112.3560  245.2646  318.6489 LP  0  0  0  0  0  0  0  0  0  0  0  0  # atno 13530 bound_to 8451
  113.0091  244.9809  317.0700 LP  0  0  0  0  0  0  0  0  0  0  0  0  # atno 13531 bound_to 8451
  114.5331  248.9718  317.7971 LP  0  0  0  0  0  0  0  0  0  0  0  0  # atno 13532 bound_to 8473
  113.1769  249.9675  317.3855 LP  0  0  0  0  0  0  0  0  0  0  0  0  # atno 13533 bound_to 8473
  115.5267  249.2483  315.3631 LP  0  0  0  0  0  0  0  0  0  0  0  0  # atno 13534 bound_to 8962
  111.9264  248.8571  318.9660 LP  0  0  0  0  0  0  0  0  0  0  0  0  # atno 13535 bound_to 8501
  122.7943  248.5843  315.7969 LP  0  0  0  0  0  0  0  0  0  0  0  0  # atno 13538 bound_to 4907
  120.6099  248.6279  315.7082 LP  0  0  0  0  0  0  0  0  0  0  0  0  # atno 13539 bound_to 4910
  119.2719  249.4868  315.0211 LP  0  0  0  0  0  0  0  0  0  0  0  0  # atno 13540 bound_to 4910
  109.4073  247.6855  319.6582 LP  0  0  0  0  0  0  0  0  0  0  0  0  # atno 13543 bound_to 5549
  110.4428  246.3892  320.1555 LP  0  0  0  0  0  0  0  0  0  0  0  0  # atno 13544 bound_to 5549
  111.4501  239.6205  321.2376 LP  0  0  0  0  0  0  0  0  0  0  0  0  # atno 13545 bound_to 8344
  112.2036  238.9187  322.5051 LP  0  0  0  0  0  0  0  0  0  0  0  0  # atno 13546 bound_to 8344
  114.2526  237.8763  329.7236 LP  0  0  0  0  0  0  0  0  0  0  0  0  # atno 13547 bound_to 9205
  114.1971  239.3489  328.8135 LP  0  0  0  0  0  0  0  0  0  0  0  0  # atno 13548 bound_to 9205
  107.8698  244.2054  321.2840 LP  0  0  0  0  0  0  0  0  0  0  0  0  # atno 13553 bound_to 5551
  106.4727  243.9126  320.4909 LP  0  0  0  0  0  0  0  0  0  0  0  0  # atno 13554 bound_to 5551
  108.2825  244.0434  319.3354 LP  0  0  0  0  0  0  0  0  0  0  0  0  # atno 13555 bound_to 5571
  111.9830  240.5929  318.2989 LP  0  0  0  0  0  0  0  0  0  0  0  0  # atno 13556 bound_to 5645
  111.2258  239.3485  319.2360 LP  0  0  0  0  0  0  0  0  0  0  0  0  # atno 13557 bound_to 5645
  112.7333  238.1893  329.8775 LP  0  0  0  0  0  0  0  0  0  0  0  0  # atno 13560 bound_to 9363
  117.3099  237.8185  327.9491 LP  0  0  0  0  0  0  0  0  0  0  0  0  # atno 13561 bound_to 9231
  109.7826  238.1675  332.0053 LP  0  0  0  0  0  0  0  0  0  0  0  0  # atno 13562 bound_to 9321
  110.0864  236.5222  331.5571 LP  0  0  0  0  0  0  0  0  0  0  0  0  # atno 13563 bound_to 9321
  106.6229  244.6538  318.3513 LP  0  0  0  0  0  0  0  0  0  0  0  0  # atno 13566 bound_to 5546
  109.0373  242.1800  316.7157 LP  0  0  0  0  0  0  0  0  0  0  0  0  # atno 13567 bound_to 5574
  108.3145  243.7402  316.5078 LP  0  0  0  0  0  0  0  0  0  0  0  0  # atno 13568 bound_to 5574
  111.0460  243.2257  317.0963 LP  0  0  0  0  0  0  0  0  0  0  0  0  # atno 13569 bound_to 5604
  110.0170  250.3451  317.8713 LP  0  0  0  0  0  0  0  0  0  0  0  0  # atno 13570 bound_to 8525
  107.0281  247.5186  316.1962 LP  0  0  0  0  0  0  0  0  0  0  0  0  # atno 13571 bound_to 5523
  107.2472  247.8236  317.8871 LP  0  0  0  0  0  0  0  0  0  0  0  0  # atno 13572 bound_to 5523
  101.6263  242.0702  324.2205 LP  0  0  0  0  0  0  0  0  0  0  0  0  # atno 13573 bound_to 6144
  102.8695  242.4672  325.3593 LP  0  0  0  0  0  0  0  0  0  0  0  0  # atno 13574 bound_to 6144
  109.5958  247.0250  317.5029 LP  0  0  0  0  0  0  0  0  0  0  0  0  # atno 13575 bound_to 8506
  110.1257  246.0108  316.3379 LP  0  0  0  0  0  0  0  0  0  0  0  0  # atno 13576 bound_to 8506
  116.7335  237.9274  332.7168 LP  0  0  0  0  0  0  0  0  0  0  0  0  # atno 13577 bound_to 9175
  115.9297  238.3177  331.2331 LP  0  0  0  0  0  0  0  0  0  0  0  0  # atno 13578 bound_to 9175
  120.7222  240.3488  333.1672 LP  0  0  0  0  0  0  0  0  0  0  0  0  # atno 13579 bound_to 9178
  119.2771  240.6516  332.4697 LP  0  0  0  0  0  0  0  0  0  0  0  0  # atno 13580 bound_to 9178
  113.6708  235.2531  328.9737 LP  0  0  0  0  0  0  0  0  0  0  0  0  # atno 13581 bound_to 9234
  114.2842  234.3706  330.3319 LP  0  0  0  0  0  0  0  0  0  0  0  0  # atno 13582 bound_to 9234
  117.4630  235.5995  329.8797 LP  0  0  0  0  0  0  0  0  0  0  0  0  # atno 13583 bound_to 9265
  116.5365  236.3213  332.2047 LP  0  0  0  0  0  0  0  0  0  0  0  0  # atno 13584 bound_to 9282
  112.6703  236.2360  334.9817 LP  0  0  0  0  0  0  0  0  0  0  0  0  # atno 13585 bound_to 9285
  111.9339  236.0993  333.4199 LP  0  0  0  0  0  0  0  0  0  0  0  0  # atno 13586 bound_to 9285
  113.6919  236.8428  332.8900 LP  0  0  0  0  0  0  0  0  0  0  0  0  # atno 13587 bound_to 9318
  111.0136  235.1731  329.6552 LP  0  0  0  0  0  0  0  0  0  0  0  0  # atno 13588 bound_to 9391
  109.2648  235.1015  328.3889 LP  0  0  0  0  0  0  0  0  0  0  0  0  # atno 13592 bound_to 9366
  109.0463  234.7381  330.0682 LP  0  0  0  0  0  0  0  0  0  0  0  0  # atno 13593 bound_to 9366
  112.0405  253.3939  329.4321 LP  0  0  0  0  0  0  0  0  0  0  0  0  # atno 13594 bound_to 12888
  111.7614  252.0731  328.5133 LP  0  0  0  0  0  0  0  0  0  0  0  0  # atno 13595 bound_to 12888
  108.9888  246.4930  336.4865 LP  0  0  0  0  0  0  0  0  0  0  0  0  # atno 13596 bound_to 13450
  109.0727  247.0144  338.0318 LP  0  0  0  0  0  0  0  0  0  0  0  0  # atno 13597 bound_to 13450

> <Gold.Score>
     Fitness  S(hb_ext) S(vdw_ext)  S(hb_int)    S(int)      intcor
     32.71       4.28      21.50       0.00      -1.13      -0.76

> <Gold.Goldscore.Fitness>
32.7141

> <Gold.Goldscore.Internal.Vdw>
-1.3476

> <Gold.Goldscore.Internal.Torsion>
-0.5429

> <Gold.Goldscore.External.Vdw>
21.4955

> <Gold.Goldscore.Internal.HBond>
0.0000

> <Gold.Goldscore.External.HBond>
4.2833

> <Gold.Goldscore.Internal.Correction>
-0.7650

> <Gold.Goldscore.Hbonds>
donor molecule, donor type, donor heavy atom, donor atom, acceptor molecule, acceptor atom, score
      L1  H    10    23       P1  9370  0.71

> <Gold.Goldscore.Internal.Vdw.Weighted>
-1.3476

> <Gold.Goldscore.Internal.Torsion.Weighted>
-0.5429

> <Gold.Goldscore.External.Vdw.Weighted>
29.5563

> <Gold.Goldscore.Internal.HBond.Weighted>
0.0000

> <Gold.Goldscore.External.HBond.Weighted>
4.2833

> <Gold.Goldscore.Internal.Correction.Weighted>
-0.7650

> <Gold.Rescore>
     Score     S(PLP)   S(hbond)     S(cho)   S(metal)  DE(clash)   DE(tors)     intcor
     18.78     -19.00       1.00       0.00       0.00       0.00       1.61       ----

> <Gold.PLP.Fitness>
18.7785

> <Gold.PLP.PLP>
-19.0023

> <Gold.PLP.part.hbond>
-2.0660

> <Gold.PLP.part.metal>
0.0000

> <Gold.PLP.part.buried>
0.1453

> <Gold.PLP.part.nonpolar>
-22.3306

> <Gold.PLP.part.repulsive>
4.6109

> <Gold.PLP.ligand.clash>
0.0000

> <Gold.PLP.ligand.torsion>
1.6119

> <Gold.PLP.Chemscore.Hbond>
1.0000

> <Gold.PLP.Chemscore.CHOScore>
0.0000

> <Gold.PLP.Chemscore.Metal>
0.0000

> <Gold.Chemscore.Hbonds>
donor molecule, donor type, donor heavy atom, donor atom, acceptor molecule, acceptor atom, score
      L1  H    10    23       P1  9370  0.16
      P1  H  5578  5586       L1    11  0.05

> <Gold.PLP.Chemscore.Internal.Correction>
   9.000000E+99

