#       Name:                CT1002167954
#       Creating user name   hitesit
#       Creation time:       Sun Apr 16 20:17:40 2023


#       File generated by GOLD software.
#

@<TRIPOS>MOLECULE
CT1002167954|ligand_prepared|mol2|1|dock1
    29    30     1
SMALL
NO_CHARGES


@<TRIPOS>ATOM
      1 C1         113.5395 242.3926 326.0201 C.3            1 RES1               0.0000
      2 C2         113.2466 242.6709 327.5086 C.ar           1 RES1               0.0000
      3 C3         113.7306 240.8839 325.8958 C.2            1 RES1               0.0000
      4 C4         112.3457 242.9346 325.2418 C.2            1 RES1               0.0000
      5 C5         114.8124 243.0941 325.4920 C.3            1 RES1               0.0000
      6 C6         114.2663 243.0653 328.3697 C.ar           1 RES1               0.0000
      7 C7         111.9637 242.5403 328.0337 C.ar           1 RES1               0.0000
      8 N8         112.7283 240.1658 325.3130 N.am           1 RES1               0.0000
      9 O9         114.7282 240.3276 326.3381 O.2            1 RES1               0.0000
     10 N10        111.5550 242.0378 324.5722 N.am           1 RES1               0.0000
     11 O11        112.0729 244.1284 325.2162 O.2            1 RES1               0.0000
     12 C12        114.9157 243.1165 323.9751 C.3            1 RES1               0.0000
     13 C13        114.0122 243.3228 329.7066 C.ar           1 RES1               0.0000
     14 C14        111.7118 242.7980 329.3711 C.ar           1 RES1               0.0000
     15 C15        111.6744 240.6750 324.5977 C.2            1 RES1               0.0000
     16 C16        112.7349 243.1897 330.2081 C.ar           1 RES1               0.0000
     17 O17        110.8912 239.9318 324.0134 O.2            1 RES1               0.0000
     18 H18        114.8259 244.1267 325.8620 H              1 RES1               0.0000
     19 H19        115.6928 242.5809 325.8982 H              1 RES1               0.0000
     20 H20        115.2782 243.1730 327.9936 H              1 RES1               0.0000
     21 H21        111.1436 242.2323 327.3940 H              1 RES1               0.0000
     22 H22        112.7657 239.1570 325.4190 H              1 RES1               0.0000
     23 H23        110.8084 242.4218 324.0017 H              1 RES1               0.0000
     24 H24        115.8265 243.6199 323.6578 H              1 RES1               0.0000
     25 H25        114.9304 242.1050 323.5745 H              1 RES1               0.0000
     26 H26        114.0686 243.6416 323.5385 H              1 RES1               0.0000
     27 H27        114.8210 243.6295 330.3615 H              1 RES1               0.0000
     28 H28        110.7052 242.6914 329.7616 H              1 RES1               0.0000
     29 H29        112.5360 243.3918 331.2554 H              1 RES1               0.0000
@<TRIPOS>BOND
    1    1    2 1     
    2    1    3 1     
    3    1    4 1     
    4    1    5 1     
    5    2    6 ar    
    6    2    7 ar    
    7    3    8 1     
    8    3    9 2     
    9    4   10 1     
   10    4   11 2     
   11    5   12 1     
   12    5   18 1     
   13    5   19 1     
   14    6   13 ar    
   15    6   20 1     
   16    7   14 ar    
   17    7   21 1     
   18    8   15 1     
   19    8   22 1     
   20   10   15 1     
   21   10   23 1     
   22   12   24 1     
   23   12   25 1     
   24   12   26 1     
   25   13   16 ar    
   26   13   27 1     
   27   14   16 ar    
   28   14   28 1     
   29   15   17 2     
   30   16   29 1     
@<TRIPOS>SUBSTRUCTURE
      1 RES1           1
@<TRIPOS>SET
DONOR_HYDROGENS      STATIC     ATOMS    <user>   **** ""
2 22 23
ATOM$RED        STATIC     ATOMS    COLORGROUP SYSTEM
2 22 23
@<TRIPOS>COMMENT
> <Gold.Version>
2022.3.0

> <Gold.Id.Protein>
unknown|4uh6_clean|pdb

> <Gold.Protein.RotatedTorsions>
[ 8453 8448 8449 8450 ] final  171.46 input   43.75 | X-H torsion
[ 8477 8470 8471 8472 ] final -139.48 input  101.27 | X-H torsion
[ 9021 9017 9018 9019 ] final   69.68 input   41.82 | X-H torsion
[ 9055 9041 9042 9043 ] final   33.74 input   38.00 | X-H torsion
[ 9104 9087 9088 9089 ] final -159.36 input   99.63 | X-H torsion
[ 9112 9098 9097 9095 ] final  -72.58 input   60.00 | X-H torsion
[ 9142 9125 9126 9127 ] final  135.30 input   87.39 | X-H torsion
[ 9217 9202 9203 9204 ] final -126.86 input  119.00 | X-H torsion
[ 3599 3592 3593 3594 ] final  178.71 input   87.50 | X-H torsion
[ 9003 8997 8998 8999 ] final -122.62 input   29.71 | X-H torsion
[ 9162 9155 9156 9157 ] final -140.13 input  127.29 | X-H torsion
[ 11075 11068 11069 11070 ] final   37.90 input   56.03 | X-H torsion
[ 4901 4888 4887 4884 ] final  -98.19 input   60.01 | X-H torsion
[ 9007 9002 9001 8998 ] final  -98.92 input   59.98 | X-H torsion
[ 8973 8962 8963 8964 ] final  149.10 input   50.05 | X-H torsion
[ 8510 8501 8502 8503 ] final   14.34 input   53.62 | X-H torsion
[ 4917 4907 4908 4909 ] final   77.81 input   25.27 | X-H torsion
[ 8353 8344 8343 8341 ] final -133.69 input   59.99 | X-H torsion
[ 5556 5551 5550 5547 ] final -154.34 input   59.99 | X-H torsion
[ 5580 5571 5572 5573 ] final  123.88 input   51.16 | X-H torsion
[ 9375 9363 9364 9365 ] final -128.09 input  121.73 | X-H torsion
[ 9250 9231 9232 9233 ] final   94.08 input   97.49 | X-H torsion
[ 5552 5546 5547 5548 ] final   48.49 input   98.49 | X-H torsion
[ 5612 5604 5605 5606 ] final  -46.15 input  122.00 | X-H torsion
[ 8539 8525 8526 8527 ] final -125.36 input   68.51 | X-H torsion
[ 8514 8506 8505 8502 ] final   25.03 input   59.98 | X-H torsion
[ 9192 9178 9176 9173 ] final  -54.02 input   60.02 | X-H torsion
[ 9272 9265 9266 9267 ] final   86.52 input  106.17 | X-H torsion
[ 9298 9282 9283 9284 ] final  -85.03 input   76.97 | X-H torsion
[ 9342 9318 9319 9320 ] final -159.00 input  100.94 | X-H torsion
[ 9411 9391 9392 9393 ] final   40.08 input   95.23 | X-H torsion
[ 12906 12888 12887 12885 ] final  174.21 input   60.01 | X-H torsion
[ 13471 13450 13449 13445 ] final  158.61 input   59.98 | X-H torsion
[ 3579 3563 3564 3565 ] final   65.25 input   99.66 | X-H torsion
[ 13485 8425 8424 8423 ] final   28.84 input    0.00 | X-H torsion
[ 13489 8965 8964 8963 ] final  -89.19 input    0.00 | X-H torsion
[ 13492 9020 9019 9018 ] final   30.92 input   -0.00 | X-H torsion
[ 13495 9044 9043 9042 ] final  -71.65 input    0.00 | X-H torsion
[ 13498 9090 9089 9088 ] final  -43.72 input    0.00 | X-H torsion
[ 13503 9128 9127 9126 ] final   18.11 input    0.00 | X-H torsion
[ 13516 9000 8999 8998 ] final -163.39 input    0.00 | X-H torsion
[ 13518 8370 8369 8368 ] final  -32.66 input    0.00 | X-H torsion
[ 13522 11071 11070 11069 ] final   79.58 input   -0.00 | X-H torsion
[ 13526 8388 8387 8386 ] final   37.76 input    0.00 | X-H torsion
[ 13530 8451 8450 8449 ] final   99.55 input    0.00 | X-H torsion
[ 13532 8473 8472 8471 ] final -105.20 input    0.00 | X-H torsion
[ 13539 4910 4909 4908 ] final  -56.57 input   -0.00 | X-H torsion
[ 13543 5549 5548 5547 ] final   14.67 input    0.00 | X-H torsion
[ 13547 9205 9204 9203 ] final  -95.04 input   -0.00 | X-H torsion
[ 13556 5645 5644 5643 ] final  176.99 input   -0.00 | X-H torsion
[ 13562 9321 9320 9319 ] final  -31.49 input    0.00 | X-H torsion
[ 13567 5574 5573 5572 ] final  155.70 input    0.00 | X-H torsion
[ 13571 5523 5522 5521 ] final   51.38 input    0.00 | X-H torsion
[ 13573 6144 6143 6142 ] final   92.15 input    0.00 | X-H torsion
[ 13577 9175 9174 9173 ] final   56.15 input    0.00 | X-H torsion
[ 13581 9234 9233 9232 ] final  153.46 input    0.00 | X-H torsion
[ 13585 9285 9284 9283 ] final    6.97 input    0.00 | X-H torsion
[ 13592 9366 9365 9364 ] final -137.78 input   -0.00 | X-H torsion

> <Gold.Protein.ActiveResidues>
 TRP311  MET341  HIS342  TRP414  ARG419  CYS420  VAL421  GLY422  LEU429  LEU460 
 SER462  ALA463  ILE464  ASN481  SER482  GLN483  LEU484  ILE485  ARG486  ASP500 
 ALA502  ASN503  TRP566  TYR567  GLY568  LEU569  PRO570  ALA571  VAL572  SER573 
 ASN574  MET575  PRO588  PHE589  SER590  GLY591  TRP592  TYR593  MET594  GLY595 
 THR596  GLU597  ILE598  GLY599  VAL600  ARG601  ASP602  TYR603  ASP605  ARG608 
 ILE653  VAL654  TRP683  PRO687  SER691  PHE696  HIS697  TYR711  HEM750  H4B760 

> <Gold.Protein.RotatedAtoms>
  121.9166  248.8840  329.0514 H   0  0  0  0  0  0  0  0  0  0  0  0  # atno 3579 bound_to 3563
  123.7627  248.0685  328.3508 H   0  0  0  0  0  0  0  0  0  0  0  0  # atno 3599 bound_to 3592
  124.5291  247.2777  319.1576 H   0  0  0  0  0  0  0  0  0  0  0  0  # atno 4901 bound_to 4888
  122.3084  247.2566  315.1409 H   0  0  0  0  0  0  0  0  0  0  0  0  # atno 4917 bound_to 4907
  106.5853  244.6209  318.3940 H   0  0  0  0  0  0  0  0  0  0  0  0  # atno 5552 bound_to 5546
  106.2270  244.0795  321.9075 H   0  0  0  0  0  0  0  0  0  0  0  0  # atno 5556 bound_to 5551
  108.5554  244.2877  319.8067 H   0  0  0  0  0  0  0  0  0  0  0  0  # atno 5580 bound_to 5571
  110.4673  243.5669  316.9557 H   0  0  0  0  0  0  0  0  0  0  0  0  # atno 5612 bound_to 5604
  111.5973  239.6717  321.3145 H   0  0  0  0  0  0  0  0  0  0  0  0  # atno 8353 bound_to 8344
  116.3496  242.9237  318.7141 H   0  0  0  0  0  0  0  0  0  0  0  0  # atno 8453 bound_to 8448
  114.5277  245.7462  319.4346 H   0  0  0  0  0  0  0  0  0  0  0  0  # atno 8477 bound_to 8470
  110.9942  248.3095  319.1274 H   0  0  0  0  0  0  0  0  0  0  0  0  # atno 8510 bound_to 8501
  109.2099  247.2447  317.3048 H   0  0  0  0  0  0  0  0  0  0  0  0  # atno 8514 bound_to 8506
  109.5685  249.7717  317.7047 H   0  0  0  0  0  0  0  0  0  0  0  0  # atno 8539 bound_to 8525
  115.4867  250.6046  316.1711 H   0  0  0  0  0  0  0  0  0  0  0  0  # atno 8973 bound_to 8962
  118.0877  248.2797  317.4661 H   0  0  0  0  0  0  0  0  0  0  0  0  # atno 9003 bound_to 8997
  119.2454  245.8751  314.6411 H   0  0  0  0  0  0  0  0  0  0  0  0  # atno 9007 bound_to 9002
  120.0271  245.1564  319.5327 H   0  0  0  0  0  0  0  0  0  0  0  0  # atno 9021 bound_to 9017
  122.9514  243.8633  321.4165 H   0  0  0  0  0  0  0  0  0  0  0  0  # atno 9055 bound_to 9041
  121.3752  240.8362  322.1426 H   0  0  0  0  0  0  0  0  0  0  0  0  # atno 9104 bound_to 9087
  114.4662  238.8887  323.6146 H   0  0  0  0  0  0  0  0  0  0  0  0  # atno 9112 bound_to 9098
  121.6136  241.6833  326.3508 H   0  0  0  0  0  0  0  0  0  0  0  0  # atno 9142 bound_to 9125
  122.5006  238.2358  327.8427 H   0  0  0  0  0  0  0  0  0  0  0  0  # atno 9162 bound_to 9155
  120.7658  239.8317  331.8905 H   0  0  0  0  0  0  0  0  0  0  0  0  # atno 9192 bound_to 9178
  118.2843  239.4545  331.0129 H   0  0  0  0  0  0  0  0  0  0  0  0  # atno 9217 bound_to 9202
  117.5602  237.4823  328.4208 H   0  0  0  0  0  0  0  0  0  0  0  0  # atno 9250 bound_to 9231
  117.4201  235.6891  329.9915 H   0  0  0  0  0  0  0  0  0  0  0  0  # atno 9272 bound_to 9265
  115.6948  234.7936  332.2724 H   0  0  0  0  0  0  0  0  0  0  0  0  # atno 9298 bound_to 9282
  114.2429  238.0197  333.4428 H   0  0  0  0  0  0  0  0  0  0  0  0  # atno 9342 bound_to 9318
  111.8259  238.4297  330.3643 H   0  0  0  0  0  0  0  0  0  0  0  0  # atno 9375 bound_to 9363
  112.0299  235.2764  330.8546 H   0  0  0  0  0  0  0  0  0  0  0  0  # atno 9411 bound_to 9391
  124.9966  238.6488  326.0576 H   0  0  0  0  0  0  0  0  0  0  0  0  # atno 11075 bound_to 11068
  111.5822  253.3174  329.8699 H   0  0  0  0  0  0  0  0  0  0  0  0  # atno 12906 bound_to 12888
  108.8628  246.9969  337.8715 H   0  0  0  0  0  0  0  0  0  0  0  0  # atno 13471 bound_to 13450
  118.7445  243.6573  319.2369 LP  0  0  0  0  0  0  0  0  0  0  0  0  # atno 13485 bound_to 8425
  117.7025  245.0408  319.2278 LP  0  0  0  0  0  0  0  0  0  0  0  0  # atno 13486 bound_to 8425
  115.0782  243.5197  319.7529 LP  0  0  0  0  0  0  0  0  0  0  0  0  # atno 13487 bound_to 8448
  115.1415  247.0847  318.4910 LP  0  0  0  0  0  0  0  0  0  0  0  0  # atno 13488 bound_to 8470
  116.5320  247.7991  318.7519 LP  0  0  0  0  0  0  0  0  0  0  0  0  # atno 13489 bound_to 8965
  116.1311  246.9425  317.3009 LP  0  0  0  0  0  0  0  0  0  0  0  0  # atno 13490 bound_to 8965
  120.6374  245.6874  317.9818 LP  0  0  0  0  0  0  0  0  0  0  0  0  # atno 13491 bound_to 9017
  122.3675  243.1468  317.6070 LP  0  0  0  0  0  0  0  0  0  0  0  0  # atno 13492 bound_to 9020
  121.8838  241.8870  318.6928 LP  0  0  0  0  0  0  0  0  0  0  0  0  # atno 13493 bound_to 9020
  122.5238  243.4508  319.7698 LP  0  0  0  0  0  0  0  0  0  0  0  0  # atno 13494 bound_to 9041
  123.1725  243.0420  323.5816 LP  0  0  0  0  0  0  0  0  0  0  0  0  # atno 13495 bound_to 9044
  121.4421  243.0696  323.5114 LP  0  0  0  0  0  0  0  0  0  0  0  0  # atno 13496 bound_to 9044
  122.8769  240.2282  322.8001 LP  0  0  0  0  0  0  0  0  0  0  0  0  # atno 13497 bound_to 9087
  123.4441  238.8590  324.7378 LP  0  0  0  0  0  0  0  0  0  0  0  0  # atno 13498 bound_to 9090
  124.1356  240.1587  325.6502 LP  0  0  0  0  0  0  0  0  0  0  0  0  # atno 13499 bound_to 9090
  114.8323  239.1152  322.0454 LP  0  0  0  0  0  0  0  0  0  0  0  0  # atno 13500 bound_to 9098
  114.7146  240.3953  323.0525 LP  0  0  0  0  0  0  0  0  0  0  0  0  # atno 13501 bound_to 9098
  121.5144  240.0081  325.8590 LP  0  0  0  0  0  0  0  0  0  0  0  0  # atno 13502 bound_to 9125
  119.8188  239.8246  327.5802 LP  0  0  0  0  0  0  0  0  0  0  0  0  # atno 13503 bound_to 9128
  119.6810  238.5366  328.7301 LP  0  0  0  0  0  0  0  0  0  0  0  0  # atno 13504 bound_to 9128
  118.5564  238.4049  329.6458 LP  0  0  0  0  0  0  0  0  0  0  0  0  # atno 13505 bound_to 9202
  124.2591  249.7301  328.1500 LP  0  0  0  0  0  0  0  0  0  0  0  0  # atno 13514 bound_to 3592
  119.3473  248.0641  316.2818 LP  0  0  0  0  0  0  0  0  0  0  0  0  # atno 13515 bound_to 8997
  122.3655  246.7659  317.5795 LP  0  0  0  0  0  0  0  0  0  0  0  0  # atno 13516 bound_to 9000
  121.1247  247.8312  317.0091 LP  0  0  0  0  0  0  0  0  0  0  0  0  # atno 13517 bound_to 9000
  120.4059  237.6188  320.0782 LP  0  0  0  0  0  0  0  0  0  0  0  0  # atno 13518 bound_to 8370
  120.4509  238.8781  318.8897 LP  0  0  0  0  0  0  0  0  0  0  0  0  # atno 13519 bound_to 8370
  122.2146  238.7344  329.4954 LP  0  0  0  0  0  0  0  0  0  0  0  0  # atno 13520 bound_to 9155
  126.4080  238.1630  325.1566 LP  0  0  0  0  0  0  0  0  0  0  0  0  # atno 13521 bound_to 11068
  124.3309  238.1102  328.2024 LP  0  0  0  0  0  0  0  0  0  0  0  0  # atno 13522 bound_to 11071
  124.6244  239.5955  329.0437 LP  0  0  0  0  0  0  0  0  0  0  0  0  # atno 13523 bound_to 11071
  126.0923  247.6668  318.9250 LP  0  0  0  0  0  0  0  0  0  0  0  0  # atno 13524 bound_to 4888
  125.4805  246.3039  318.2655 LP  0  0  0  0  0  0  0  0  0  0  0  0  # atno 13525 bound_to 4888
  115.7568  239.3973  317.7700 LP  0  0  0  0  0  0  0  0  0  0  0  0  # atno 13526 bound_to 8388
  115.6237  241.0875  318.1243 LP  0  0  0  0  0  0  0  0  0  0  0  0  # atno 13527 bound_to 8388
  119.8416  244.4280  315.0858 LP  0  0  0  0  0  0  0  0  0  0  0  0  # atno 13528 bound_to 9002
  120.4986  245.8014  315.6763 LP  0  0  0  0  0  0  0  0  0  0  0  0  # atno 13529 bound_to 9002
  112.5137  244.7663  318.6305 LP  0  0  0  0  0  0  0  0  0  0  0  0  # atno 13530 bound_to 8451
  112.8513  245.4792  317.0885 LP  0  0  0  0  0  0  0  0  0  0  0  0  # atno 13531 bound_to 8451
  113.5279  250.1491  318.0172 LP  0  0  0  0  0  0  0  0  0  0  0  0  # atno 13532 bound_to 8473
  114.1821  248.7902  317.1654 LP  0  0  0  0  0  0  0  0  0  0  0  0  # atno 13533 bound_to 8473
  115.3583  248.8720  315.9774 LP  0  0  0  0  0  0  0  0  0  0  0  0  # atno 13534 bound_to 8962
  112.3871  247.8613  318.1781 LP  0  0  0  0  0  0  0  0  0  0  0  0  # atno 13535 bound_to 8501
  123.4888  248.5054  315.4501 LP  0  0  0  0  0  0  0  0  0  0  0  0  # atno 13538 bound_to 4907
  119.8917  248.2798  314.9865 LP  0  0  0  0  0  0  0  0  0  0  0  0  # atno 13539 bound_to 4910
  119.9901  249.8349  315.7428 LP  0  0  0  0  0  0  0  0  0  0  0  0  # atno 13540 bound_to 4910
  109.3428  247.4989  320.3519 LP  0  0  0  0  0  0  0  0  0  0  0  0  # atno 13543 bound_to 5549
  110.5072  246.5758  319.4618 LP  0  0  0  0  0  0  0  0  0  0  0  0  # atno 13544 bound_to 5549
  112.1256  238.7752  322.5658 LP  0  0  0  0  0  0  0  0  0  0  0  0  # atno 13545 bound_to 8344
  110.7611  238.3534  321.7741 LP  0  0  0  0  0  0  0  0  0  0  0  0  # atno 13546 bound_to 8344
  114.3118  238.1911  330.0201 LP  0  0  0  0  0  0  0  0  0  0  0  0  # atno 13547 bound_to 9205
  114.1378  239.0342  328.5171 LP  0  0  0  0  0  0  0  0  0  0  0  0  # atno 13548 bound_to 9205
  107.8155  244.2411  321.5925 LP  0  0  0  0  0  0  0  0  0  0  0  0  # atno 13553 bound_to 5551
  106.7665  243.9355  320.3789 LP  0  0  0  0  0  0  0  0  0  0  0  0  # atno 13554 bound_to 5551
  108.4434  245.3667  318.4284 LP  0  0  0  0  0  0  0  0  0  0  0  0  # atno 13555 bound_to 5571
  110.9528  239.6797  319.2581 LP  0  0  0  0  0  0  0  0  0  0  0  0  # atno 13556 bound_to 5645
  112.2559  240.2617  318.2767 LP  0  0  0  0  0  0  0  0  0  0  0  0  # atno 13557 bound_to 5645
  112.8381  237.0205  330.5895 LP  0  0  0  0  0  0  0  0  0  0  0  0  # atno 13560 bound_to 9363
  116.0526  238.2667  328.8412 LP  0  0  0  0  0  0  0  0  0  0  0  0  # atno 13561 bound_to 9231
  110.1894  237.2634  332.6049 LP  0  0  0  0  0  0  0  0  0  0  0  0  # atno 13562 bound_to 9321
  109.6797  237.4263  330.9576 LP  0  0  0  0  0  0  0  0  0  0  0  0  # atno 13563 bound_to 9321
  105.7670  246.1348  318.0979 LP  0  0  0  0  0  0  0  0  0  0  0  0  # atno 13566 bound_to 5546
  108.8584  243.1567  315.7883 LP  0  0  0  0  0  0  0  0  0  0  0  0  # atno 13567 bound_to 5574
  108.4934  242.7635  317.4352 LP  0  0  0  0  0  0  0  0  0  0  0  0  # atno 13568 bound_to 5574
  111.9397  244.4444  316.6111 LP  0  0  0  0  0  0  0  0  0  0  0  0  # atno 13569 bound_to 5604
  110.0884  249.8744  319.3656 LP  0  0  0  0  0  0  0  0  0  0  0  0  # atno 13570 bound_to 8525
  106.3939  247.9796  316.7228 LP  0  0  0  0  0  0  0  0  0  0  0  0  # atno 13571 bound_to 5523
  107.8814  247.3626  317.3605 LP  0  0  0  0  0  0  0  0  0  0  0  0  # atno 13572 bound_to 5523
  103.0564  242.3537  324.4915 LP  0  0  0  0  0  0  0  0  0  0  0  0  # atno 13573 bound_to 6144
  101.4394  242.1836  325.0883 LP  0  0  0  0  0  0  0  0  0  0  0  0  # atno 13574 bound_to 6144
  110.2688  246.1201  316.7913 LP  0  0  0  0  0  0  0  0  0  0  0  0  # atno 13575 bound_to 8506
  109.0614  246.6168  315.8104 LP  0  0  0  0  0  0  0  0  0  0  0  0  # atno 13576 bound_to 8506
  116.6287  238.4715  332.7098 LP  0  0  0  0  0  0  0  0  0  0  0  0  # atno 13577 bound_to 9175
  116.0346  237.7736  331.2401 LP  0  0  0  0  0  0  0  0  0  0  0  0  # atno 13578 bound_to 9175
  120.3749  240.5397  333.3028 LP  0  0  0  0  0  0  0  0  0  0  0  0  # atno 13579 bound_to 9178
  119.2917  240.4946  332.0816 LP  0  0  0  0  0  0  0  0  0  0  0  0  # atno 13580 bound_to 9178
  114.3052  234.1074  330.0354 LP  0  0  0  0  0  0  0  0  0  0  0  0  # atno 13581 bound_to 9234
  113.6498  235.5163  329.2702 LP  0  0  0  0  0  0  0  0  0  0  0  0  # atno 13582 bound_to 9234
  115.9456  235.0521  329.2968 LP  0  0  0  0  0  0  0  0  0  0  0  0  # atno 13583 bound_to 9265
  116.5309  236.3242  332.2001 LP  0  0  0  0  0  0  0  0  0  0  0  0  # atno 13584 bound_to 9282
  112.7821  235.6662  334.7186 LP  0  0  0  0  0  0  0  0  0  0  0  0  # atno 13585 bound_to 9285
  111.8221  236.6691  333.6830 LP  0  0  0  0  0  0  0  0  0  0  0  0  # atno 13586 bound_to 9285
  114.0552  237.0928  331.9732 LP  0  0  0  0  0  0  0  0  0  0  0  0  # atno 13587 bound_to 9318
  111.5486  234.8812  329.2210 LP  0  0  0  0  0  0  0  0  0  0  0  0  # atno 13588 bound_to 9391
  109.0979  234.5903  330.0274 LP  0  0  0  0  0  0  0  0  0  0  0  0  # atno 13592 bound_to 9366
  109.2132  235.2493  328.4297 LP  0  0  0  0  0  0  0  0  0  0  0  0  # atno 13593 bound_to 9366
  112.1567  252.5763  328.5401 LP  0  0  0  0  0  0  0  0  0  0  0  0  # atno 13594 bound_to 12888
  110.8946  251.9356  329.3545 LP  0  0  0  0  0  0  0  0  0  0  0  0  # atno 13595 bound_to 12888
  110.4015  246.6054  337.5125 LP  0  0  0  0  0  0  0  0  0  0  0  0  # atno 13596 bound_to 13450
  109.2266  246.4198  336.3936 LP  0  0  0  0  0  0  0  0  0  0  0  0  # atno 13597 bound_to 13450

> <Gold.Score>
     Fitness  S(hb_ext) S(vdw_ext)  S(hb_int)    S(int)      intcor
     42.05       4.19      28.00       0.00      -0.63      -0.77

> <Gold.Goldscore.Fitness>
42.0547

> <Gold.Goldscore.Internal.Vdw>
-0.7079

> <Gold.Goldscore.Internal.Torsion>
-0.6880

> <Gold.Goldscore.External.Vdw>
27.9951

> <Gold.Goldscore.Internal.HBond>
0.0000

> <Gold.Goldscore.External.HBond>
4.1920

> <Gold.Goldscore.Internal.Correction>
-0.7653

> <Gold.Goldscore.Hbonds>
donor molecule, donor type, donor heavy atom, donor atom, acceptor molecule, acceptor atom, score
      P1  H  5690  5702       L1    17  0.46
      P1  H  5693  5706       L1    17  0.11
      P1  H  9538  9550       L1    17  0.02
      L1  H     8    22       P1  9370  0.11

> <Gold.Goldscore.Internal.Vdw.Weighted>
-0.7079

> <Gold.Goldscore.Internal.Torsion.Weighted>
-0.6880

> <Gold.Goldscore.External.Vdw.Weighted>
38.4932

> <Gold.Goldscore.Internal.HBond.Weighted>
0.0000

> <Gold.Goldscore.External.HBond.Weighted>
4.1920

> <Gold.Goldscore.Internal.Correction.Weighted>
-0.7653

> <Gold.Rescore>
     Score     S(PLP)   S(hbond)     S(cho)   S(metal)  DE(clash)   DE(tors)     intcor
     19.84     -16.08       1.80       0.00       0.00       1.26       0.19       ----

> <Gold.PLP.Fitness>
19.8400

> <Gold.PLP.PLP>
-16.0821

> <Gold.PLP.part.hbond>
-6.1446

> <Gold.PLP.part.metal>
0.0000

> <Gold.PLP.part.buried>
7.8556

> <Gold.PLP.part.nonpolar>
-25.3497

> <Gold.PLP.part.repulsive>
7.9481

> <Gold.PLP.ligand.clash>
1.2616

> <Gold.PLP.ligand.torsion>
0.1879

> <Gold.PLP.Chemscore.Hbond>
1.7984

> <Gold.PLP.Chemscore.CHOScore>
0.0000

> <Gold.PLP.Chemscore.Metal>
0.0000

> <Gold.Chemscore.Hbonds>
donor molecule, donor type, donor heavy atom, donor atom, acceptor molecule, acceptor atom, score
      L1  H     8    22       P1  9370  0.38
      P1  H  5690  5702       L1    17  0.88
      P1  H  5693  5706       L1    17  0.14

> <Gold.PLP.Chemscore.Internal.Correction>
   9.000000E+99

