#       Name:                CT1002167954
#       Creating user name   hitesit
#       Creation time:       Sun Apr 16 02:21:28 2023


#       File generated by GOLD software.
#

@<TRIPOS>MOLECULE
CT1002167954|ligand_prepared|mol2|1|dock10
    29    30     1
SMALL
NO_CHARGES


@<TRIPOS>ATOM
      1 C1         -26.4950   9.7944   3.6994 C.3            1 RES1               0.0000
      2 C2         -27.7857   9.8812   4.5393 C.ar           1 RES1               0.0000
      3 C3         -25.8797   8.4307   3.9993 C.2            1 RES1               0.0000
      4 C4         -26.9183   9.9800   2.2464 C.2            1 RES1               0.0000
      5 C5         -25.4549  10.8877   4.0374 C.3            1 RES1               0.0000
      6 C6         -29.0227   9.5962   3.9691 C.ar           1 RES1               0.0000
      7 C7         -27.7550  10.2418   5.8838 C.ar           1 RES1               0.0000
      8 N8         -25.9719   7.4702   3.0356 N.am           1 RES1               0.0000
      9 O9         -25.3563   8.1896   5.0801 O.2            1 RES1               0.0000
     10 N10        -26.7598   8.9211   1.3912 N.am           1 RES1               0.0000
     11 O11        -27.4030  11.0282   1.8383 O.2            1 RES1               0.0000
     12 C12        -24.3495  11.0234   3.0021 C.3            1 RES1               0.0000
     13 C13        -30.1867   9.6661   4.7165 C.ar           1 RES1               0.0000
     14 C14        -28.9202  10.3113   6.6294 C.ar           1 RES1               0.0000
     15 C15        -26.3344   7.6647   1.7269 C.2            1 RES1               0.0000
     16 C16        -30.1362  10.0232   6.0471 C.ar           1 RES1               0.0000
     17 O17        -26.2700   6.7489   0.9119 O.2            1 RES1               0.0000
     18 H18        -25.9721  11.8506   4.1300 H              1 RES1               0.0000
     19 H19        -25.0018  10.6557   5.0092 H              1 RES1               0.0000
     20 H20        -29.0824   9.3157   2.9228 H              1 RES1               0.0000
     21 H21        -26.8097  10.4738   6.3626 H              1 RES1               0.0000
     22 H22        -25.7511   6.5192   3.3136 H              1 RES1               0.0000
     23 H23        -26.9792   9.0847   0.4138 H              1 RES1               0.0000
     24 H24        -23.6472  11.8037   3.2876 H              1 RES1               0.0000
     25 H25        -23.7978  10.0909   2.9023 H              1 RES1               0.0000
     26 H26        -24.7624  11.2788   2.0283 H              1 RES1               0.0000
     27 H27        -31.1413   9.4397   4.2532 H              1 RES1               0.0000
     28 H28        -28.8758  10.5935   7.6762 H              1 RES1               0.0000
     29 H29        -31.0481  10.0776   6.6326 H              1 RES1               0.0000
@<TRIPOS>BOND
    1    1    2 1     
    2    1    3 1     
    3    1    4 1     
    4    1    5 1     
    5    2    6 ar    
    6    2    7 ar    
    7    3    8 1     
    8    3    9 2     
    9    4   10 1     
   10    4   11 2     
   11    5   12 1     
   12    5   18 1     
   13    5   19 1     
   14    6   13 ar    
   15    6   20 1     
   16    7   14 ar    
   17    7   21 1     
   18    8   15 1     
   19    8   22 1     
   20   10   15 1     
   21   10   23 1     
   22   12   24 1     
   23   12   25 1     
   24   12   26 1     
   25   13   16 ar    
   26   13   27 1     
   27   14   16 ar    
   28   14   28 1     
   29   15   17 2     
   30   16   29 1     
@<TRIPOS>SUBSTRUCTURE
      1 RES1           1
@<TRIPOS>SET
DONOR_HYDROGENS      STATIC     ATOMS    <user>   **** ""
2 22 23
ATOM$RED        STATIC     ATOMS    COLORGROUP SYSTEM
2 22 23
@<TRIPOS>COMMENT
> <Gold.Version>
2022.3.0

> <Gold.Id.Protein>
unknown|5n23_clean|pdb

> <Gold.Protein.RotatedTorsions>
[  719  714  712  709 ] final  -61.50 input   60.03 | X-H torsion
[ 5218 5209 5208 5206 ] final  -99.17 input   59.98 | X-H torsion
[ 1928 1919 1918 1916 ] final  -17.02 input   60.02 | X-H torsion
[ 2029 2024 2023 2020 ] final  161.34 input   60.01 | X-H torsion
[ 2612 2610 2609 2607 ] final  115.99 input   60.02 | X-H torsion
[ 2694 2683 2682 2681 ] final -166.48 input   59.97 | X-H torsion

> <Gold.Protein.ActiveResidues>
 ARG47   THR48   LEU49   GLY50   THR51   GLY52   SER53   PHE54   GLY55   ARG56  
 VAL57   MET58   LEU59   HIS68   TYR69   ALA70   MET71   LYS72   ILE73   GLU91  
 GLN95   VAL104  LYS105  MET118  VAL119  LEU120  GLU121  TYR122  ALA123  PRO124 
 GLY125  GLY126  GLU127  MET128  PHE129  SER130  HIS131  ARG134  TYR164  ASP166 
 LYS168  GLU170  ASN171  LEU172  LEU173  ILE174  ASP175  LYS181  VAL182  ALA183 
 ASP184  PHE185  GLY186  PRO316  ASN326  PHE327  ASP328  ASP329  TYR330 

> <Gold.Protein.RotatedAtoms>
  -20.5648   13.2742    7.1853 H   0  0  0  0  0  0  0  0  0  0  0  0  # atno 719  bound_to 714 
  -34.1506   11.7445   10.3329 H   0  0  0  0  0  0  0  0  0  0  0  0  # atno 1928 bound_to 1919
  -26.2539    5.6636   11.6740 H   0  0  0  0  0  0  0  0  0  0  0  0  # atno 2029 bound_to 2024
  -26.5991    2.1868   -2.4028 H   0  0  0  0  0  0  0  0  0  0  0  0  # atno 2612 bound_to 2610
  -19.2767    4.8727    0.7159 H   0  0  0  0  0  0  0  0  0  0  0  0  # atno 2694 bound_to 2683
  -18.5959    3.7082    1.6792 H   0  0  0  0  0  0  0  0  0  0  0  0  # atno 2695 bound_to 2683
  -18.5711    3.5386    0.0309 H   0  0  0  0  0  0  0  0  0  0  0  0  # atno 2696 bound_to 2683
  -21.9424   12.7167   10.9604 H   0  0  0  0  0  0  0  0  0  0  0  0  # atno 5218 bound_to 5209
  -19.0711   13.8427    6.8778 LP  0  0  0  0  0  0  0  0  0  0  0  0  # atno 5588 bound_to 714 
  -19.7626   12.7657    5.8637 LP  0  0  0  0  0  0  0  0  0  0  0  0  # atno 5589 bound_to 714 
  -22.2228   13.3019    9.4683 LP  0  0  0  0  0  0  0  0  0  0  0  0  # atno 5592 bound_to 5209
  -23.4685   12.8131   10.4041 LP  0  0  0  0  0  0  0  0  0  0  0  0  # atno 5593 bound_to 5209
  -35.6002   11.1348   10.7515 LP  0  0  0  0  0  0  0  0  0  0  0  0  # atno 5612 bound_to 1919
  -35.3578   12.7497   10.7579 LP  0  0  0  0  0  0  0  0  0  0  0  0  # atno 5613 bound_to 1919
  -25.2632    4.5995   10.9441 LP  0  0  0  0  0  0  0  0  0  0  0  0  # atno 5627 bound_to 2024
  -24.8273    5.2873   12.3596 LP  0  0  0  0  0  0  0  0  0  0  0  0  # atno 5628 bound_to 2024
  -26.4472    3.5379   -3.2977 LP  0  0  0  0  0  0  0  0  0  0  0  0  # atno 5649 bound_to 2610
  -25.1172    2.7386   -2.7887 LP  0  0  0  0  0  0  0  0  0  0  0  0  # atno 5650 bound_to 2610

> <Gold.Score>
     Fitness  S(hb_ext) S(vdw_ext)  S(hb_int)    S(int)      intcor
     31.01       1.59      22.18       0.00      -1.07      -0.76

> <Gold.Goldscore.Fitness>
31.0111

> <Gold.Goldscore.Internal.Vdw>
-1.1489

> <Gold.Goldscore.Internal.Torsion>
-0.6777

> <Gold.Goldscore.External.Vdw>
22.1751

> <Gold.Goldscore.Internal.HBond>
0.0000

> <Gold.Goldscore.External.HBond>
1.5885

> <Gold.Goldscore.Internal.Correction>
-0.7585

> <Gold.Goldscore.Hbonds>
donor molecule, donor type, donor heavy atom, donor atom, acceptor molecule, acceptor atom, score
      L1  H     8    22       P1  2714  0.79

> <Gold.Goldscore.Internal.Vdw.Weighted>
-1.1489

> <Gold.Goldscore.Internal.Torsion.Weighted>
-0.6777

> <Gold.Goldscore.External.Vdw.Weighted>
30.4907

> <Gold.Goldscore.Internal.HBond.Weighted>
0.0000

> <Gold.Goldscore.External.HBond.Weighted>
1.5885

> <Gold.Goldscore.Internal.Correction.Weighted>
-0.7585

> <Gold.Rescore>
     Score     S(PLP)   S(hbond)     S(cho)   S(metal)  DE(clash)   DE(tors)     intcor
     27.33     -27.69       0.71       0.00       0.00       0.24       1.14       ----

> <Gold.PLP.Fitness>
27.3319

> <Gold.PLP.PLP>
-27.6949

> <Gold.PLP.part.hbond>
-0.7689

> <Gold.PLP.part.metal>
0.0000

> <Gold.PLP.part.buried>
-1.6549

> <Gold.PLP.part.nonpolar>
-28.4359

> <Gold.PLP.part.repulsive>
2.6135

> <Gold.PLP.ligand.clash>
0.2363

> <Gold.PLP.ligand.torsion>
1.1359

> <Gold.PLP.Chemscore.Hbond>
0.7150

> <Gold.PLP.Chemscore.CHOScore>
0.0000

> <Gold.PLP.Chemscore.Metal>
0.0000

> <Gold.Chemscore.Hbonds>
donor molecule, donor type, donor heavy atom, donor atom, acceptor molecule, acceptor atom, score
      L1  H     8    22       P1  2714  0.80

> <Gold.PLP.Chemscore.Internal.Correction>
   9.000000E+99

