#       Name:                CT1002167954
#       Creating user name   hitesit
#       Creation time:       Sun Apr 16 02:21:24 2023


#       File generated by GOLD software.
#

@<TRIPOS>MOLECULE
CT1002167954|ligand_prepared|mol2|1|dock6
    29    30     1
SMALL
NO_CHARGES


@<TRIPOS>ATOM
      1 C1         -28.5436   9.3139  11.0131 C.3            1 RES1               0.0000
      2 C2         -29.3039   9.4559   9.6788 C.ar           1 RES1               0.0000
      3 C3         -27.6036   8.1236  10.8460 C.2            1 RES1               0.0000
      4 C4         -27.8308  10.6422  11.2415 C.2            1 RES1               0.0000
      5 C5         -29.4607   9.0485  12.2297 C.3            1 RES1               0.0000
      6 C6         -28.7811   8.9216   8.5050 C.ar           1 RES1               0.0000
      7 C7         -30.5283  10.1150   9.6066 C.ar           1 RES1               0.0000
      8 N8         -26.2736   8.3851  10.6958 N.am           1 RES1               0.0000
      9 O9         -28.0275   6.9751  10.8069 O.2            1 RES1               0.0000
     10 N10        -26.4607  10.6474  11.2218 N.am           1 RES1               0.0000
     11 O11        -28.4436  11.6874  11.4217 O.2            1 RES1               0.0000
     12 C12        -28.7040   8.7522  13.5149 C.3            1 RES1               0.0000
     13 C13        -29.4591   9.0393   7.3029 C.ar           1 RES1               0.0000
     14 C14        -31.2045  10.2318   8.4034 C.ar           1 RES1               0.0000
     15 C15        -25.6502   9.5846  10.9288 C.2            1 RES1               0.0000
     16 C16        -30.6713   9.6940   7.2514 C.ar           1 RES1               0.0000
     17 O17        -24.4274   9.6804  10.8771 O.2            1 RES1               0.0000
     18 H18        -30.0981   9.9268  12.3897 H              1 RES1               0.0000
     19 H19        -30.1139   8.1975  12.0005 H              1 RES1               0.0000
     20 H20        -27.8273   8.4052   8.5256 H              1 RES1               0.0000
     21 H21        -30.9664  10.5468  10.5000 H              1 RES1               0.0000
     22 H22        -25.6883   7.6178  10.3811 H              1 RES1               0.0000
     23 H23        -26.0024  11.5248  11.4465 H              1 RES1               0.0000
     24 H24        -29.3944   8.5736  14.3366 H              1 RES1               0.0000
     25 H25        -28.0787   7.8693  13.3997 H              1 RES1               0.0000
     26 H26        -28.0629   9.5884  13.7866 H              1 RES1               0.0000
     27 H27        -29.0345   8.6155   6.3989 H              1 RES1               0.0000
     28 H28        -32.1580  10.7484   8.3674 H              1 RES1               0.0000
     29 H29        -31.2023   9.7857   6.3097 H              1 RES1               0.0000
@<TRIPOS>BOND
    1    1    2 1     
    2    1    3 1     
    3    1    4 1     
    4    1    5 1     
    5    2    6 ar    
    6    2    7 ar    
    7    3    8 1     
    8    3    9 2     
    9    4   10 1     
   10    4   11 2     
   11    5   12 1     
   12    5   18 1     
   13    5   19 1     
   14    6   13 ar    
   15    6   20 1     
   16    7   14 ar    
   17    7   21 1     
   18    8   15 1     
   19    8   22 1     
   20   10   15 1     
   21   10   23 1     
   22   12   24 1     
   23   12   25 1     
   24   12   26 1     
   25   13   16 ar    
   26   13   27 1     
   27   14   16 ar    
   28   14   28 1     
   29   15   17 2     
   30   16   29 1     
@<TRIPOS>SUBSTRUCTURE
      1 RES1           1
@<TRIPOS>SET
DONOR_HYDROGENS      STATIC     ATOMS    <user>   **** ""
2 22 23
ATOM$RED        STATIC     ATOMS    COLORGROUP SYSTEM
2 22 23
@<TRIPOS>COMMENT
> <Gold.Version>
2022.3.0

> <Gold.Id.Protein>
unknown|5n23_clean|pdb

> <Gold.Protein.RotatedTorsions>
[  719  714  712  709 ] final   73.64 input   60.03 | X-H torsion
[ 5218 5209 5208 5206 ] final  -93.00 input   59.98 | X-H torsion
[ 1928 1919 1918 1916 ] final  -69.79 input   60.02 | X-H torsion
[ 2029 2024 2023 2020 ] final  152.60 input   60.01 | X-H torsion
[ 2612 2610 2609 2607 ] final   96.86 input   60.02 | X-H torsion
[ 2694 2683 2682 2681 ] final  -13.67 input   59.97 | X-H torsion

> <Gold.Protein.ActiveResidues>
 ARG47   THR48   LEU49   GLY50   THR51   GLY52   SER53   PHE54   GLY55   ARG56  
 VAL57   MET58   LEU59   HIS68   TYR69   ALA70   MET71   LYS72   ILE73   GLU91  
 GLN95   VAL104  LYS105  MET118  VAL119  LEU120  GLU121  TYR122  ALA123  PRO124 
 GLY125  GLY126  GLU127  MET128  PHE129  SER130  HIS131  ARG134  TYR164  ASP166 
 LYS168  GLU170  ASN171  LEU172  LEU173  ILE174  ASP175  LYS181  VAL182  ALA183 
 ASP184  PHE185  GLY186  PRO316  ASN326  PHE327  ASP328  ASP329  TYR330 

> <Gold.Protein.RotatedAtoms>
  -19.5409   12.8747    5.8476 H   0  0  0  0  0  0  0  0  0  0  0  0  # atno 719  bound_to 714 
  -34.6104   11.0593   10.4402 H   0  0  0  0  0  0  0  0  0  0  0  0  # atno 1928 bound_to 1919
  -26.2825    5.5982   11.5507 H   0  0  0  0  0  0  0  0  0  0  0  0  # atno 2029 bound_to 2024
  -26.8191    2.3720   -2.5221 H   0  0  0  0  0  0  0  0  0  0  0  0  # atno 2612 bound_to 2610
  -18.4107    3.3438    1.3263 H   0  0  0  0  0  0  0  0  0  0  0  0  # atno 2694 bound_to 2683
  -18.8226    3.9836   -0.1464 H   0  0  0  0  0  0  0  0  0  0  0  0  # atno 2695 bound_to 2683
  -19.2109    4.7931    1.2466 H   0  0  0  0  0  0  0  0  0  0  0  0  # atno 2696 bound_to 2683
  -22.0226   12.6879   11.0141 H   0  0  0  0  0  0  0  0  0  0  0  0  # atno 5218 bound_to 5209
  -20.6465   13.1105    7.0185 LP  0  0  0  0  0  0  0  0  0  0  0  0  # atno 5588 bound_to 714 
  -19.2179   13.9000    7.0696 LP  0  0  0  0  0  0  0  0  0  0  0  0  # atno 5589 bound_to 714 
  -22.1297   13.2936    9.5077 LP  0  0  0  0  0  0  0  0  0  0  0  0  # atno 5592 bound_to 5209
  -23.4808   12.8504   10.3107 LP  0  0  0  0  0  0  0  0  0  0  0  0  # atno 5593 bound_to 5209
  -35.9346   11.8901   10.8925 LP  0  0  0  0  0  0  0  0  0  0  0  0  # atno 5612 bound_to 1919
  -34.5604   12.6844   10.5088 LP  0  0  0  0  0  0  0  0  0  0  0  0  # atno 5613 bound_to 1919
  -25.1399    4.5729   11.0125 LP  0  0  0  0  0  0  0  0  0  0  0  0  # atno 5627 bound_to 2024
  -24.9218    5.3799   12.4153 LP  0  0  0  0  0  0  0  0  0  0  0  0  # atno 5628 bound_to 2024
  -26.1444    3.6032   -3.3457 LP  0  0  0  0  0  0  0  0  0  0  0  0  # atno 5649 bound_to 2610
  -25.1985    2.4869   -2.6206 LP  0  0  0  0  0  0  0  0  0  0  0  0  # atno 5650 bound_to 2610

> <Gold.Score>
     Fitness  S(hb_ext) S(vdw_ext)  S(hb_int)    S(int)      intcor
     33.86       2.94      23.32       0.00      -1.15      -0.76

> <Gold.Goldscore.Fitness>
33.8623

> <Gold.Goldscore.Internal.Vdw>
-1.4736

> <Gold.Goldscore.Internal.Torsion>
-0.4378

> <Gold.Goldscore.External.Vdw>
23.3237

> <Gold.Goldscore.Internal.HBond>
0.0000

> <Gold.Goldscore.External.HBond>
2.9387

> <Gold.Goldscore.Internal.Correction>
-0.7650

> <Gold.Goldscore.Hbonds>
donor molecule, donor type, donor heavy atom, donor atom, acceptor molecule, acceptor atom, score
      P1  H  1967  1976       L1     9  0.54
      P1  H  2024  2029       L1     9  0.93

> <Gold.Goldscore.Internal.Vdw.Weighted>
-1.4736

> <Gold.Goldscore.Internal.Torsion.Weighted>
-0.4378

> <Gold.Goldscore.External.Vdw.Weighted>
32.0701

> <Gold.Goldscore.Internal.HBond.Weighted>
0.0000

> <Gold.Goldscore.External.HBond.Weighted>
2.9387

> <Gold.Goldscore.Internal.Correction.Weighted>
-0.7650

> <Gold.Rescore>
     Score     S(PLP)   S(hbond)     S(cho)   S(metal)  DE(clash)   DE(tors)     intcor
     42.03     -38.58       1.90       0.00       0.00       0.00       1.13       ----

> <Gold.PLP.Fitness>
42.0318

> <Gold.PLP.PLP>
-38.5792

> <Gold.PLP.part.hbond>
-3.7487

> <Gold.PLP.part.metal>
0.0000

> <Gold.PLP.part.buried>
-7.2159

> <Gold.PLP.part.nonpolar>
-28.9827

> <Gold.PLP.part.repulsive>
0.4563

> <Gold.PLP.ligand.clash>
0.0000

> <Gold.PLP.ligand.torsion>
1.1285

> <Gold.PLP.Chemscore.Hbond>
1.9032

> <Gold.PLP.Chemscore.CHOScore>
0.0000

> <Gold.PLP.Chemscore.Metal>
0.0000

> <Gold.Chemscore.Hbonds>
donor molecule, donor type, donor heavy atom, donor atom, acceptor molecule, acceptor atom, score
      P1  H  1967  1976       L1     9  0.84
      P1  H  2024  2029       L1     9  0.39

> <Gold.PLP.Chemscore.Internal.Correction>
   9.000000E+99

