#       Name:                CT1002167954
#       Creating user name   hitesit
#       Creation time:       Sun Apr 16 02:21:19 2023


#       File generated by GOLD software.
#

@<TRIPOS>MOLECULE
CT1002167954|ligand_prepared|mol2|1|dock1
    29    30     1
SMALL
NO_CHARGES


@<TRIPOS>ATOM
      1 C1         -28.5913   9.2171  11.2718 C.3            1 RES1               0.0000
      2 C2         -29.8683   9.4865  10.4500 C.ar           1 RES1               0.0000
      3 C3         -28.8129   9.8684  12.6338 C.2            1 RES1               0.0000
      4 C4         -28.4303   7.7019  11.3256 C.2            1 RES1               0.0000
      5 C5         -27.3083   9.8120  10.6459 C.3            1 RES1               0.0000
      6 C6         -31.1259   9.3548  11.0311 C.ar           1 RES1               0.0000
      7 C7         -29.8047   9.8694   9.1128 C.ar           1 RES1               0.0000
      8 N8         -29.0624   9.0472  13.6937 N.am           1 RES1               0.0000
      9 O9         -28.8082  11.0858  12.7683 O.2            1 RES1               0.0000
     10 N10        -28.5496   7.0863  12.5440 N.am           1 RES1               0.0000
     11 O11        -28.2177   7.0337  10.3213 O.2            1 RES1               0.0000
     12 C12        -26.0917   9.7388  11.5551 C.3            1 RES1               0.0000
     13 C13        -32.2782   9.5998  10.3029 C.ar           1 RES1               0.0000
     14 C14        -30.9584  10.1137   8.3863 C.ar           1 RES1               0.0000
     15 C15        -28.8888   7.6869  13.7258 C.2            1 RES1               0.0000
     16 C16        -32.1953   9.9798   8.9802 C.ar           1 RES1               0.0000
     17 O17        -29.0304   7.0575  14.7703 O.2            1 RES1               0.0000
     18 H18        -27.0870   9.2740   9.7159 H              1 RES1               0.0000
     19 H19        -27.4947  10.8622  10.3895 H              1 RES1               0.0000
     20 H20        -31.2110   9.0542  12.0701 H              1 RES1               0.0000
     21 H21        -28.8425   9.9800   8.6245 H              1 RES1               0.0000
     22 H22        -29.4102   9.4851  14.5408 H              1 RES1               0.0000
     23 H23        -28.3686   6.0880  12.5728 H              1 RES1               0.0000
     24 H24        -25.2195  10.1694  11.0678 H              1 RES1               0.0000
     25 H25        -26.2676  10.2850  12.4795 H              1 RES1               0.0000
     26 H26        -25.8622   8.7062  11.8099 H              1 RES1               0.0000
     27 H27        -33.2493   9.4916  10.7746 H              1 RES1               0.0000
     28 H28        -30.8884  10.4120   7.3454 H              1 RES1               0.0000
     29 H29        -33.0982  10.1720   8.4101 H              1 RES1               0.0000
@<TRIPOS>BOND
    1    1    2 1     
    2    1    3 1     
    3    1    4 1     
    4    1    5 1     
    5    2    6 ar    
    6    2    7 ar    
    7    3    8 1     
    8    3    9 2     
    9    4   10 1     
   10    4   11 2     
   11    5   12 1     
   12    5   18 1     
   13    5   19 1     
   14    6   13 ar    
   15    6   20 1     
   16    7   14 ar    
   17    7   21 1     
   18    8   15 1     
   19    8   22 1     
   20   10   15 1     
   21   10   23 1     
   22   12   24 1     
   23   12   25 1     
   24   12   26 1     
   25   13   16 ar    
   26   13   27 1     
   27   14   16 ar    
   28   14   28 1     
   29   15   17 2     
   30   16   29 1     
@<TRIPOS>SUBSTRUCTURE
      1 RES1           1
@<TRIPOS>SET
DONOR_HYDROGENS      STATIC     ATOMS    <user>   **** ""
2 22 23
ATOM$RED        STATIC     ATOMS    COLORGROUP SYSTEM
2 22 23
@<TRIPOS>COMMENT
> <Gold.Version>
2022.3.0

> <Gold.Id.Protein>
unknown|5n23_clean|pdb

> <Gold.Protein.RotatedTorsions>
[  719  714  712  709 ] final -164.71 input   60.03 | X-H torsion
[ 5218 5209 5208 5206 ] final   -8.42 input   59.98 | X-H torsion
[ 1928 1919 1918 1916 ] final   36.46 input   60.02 | X-H torsion
[ 2029 2024 2023 2020 ] final  135.19 input   60.01 | X-H torsion
[ 2612 2610 2609 2607 ] final   89.48 input   60.02 | X-H torsion
[ 2694 2683 2682 2681 ] final  116.87 input   59.97 | X-H torsion

> <Gold.Protein.ActiveResidues>
 ARG47   THR48   LEU49   GLY50   THR51   GLY52   SER53   PHE54   GLY55   ARG56  
 VAL57   MET58   LEU59   HIS68   TYR69   ALA70   MET71   LYS72   ILE73   GLU91  
 GLN95   VAL104  LYS105  MET118  VAL119  LEU120  GLU121  TYR122  ALA123  PRO124 
 GLY125  GLY126  GLU127  MET128  PHE129  SER130  HIS131  ARG134  TYR164  ASP166 
 LYS168  GLU170  ASN171  LEU172  LEU173  ILE174  ASP175  LYS181  VAL182  ALA183 
 ASP184  PHE185  GLY186  PRO316  ASN326  PHE327  ASP328  ASP329  TYR330 

> <Gold.Protein.RotatedAtoms>
  -19.2414   13.9016    7.0848 H   0  0  0  0  0  0  0  0  0  0  0  0  # atno 719  bound_to 714 
  -34.3969   12.5420   10.4489 H   0  0  0  0  0  0  0  0  0  0  0  0  # atno 1928 bound_to 1919
  -26.2818    5.4409   11.3152 H   0  0  0  0  0  0  0  0  0  0  0  0  # atno 2029 bound_to 2024
  -26.8825    2.4579   -2.5781 H   0  0  0  0  0  0  0  0  0  0  0  0  # atno 2612 bound_to 2610
  -18.9072    4.1368   -0.1387 H   0  0  0  0  0  0  0  0  0  0  0  0  # atno 2694 bound_to 2683
  -19.1602    4.7128    1.3949 H   0  0  0  0  0  0  0  0  0  0  0  0  # atno 2695 bound_to 2683
  -18.3764    3.2700    1.1705 H   0  0  0  0  0  0  0  0  0  0  0  0  # atno 2696 bound_to 2683
  -23.2652   12.6680   10.8075 H   0  0  0  0  0  0  0  0  0  0  0  0  # atno 5218 bound_to 5209
  -19.5144   12.8834    5.8448 LP  0  0  0  0  0  0  0  0  0  0  0  0  # atno 5588 bound_to 714 
  -20.6515   13.0935    6.9979 LP  0  0  0  0  0  0  0  0  0  0  0  0  # atno 5589 bound_to 714 
  -21.6637   12.8795   10.6128 LP  0  0  0  0  0  0  0  0  0  0  0  0  # atno 5592 bound_to 5209
  -22.6955   13.2845    9.4136 LP  0  0  0  0  0  0  0  0  0  0  0  0  # atno 5593 bound_to 5209
  -34.8076   10.9681   10.4988 LP  0  0  0  0  0  0  0  0  0  0  0  0  # atno 5612 bound_to 1919
  -35.9024   12.1135   10.8938 LP  0  0  0  0  0  0  0  0  0  0  0  0  # atno 5613 bound_to 1919
  -24.9181    4.5624   11.1919 LP  0  0  0  0  0  0  0  0  0  0  0  0  # atno 5627 bound_to 2024
  -25.1444    5.5489   12.4733 LP  0  0  0  0  0  0  0  0  0  0  0  0  # atno 5628 bound_to 2024
  -26.0232    3.6053   -3.3491 LP  0  0  0  0  0  0  0  0  0  0  0  0  # atno 5649 bound_to 2610
  -25.2560    2.3983   -2.5610 LP  0  0  0  0  0  0  0  0  0  0  0  0  # atno 5650 bound_to 2610

> <Gold.Score>
     Fitness  S(hb_ext) S(vdw_ext)  S(hb_int)    S(int)      intcor
     35.70       3.04      23.83       0.00      -0.11      -0.79

> <Gold.Goldscore.Fitness>
35.7023

> <Gold.Goldscore.Internal.Vdw>
-0.3973

> <Gold.Goldscore.Internal.Torsion>
-0.5010

> <Gold.Goldscore.External.Vdw>
23.8346

> <Gold.Goldscore.Internal.HBond>
0.0000

> <Gold.Goldscore.External.HBond>
3.0407

> <Gold.Goldscore.Internal.Correction>
-0.7872

> <Gold.Goldscore.Hbonds>
donor molecule, donor type, donor heavy atom, donor atom, acceptor molecule, acceptor atom, score
      P1  H  1967  1976       L1    11  0.56
      P1  H  2024  2029       L1    11  0.24
      L1  H     8    22       P1  5143  0.71

> <Gold.Goldscore.Internal.Vdw.Weighted>
-0.3973

> <Gold.Goldscore.Internal.Torsion.Weighted>
-0.5010

> <Gold.Goldscore.External.Vdw.Weighted>
32.7726

> <Gold.Goldscore.Internal.HBond.Weighted>
0.0000

> <Gold.Goldscore.External.HBond.Weighted>
3.0407

> <Gold.Goldscore.Internal.Correction.Weighted>
-0.7872

> <Gold.Rescore>
     Score     S(PLP)   S(hbond)     S(cho)   S(metal)  DE(clash)   DE(tors)     intcor
     43.57     -34.65       3.37       0.00       0.00       0.00       0.60       ----

> <Gold.PLP.Fitness>
43.5678

> <Gold.PLP.PLP>
-34.6497

> <Gold.PLP.part.hbond>
-3.4631

> <Gold.PLP.part.metal>
0.0000

> <Gold.PLP.part.buried>
-5.0586

> <Gold.PLP.part.nonpolar>
-25.8015

> <Gold.PLP.part.repulsive>
0.5294

> <Gold.PLP.ligand.clash>
0.0000

> <Gold.PLP.ligand.torsion>
0.5997

> <Gold.PLP.Chemscore.Hbond>
3.3725

> <Gold.PLP.Chemscore.CHOScore>
0.0000

> <Gold.PLP.Chemscore.Metal>
0.0000

> <Gold.Chemscore.Hbonds>
donor molecule, donor type, donor heavy atom, donor atom, acceptor molecule, acceptor atom, score
      L1  H     8    22       P1  5143  0.28
      P1  H  1967  1976       L1    11  1.00

> <Gold.PLP.Chemscore.Internal.Correction>
   9.000000E+99

