#       Name:                CT1002167954
#       Creating user name   hitesit
#       Creation time:       Sun Apr 16 02:21:26 2023


#       File generated by GOLD software.
#

@<TRIPOS>MOLECULE
CT1002167954|ligand_prepared|mol2|1|dock8
    29    30     1
SMALL
NO_CHARGES


@<TRIPOS>ATOM
      1 C1         -27.4100   9.3819   3.6067 C.3            1 RES1               0.0000
      2 C2         -28.5448   9.4948   4.6452 C.ar           1 RES1               0.0000
      3 C3         -26.2637  10.2426   4.1295 C.2            1 RES1               0.0000
      4 C4         -27.0755   7.8982   3.4999 C.2            1 RES1               0.0000
      5 C5         -27.8000   9.8864   2.1978 C.3            1 RES1               0.0000
      6 C6         -29.8771   9.4764   4.2437 C.ar           1 RES1               0.0000
      7 C7         -28.2754   9.6148   6.0059 C.ar           1 RES1               0.0000
      8 N8         -25.1754   9.6011   4.6433 N.am           1 RES1               0.0000
      9 O9         -26.3304  11.4657   4.1273 O.2            1 RES1               0.0000
     10 N10        -25.8375   7.4873   3.9200 N.am           1 RES1               0.0000
     11 O11        -27.8787   7.0789   3.0713 O.2            1 RES1               0.0000
     12 C12        -26.6247   9.9982   1.2395 C.3            1 RES1               0.0000
     13 C13        -30.9031   9.5717   5.1692 C.ar           1 RES1               0.0000
     14 C14        -29.3029   9.7102   6.9298 C.ar           1 RES1               0.0000
     15 C15        -24.8836   8.2669   4.5154 C.2            1 RES1               0.0000
     16 C16        -30.6168   9.6881   6.5127 C.ar           1 RES1               0.0000
     17 O17        -23.8153   7.8138   4.9161 O.2            1 RES1               0.0000
     18 H18        -28.5408   9.1999   1.7695 H              1 RES1               0.0000
     19 H19        -28.2723  10.8719   2.2938 H              1 RES1               0.0000
     20 H20        -30.1218   9.3879   3.1905 H              1 RES1               0.0000
     21 H21        -27.2492   9.6354   6.3569 H              1 RES1               0.0000
     22 H22        -24.5177  10.1657   5.1716 H              1 RES1               0.0000
     23 H23        -25.6056   6.5098   3.7754 H              1 RES1               0.0000
     24 H24        -26.9534  10.3562   0.2661 H              1 RES1               0.0000
     25 H25        -25.8797  10.6927   1.6222 H              1 RES1               0.0000
     26 H26        -26.1466   9.0306   1.1010 H              1 RES1               0.0000
     27 H27        -31.9355   9.5552   4.8357 H              1 RES1               0.0000
     28 H28        -29.0730   9.8023   7.9861 H              1 RES1               0.0000
     29 H29        -31.4208   9.7623   7.2376 H              1 RES1               0.0000
@<TRIPOS>BOND
    1    1    2 1     
    2    1    3 1     
    3    1    4 1     
    4    1    5 1     
    5    2    6 ar    
    6    2    7 ar    
    7    3    8 1     
    8    3    9 2     
    9    4   10 1     
   10    4   11 2     
   11    5   12 1     
   12    5   18 1     
   13    5   19 1     
   14    6   13 ar    
   15    6   20 1     
   16    7   14 ar    
   17    7   21 1     
   18    8   15 1     
   19    8   22 1     
   20   10   15 1     
   21   10   23 1     
   22   12   24 1     
   23   12   25 1     
   24   12   26 1     
   25   13   16 ar    
   26   13   27 1     
   27   14   16 ar    
   28   14   28 1     
   29   15   17 2     
   30   16   29 1     
@<TRIPOS>SUBSTRUCTURE
      1 RES1           1
@<TRIPOS>SET
DONOR_HYDROGENS      STATIC     ATOMS    <user>   **** ""
2 22 23
ATOM$RED        STATIC     ATOMS    COLORGROUP SYSTEM
2 22 23
@<TRIPOS>COMMENT
> <Gold.Version>
2022.3.0

> <Gold.Id.Protein>
unknown|5n23_clean|pdb

> <Gold.Protein.RotatedTorsions>
[  719  714  712  709 ] final  -51.88 input   60.03 | X-H torsion
[ 5218 5209 5208 5206 ] final   20.43 input   59.98 | X-H torsion
[ 1928 1919 1918 1916 ] final  144.97 input   60.02 | X-H torsion
[ 2029 2024 2023 2020 ] final  -45.15 input   60.01 | X-H torsion
[ 2612 2610 2609 2607 ] final  -43.55 input   60.02 | X-H torsion
[ 2694 2683 2682 2681 ] final   68.67 input   59.97 | X-H torsion

> <Gold.Protein.ActiveResidues>
 ARG47   THR48   LEU49   GLY50   THR51   GLY52   SER53   PHE54   GLY55   ARG56  
 VAL57   MET58   LEU59   HIS68   TYR69   ALA70   MET71   LYS72   ILE73   GLU91  
 GLN95   VAL104  LYS105  MET118  VAL119  LEU120  GLU121  TYR122  ALA123  PRO124 
 GLY125  GLY126  GLU127  MET128  PHE129  SER130  HIS131  ARG134  TYR164  ASP166 
 LYS168  GLU170  ASN171  LEU172  LEU173  ILE174  ASP175  LYS181  VAL182  ALA183 
 ASP184  PHE185  GLY186  PRO316  ASN326  PHE327  ASP328  ASP329  TYR330 

> <Gold.Protein.RotatedAtoms>
  -20.6203   13.1713    7.0806 H   0  0  0  0  0  0  0  0  0  0  0  0  # atno 719  bound_to 714 
  -35.8323   12.2876   10.8785 H   0  0  0  0  0  0  0  0  0  0  0  0  # atno 1928 bound_to 1919
  -24.6207    4.9298   12.0090 H   0  0  0  0  0  0  0  0  0  0  0  0  # atno 2029 bound_to 2024
  -25.8132    3.5711   -3.3328 H   0  0  0  0  0  0  0  0  0  0  0  0  # atno 2612 bound_to 2610
  -18.5389    3.4836    0.0808 H   0  0  0  0  0  0  0  0  0  0  0  0  # atno 2694 bound_to 2683
  -19.2734    4.8618    0.6364 H   0  0  0  0  0  0  0  0  0  0  0  0  # atno 2695 bound_to 2683
  -18.6317    3.7745    1.7099 H   0  0  0  0  0  0  0  0  0  0  0  0  # atno 2696 bound_to 2683
  -23.4610   12.8144   10.4104 H   0  0  0  0  0  0  0  0  0  0  0  0  # atno 5218 bound_to 5209
  -19.1591   13.8838    7.0025 LP  0  0  0  0  0  0  0  0  0  0  0  0  # atno 5588 bound_to 714 
  -19.6188   12.8281    5.8445 LP  0  0  0  0  0  0  0  0  0  0  0  0  # atno 5589 bound_to 714 
  -21.9329   12.7143   10.9603 LP  0  0  0  0  0  0  0  0  0  0  0  0  # atno 5592 bound_to 5209
  -22.2291   13.3023    9.4660 LP  0  0  0  0  0  0  0  0  0  0  0  0  # atno 5593 bound_to 5209
  -34.2787   12.4012   10.4078 LP  0  0  0  0  0  0  0  0  0  0  0  0  # atno 5612 bound_to 1919
  -34.9859   10.9365   10.5522 LP  0  0  0  0  0  0  0  0  0  0  0  0  # atno 5613 bound_to 1919
  -25.9856    5.8078   12.1220 LP  0  0  0  0  0  0  0  0  0  0  0  0  # atno 5627 bound_to 2024
  -25.7508    4.8186   10.8441 LP  0  0  0  0  0  0  0  0  0  0  0  0  # atno 5628 bound_to 2024
  -25.3891    2.2597   -2.4670 LP  0  0  0  0  0  0  0  0  0  0  0  0  # atno 5649 bound_to 2610
  -26.9663    2.6235   -2.6835 LP  0  0  0  0  0  0  0  0  0  0  0  0  # atno 5650 bound_to 2610

> <Gold.Score>
     Fitness  S(hb_ext) S(vdw_ext)  S(hb_int)    S(int)      intcor
     31.50       1.28      22.54       0.00      -0.77      -0.76

> <Gold.Goldscore.Fitness>
31.5002

> <Gold.Goldscore.Internal.Vdw>
-1.0032

> <Gold.Goldscore.Internal.Torsion>
-0.5263

> <Gold.Goldscore.External.Vdw>
22.5406

> <Gold.Goldscore.Internal.HBond>
0.0000

> <Gold.Goldscore.External.HBond>
1.2778

> <Gold.Goldscore.Internal.Correction>
-0.7585

> <Gold.Goldscore.Hbonds>
donor molecule, donor type, donor heavy atom, donor atom, acceptor molecule, acceptor atom, score
      L1  H    10    23       P1  2714  0.64

> <Gold.Goldscore.Internal.Vdw.Weighted>
-1.0032

> <Gold.Goldscore.Internal.Torsion.Weighted>
-0.5263

> <Gold.Goldscore.External.Vdw.Weighted>
30.9933

> <Gold.Goldscore.Internal.HBond.Weighted>
0.0000

> <Gold.Goldscore.External.HBond.Weighted>
1.2778

> <Gold.Goldscore.Internal.Correction.Weighted>
-0.7585

> <Gold.Rescore>
     Score     S(PLP)   S(hbond)     S(cho)   S(metal)  DE(clash)   DE(tors)     intcor
     34.74     -33.54       0.91       0.00       0.00       1.15       0.19       ----

> <Gold.PLP.Fitness>
34.7446

> <Gold.PLP.PLP>
-33.5395

> <Gold.PLP.part.hbond>
-1.3890

> <Gold.PLP.part.metal>
0.0000

> <Gold.PLP.part.buried>
-5.6290

> <Gold.PLP.part.nonpolar>
-27.7493

> <Gold.PLP.part.repulsive>
0.4956

> <Gold.PLP.ligand.clash>
1.1467

> <Gold.PLP.ligand.torsion>
0.1921

> <Gold.PLP.Chemscore.Hbond>
0.9120

> <Gold.PLP.Chemscore.CHOScore>
0.0000

> <Gold.PLP.Chemscore.Metal>
0.0000

> <Gold.Chemscore.Hbonds>
donor molecule, donor type, donor heavy atom, donor atom, acceptor molecule, acceptor atom, score
      L1  H    10    23       P1  2714  1.00

> <Gold.PLP.Chemscore.Internal.Correction>
   9.000000E+99

