#       Name:                CT1002167954
#       Creating user name   hitesit
#       Creation time:       Sun Apr 16 02:21:23 2023


#       File generated by GOLD software.
#

@<TRIPOS>MOLECULE
CT1002167954|ligand_prepared|mol2|1|dock5
    29    30     1
SMALL
NO_CHARGES


@<TRIPOS>ATOM
      1 C1         -25.7235   9.0677   2.8775 C.3            1 RES1               0.0000
      2 C2         -26.7152   9.8041   3.8010 C.ar           1 RES1               0.0000
      3 C3         -26.5695   8.2649   1.8936 C.2            1 RES1               0.0000
      4 C4         -24.8665  10.1467   2.2249 C.2            1 RES1               0.0000
      5 C5         -24.7806   8.0944   3.6226 C.3            1 RES1               0.0000
      6 C6         -28.0276  10.0287   3.3960 C.ar           1 RES1               0.0000
      7 C7         -26.3339  10.2615   5.0595 C.ar           1 RES1               0.0000
      8 N8         -26.6473   8.7191   0.6100 N.am           1 RES1               0.0000
      9 O9         -27.1908   7.2706   2.2481 O.2            1 RES1               0.0000
     10 N10        -24.9753  10.3211   0.8701 N.am           1 RES1               0.0000
     11 O11        -24.1102  10.8587   2.8741 O.2            1 RES1               0.0000
     12 C12        -23.9893   7.1806   2.7002 C.3            1 RES1               0.0000
     13 C13        -28.9270  10.6842   4.2204 C.ar           1 RES1               0.0000
     14 C14        -27.2349  10.9171   5.8823 C.ar           1 RES1               0.0000
     15 C15        -25.8495   9.6770   0.0376 C.2            1 RES1               0.0000
     16 C16        -28.5315  11.1284   5.4641 C.ar           1 RES1               0.0000
     17 O17        -25.9263   9.9273  -1.1618 O.2            1 RES1               0.0000
     18 H18        -24.0776   8.6787   4.2290 H              1 RES1               0.0000
     19 H19        -25.3781   7.4764   4.3043 H              1 RES1               0.0000
     20 H20        -28.3563   9.6886   2.4196 H              1 RES1               0.0000
     21 H21        -25.3187  10.1073   5.4090 H              1 RES1               0.0000
     22 H22        -27.3651   8.3086   0.0213 H              1 RES1               0.0000
     23 H23        -24.3463  10.9933   0.4426 H              1 RES1               0.0000
     24 H24        -23.3441   6.5185   3.2738 H              1 RES1               0.0000
     25 H25        -24.6572   6.5663   2.0998 H              1 RES1               0.0000
     26 H26        -23.3644   7.7615   2.0250 H              1 RES1               0.0000
     27 H27        -29.9459  10.8493   3.8860 H              1 RES1               0.0000
     28 H28        -26.9191  11.2655   6.8601 H              1 RES1               0.0000
     29 H29        -29.2364  11.6416   6.1099 H              1 RES1               0.0000
@<TRIPOS>BOND
    1    1    2 1     
    2    1    3 1     
    3    1    4 1     
    4    1    5 1     
    5    2    6 ar    
    6    2    7 ar    
    7    3    8 1     
    8    3    9 2     
    9    4   10 1     
   10    4   11 2     
   11    5   12 1     
   12    5   18 1     
   13    5   19 1     
   14    6   13 ar    
   15    6   20 1     
   16    7   14 ar    
   17    7   21 1     
   18    8   15 1     
   19    8   22 1     
   20   10   15 1     
   21   10   23 1     
   22   12   24 1     
   23   12   25 1     
   24   12   26 1     
   25   13   16 ar    
   26   13   27 1     
   27   14   16 ar    
   28   14   28 1     
   29   15   17 2     
   30   16   29 1     
@<TRIPOS>SUBSTRUCTURE
      1 RES1           1
@<TRIPOS>SET
DONOR_HYDROGENS      STATIC     ATOMS    <user>   **** ""
2 22 23
ATOM$RED        STATIC     ATOMS    COLORGROUP SYSTEM
2 22 23
@<TRIPOS>COMMENT
> <Gold.Version>
2022.3.0

> <Gold.Id.Protein>
unknown|5n23_clean|pdb

> <Gold.Protein.RotatedTorsions>
[  719  714  712  709 ] final  110.11 input   60.03 | X-H torsion
[ 5218 5209 5208 5206 ] final  -39.80 input   59.98 | X-H torsion
[ 1928 1919 1918 1916 ] final  154.96 input   60.02 | X-H torsion
[ 2029 2024 2023 2020 ] final -117.80 input   60.01 | X-H torsion
[ 2612 2610 2609 2607 ] final -105.59 input   60.02 | X-H torsion
[ 2694 2683 2682 2681 ] final  -85.54 input   59.97 | X-H torsion

> <Gold.Protein.ActiveResidues>
 ARG47   THR48   LEU49   GLY50   THR51   GLY52   SER53   PHE54   GLY55   ARG56  
 VAL57   MET58   LEU59   HIS68   TYR69   ALA70   MET71   LYS72   ILE73   GLU91  
 GLN95   VAL104  LYS105  MET118  VAL119  LEU120  GLU121  TYR122  ALA123  PRO124 
 GLY125  GLY126  GLU127  MET128  PHE129  SER130  HIS131  ARG134  TYR164  ASP166 
 LYS168  GLU170  ASN171  LEU172  LEU173  ILE174  ASP175  LYS181  VAL182  ALA183 
 ASP184  PHE185  GLY186  PRO316  ASN326  PHE327  ASP328  ASP329  TYR330 

> <Gold.Protein.RotatedAtoms>
  -19.1050   13.2263    6.0208 H   0  0  0  0  0  0  0  0  0  0  0  0  # atno 719  bound_to 714 
  -35.8906   12.1356   10.8888 H   0  0  0  0  0  0  0  0  0  0  0  0  # atno 1928 bound_to 1919
  -25.3318    5.6489   12.4629 H   0  0  0  0  0  0  0  0  0  0  0  0  # atno 2029 bound_to 2024
  -25.1429    2.9872   -2.9562 H   0  0  0  0  0  0  0  0  0  0  0  0  # atno 2612 bound_to 2610
  -18.9021    4.2677    1.7341 H   0  0  0  0  0  0  0  0  0  0  0  0  # atno 2694 bound_to 2683
  -18.3779    3.2274    0.5548 H   0  0  0  0  0  0  0  0  0  0  0  0  # atno 2695 bound_to 2683
  -19.1642    4.6250    0.1369 H   0  0  0  0  0  0  0  0  0  0  0  0  # atno 2696 bound_to 2683
  -22.8516   12.5876   11.0883 H   0  0  0  0  0  0  0  0  0  0  0  0  # atno 5218 bound_to 5209
  -20.5907   12.7929    6.5243 LP  0  0  0  0  0  0  0  0  0  0  0  0  # atno 5588 bound_to 714 
  -19.7126   13.8637    7.3895 LP  0  0  0  0  0  0  0  0  0  0  0  0  # atno 5589 bound_to 714 
  -21.6195   13.0755   10.1441 LP  0  0  0  0  0  0  0  0  0  0  0  0  # atno 5592 bound_to 5209
  -23.1562   13.1694    9.5996 LP  0  0  0  0  0  0  0  0  0  0  0  0  # atno 5593 bound_to 5209
  -34.3754   12.5289   10.4440 LP  0  0  0  0  0  0  0  0  0  0  0  0  # atno 5612 bound_to 1919
  -34.8305   10.9619   10.5056 LP  0  0  0  0  0  0  0  0  0  0  0  0  # atno 5613 bound_to 1919
  -26.2364    5.3097   11.1540 LP  0  0  0  0  0  0  0  0  0  0  0  0  # atno 5627 bound_to 2024
  -24.7834    4.5919   11.3545 LP  0  0  0  0  0  0  0  0  0  0  0  0  # atno 5628 bound_to 2024
  -26.3320    2.0709   -2.3271 LP  0  0  0  0  0  0  0  0  0  0  0  0  # atno 5649 bound_to 2610
  -26.6980    3.4000   -3.2024 LP  0  0  0  0  0  0  0  0  0  0  0  0  # atno 5650 bound_to 2610

> <Gold.Score>
     Fitness  S(hb_ext) S(vdw_ext)  S(hb_int)    S(int)      intcor
     36.16       6.00      22.73       0.00      -1.10      -0.76

> <Gold.Goldscore.Fitness>
36.1568

> <Gold.Goldscore.Internal.Vdw>
-1.3103

> <Gold.Goldscore.Internal.Torsion>
-0.5583

> <Gold.Goldscore.External.Vdw>
22.7348

> <Gold.Goldscore.Internal.HBond>
0.0000

> <Gold.Goldscore.External.HBond>
6.0000

> <Gold.Goldscore.Internal.Correction>
-0.7650

> <Gold.Goldscore.Hbonds>
donor molecule, donor type, donor heavy atom, donor atom, acceptor molecule, acceptor atom, score
      P1  H  1043  1055       L1    17  1.00

> <Gold.Goldscore.Internal.Vdw.Weighted>
-1.3103

> <Gold.Goldscore.Internal.Torsion.Weighted>
-0.5583

> <Gold.Goldscore.External.Vdw.Weighted>
31.2604

> <Gold.Goldscore.Internal.HBond.Weighted>
0.0000

> <Gold.Goldscore.External.HBond.Weighted>
6.0000

> <Gold.Goldscore.Internal.Correction.Weighted>
-0.7650

> <Gold.Rescore>
     Score     S(PLP)   S(hbond)     S(cho)   S(metal)  DE(clash)   DE(tors)     intcor
     33.26     -32.59       1.00       0.00       0.00       1.48       0.42       ----

> <Gold.PLP.Fitness>
33.2630

> <Gold.PLP.PLP>
-32.5925

> <Gold.PLP.part.hbond>
-1.0000

> <Gold.PLP.part.metal>
0.0000

> <Gold.PLP.part.buried>
-5.4836

> <Gold.PLP.part.nonpolar>
-26.7750

> <Gold.PLP.part.repulsive>
0.8054

> <Gold.PLP.ligand.clash>
1.4847

> <Gold.PLP.ligand.torsion>
0.4224

> <Gold.PLP.Chemscore.Hbond>
1.0000

> <Gold.PLP.Chemscore.CHOScore>
0.0000

> <Gold.PLP.Chemscore.Metal>
0.0000

> <Gold.Chemscore.Hbonds>
donor molecule, donor type, donor heavy atom, donor atom, acceptor molecule, acceptor atom, score
      P1  H  1043  1055       L1    17  1.00

> <Gold.PLP.Chemscore.Internal.Correction>
   9.000000E+99

