#       Name:                CT1002167954
#       Creating user name   hitesit
#       Creation time:       Sun Apr 16 02:21:20 2023


#       File generated by GOLD software.
#

@<TRIPOS>MOLECULE
CT1002167954|ligand_prepared|mol2|1|dock2
    29    30     1
SMALL
NO_CHARGES


@<TRIPOS>ATOM
      1 C1         -28.8264   9.9622  10.1959 C.3            1 RES1               0.0000
      2 C2         -28.6843  10.2382   8.6852 C.ar           1 RES1               0.0000
      3 C3         -27.9841   8.7234  10.4862 C.2            1 RES1               0.0000
      4 C4         -28.3453  11.2222  10.9069 C.2            1 RES1               0.0000
      5 C5         -30.2795   9.6847  10.6464 C.3            1 RES1               0.0000
      6 C6         -27.4289  10.4225   8.1135 C.ar           1 RES1               0.0000
      7 C7         -29.7972  10.3085   7.8514 C.ar           1 RES1               0.0000
      8 N8         -26.8020   8.9027  11.1423 N.am           1 RES1               0.0000
      9 O9         -28.3328   7.6111  10.1103 O.2            1 RES1               0.0000
     10 N10        -27.2102  11.1355  11.6696 N.am           1 RES1               0.0000
     11 O11        -28.9297  12.2934  10.8002 O.2            1 RES1               0.0000
     12 C12        -30.4104   9.3523  12.1245 C.3            1 RES1               0.0000
     13 C13        -27.2908  10.6655   6.7570 C.ar           1 RES1               0.0000
     14 C14        -29.6568  10.5518   6.4951 C.ar           1 RES1               0.0000
     15 C15        -26.3995  10.0403  11.7947 C.2            1 RES1               0.0000
     16 C16        -28.4044  10.7298   5.9468 C.ar           1 RES1               0.0000
     17 O17        -25.3651  10.0557  12.4556 O.2            1 RES1               0.0000
     18 H18        -30.8919  10.5682  10.4277 H              1 RES1               0.0000
     19 H19        -30.6773   8.8474  10.0597 H              1 RES1               0.0000
     20 H20        -26.5413  10.3778   8.7357 H              1 RES1               0.0000
     21 H21        -30.7923  10.1727   8.2610 H              1 RES1               0.0000
     22 H22        -26.1576   8.1185  11.1484 H              1 RES1               0.0000
     23 H23        -26.9450  11.9640  12.1925 H              1 RES1               0.0000
     24 H24        -31.4496   9.1664  12.3875 H              1 RES1               0.0000
     25 H25        -29.8339   8.4634  12.3724 H              1 RES1               0.0000
     26 H26        -30.0471  10.1740  12.7382 H              1 RES1               0.0000
     27 H27        -26.3030  10.8062   6.3307 H              1 RES1               0.0000
     28 H28        -30.5360  10.6023   5.8614 H              1 RES1               0.0000
     29 H29        -28.2959  10.9198   4.8841 H              1 RES1               0.0000
@<TRIPOS>BOND
    1    1    2 1     
    2    1    3 1     
    3    1    4 1     
    4    1    5 1     
    5    2    6 ar    
    6    2    7 ar    
    7    3    8 1     
    8    3    9 2     
    9    4   10 1     
   10    4   11 2     
   11    5   12 1     
   12    5   18 1     
   13    5   19 1     
   14    6   13 ar    
   15    6   20 1     
   16    7   14 ar    
   17    7   21 1     
   18    8   15 1     
   19    8   22 1     
   20   10   15 1     
   21   10   23 1     
   22   12   24 1     
   23   12   25 1     
   24   12   26 1     
   25   13   16 ar    
   26   13   27 1     
   27   14   16 ar    
   28   14   28 1     
   29   15   17 2     
   30   16   29 1     
@<TRIPOS>SUBSTRUCTURE
      1 RES1           1
@<TRIPOS>SET
DONOR_HYDROGENS      STATIC     ATOMS    <user>   **** ""
2 22 23
ATOM$RED        STATIC     ATOMS    COLORGROUP SYSTEM
2 22 23
@<TRIPOS>COMMENT
> <Gold.Version>
2022.3.0

> <Gold.Id.Protein>
unknown|5n23_clean|pdb

> <Gold.Protein.RotatedTorsions>
[  719  714  712  709 ] final   80.64 input   60.03 | X-H torsion
[ 5218 5209 5208 5206 ] final   96.17 input   59.98 | X-H torsion
[ 1928 1919 1918 1916 ] final   29.92 input   60.02 | X-H torsion
[ 2029 2024 2023 2020 ] final  142.67 input   60.01 | X-H torsion
[ 2612 2610 2609 2607 ] final  -66.31 input   60.02 | X-H torsion
[ 2694 2683 2682 2681 ] final  154.59 input   59.97 | X-H torsion

> <Gold.Protein.ActiveResidues>
 ARG47   THR48   LEU49   GLY50   THR51   GLY52   SER53   PHE54   GLY55   ARG56  
 VAL57   MET58   LEU59   HIS68   TYR69   ALA70   MET71   LYS72   ILE73   GLU91  
 GLN95   VAL104  LYS105  MET118  VAL119  LEU120  GLU121  TYR122  ALA123  PRO124 
 GLY125  GLY126  GLU127  MET128  PHE129  SER130  HIS131  ARG134  TYR164  ASP166 
 LYS168  GLU170  ASN171  LEU172  LEU173  ILE174  ASP175  LYS181  VAL182  ALA183 
 ASP184  PHE185  GLY186  PRO316  ASN326  PHE327  ASP328  ASP329  TYR330 

> <Gold.Protein.RotatedAtoms>
  -19.4430   12.9330    5.8571 H   0  0  0  0  0  0  0  0  0  0  0  0  # atno 719  bound_to 714 
  -34.3295   12.4628   10.4241 H   0  0  0  0  0  0  0  0  0  0  0  0  # atno 1928 bound_to 1919
  -26.2916    5.5122   11.4137 H   0  0  0  0  0  0  0  0  0  0  0  0  # atno 2029 bound_to 2024
  -25.4821    3.4318   -3.2457 H   0  0  0  0  0  0  0  0  0  0  0  0  # atno 2612 bound_to 2610
  -19.1649    4.6262    0.1385 H   0  0  0  0  0  0  0  0  0  0  0  0  # atno 2694 bound_to 2683
  -18.9003    4.2658    1.7347 H   0  0  0  0  0  0  0  0  0  0  0  0  # atno 2695 bound_to 2683
  -18.3784    3.2274    0.5533 H   0  0  0  0  0  0  0  0  0  0  0  0  # atno 2696 bound_to 2683
  -22.9339   13.2397    9.4819 H   0  0  0  0  0  0  0  0  0  0  0  0  # atno 5218 bound_to 5209
  -20.6627   13.0394    6.9294 LP  0  0  0  0  0  0  0  0  0  0  0  0  # atno 5588 bound_to 714 
  -19.3003   13.9124    7.1492 LP  0  0  0  0  0  0  0  0  0  0  0  0  # atno 5589 bound_to 714 
  -23.0857   12.6111   10.9750 LP  0  0  0  0  0  0  0  0  0  0  0  0  # atno 5592 bound_to 5209
  -21.6071   12.9772   10.3864 LP  0  0  0  0  0  0  0  0  0  0  0  0  # atno 5593 bound_to 5209
  -34.9084   10.9455   10.5288 LP  0  0  0  0  0  0  0  0  0  0  0  0  # atno 5612 bound_to 1919
  -35.8694   12.2157   10.8888 LP  0  0  0  0  0  0  0  0  0  0  0  0  # atno 5613 bound_to 1919
  -25.0085    4.5598   11.1085 LP  0  0  0  0  0  0  0  0  0  0  0  0  # atno 5627 bound_to 2024
  -25.0441    5.4796   12.4574 LP  0  0  0  0  0  0  0  0  0  0  0  0  # atno 5628 bound_to 2024
  -25.6989    2.0903   -2.3498 LP  0  0  0  0  0  0  0  0  0  0  0  0  # atno 5649 bound_to 2610
  -26.9897    2.9331   -2.8883 LP  0  0  0  0  0  0  0  0  0  0  0  0  # atno 5650 bound_to 2610

> <Gold.Score>
     Fitness  S(hb_ext) S(vdw_ext)  S(hb_int)    S(int)      intcor
     35.22       1.57      24.51       0.00      -0.05      -0.77

> <Gold.Goldscore.Fitness>
35.2165

> <Gold.Goldscore.Internal.Vdw>
-0.4398

> <Gold.Goldscore.Internal.Torsion>
-0.3786

> <Gold.Goldscore.External.Vdw>
24.5110

> <Gold.Goldscore.Internal.HBond>
0.0000

> <Gold.Goldscore.External.HBond>
1.5669

> <Gold.Goldscore.Internal.Correction>
-0.7653

> <Gold.Goldscore.Hbonds>
donor molecule, donor type, donor heavy atom, donor atom, acceptor molecule, acceptor atom, score
      P1  H  1967  1976       L1     9  0.57
      P1  H  2024  2029       L1     9  0.21

> <Gold.Goldscore.Internal.Vdw.Weighted>
-0.4398

> <Gold.Goldscore.Internal.Torsion.Weighted>
-0.3786

> <Gold.Goldscore.External.Vdw.Weighted>
33.7026

> <Gold.Goldscore.Internal.HBond.Weighted>
0.0000

> <Gold.Goldscore.External.HBond.Weighted>
1.5669

> <Gold.Goldscore.Internal.Correction.Weighted>
-0.7653

> <Gold.Rescore>
     Score     S(PLP)   S(hbond)     S(cho)   S(metal)  DE(clash)   DE(tors)     intcor
     42.62     -39.19       1.28       0.00       0.00       0.00       0.20       ----

> <Gold.PLP.Fitness>
42.6234

> <Gold.PLP.PLP>
-39.1902

> <Gold.PLP.part.hbond>
-3.0110

> <Gold.PLP.part.metal>
0.0000

> <Gold.PLP.part.buried>
-7.3721

> <Gold.PLP.part.nonpolar>
-30.4502

> <Gold.PLP.part.repulsive>
0.4717

> <Gold.PLP.ligand.clash>
0.0000

> <Gold.PLP.ligand.torsion>
0.1983

> <Gold.PLP.Chemscore.Hbond>
1.2766

> <Gold.PLP.Chemscore.CHOScore>
0.0000

> <Gold.PLP.Chemscore.Metal>
0.0000

> <Gold.Chemscore.Hbonds>
donor molecule, donor type, donor heavy atom, donor atom, acceptor molecule, acceptor atom, score
      P1  H  1967  1976       L1     9  0.94

> <Gold.PLP.Chemscore.Internal.Correction>
   9.000000E+99

