#       Name:                CT1002167954
#       Creating user name   hitesit
#       Creation time:       Sun Apr 16 02:21:21 2023


#       File generated by GOLD software.
#

@<TRIPOS>MOLECULE
CT1002167954|ligand_prepared|mol2|1|dock3
    29    30     1
SMALL
NO_CHARGES


@<TRIPOS>ATOM
      1 C1         -25.8642   9.0838   2.9022 C.3            1 RES1               0.0000
      2 C2         -26.8786   9.8049   3.8131 C.ar           1 RES1               0.0000
      3 C3         -26.6778   8.4257   1.7917 C.2            1 RES1               0.0000
      4 C4         -24.8946  10.1537   2.4125 C.2            1 RES1               0.0000
      5 C5         -25.0435   7.9898   3.6242 C.3            1 RES1               0.0000
      6 C6         -28.1087  10.2214   3.3132 C.ar           1 RES1               0.0000
      7 C7         -26.6000  10.0578   5.1536 C.ar           1 RES1               0.0000
      8 N8         -26.6271   8.9907   0.5515 N.am           1 RES1               0.0000
      9 O9         -27.3843   7.4492   2.0100 O.2            1 RES1               0.0000
     10 N10        -24.8862  10.4487   1.0743 N.am           1 RES1               0.0000
     11 O11        -24.1496  10.7558   3.1759 O.2            1 RES1               0.0000
     12 C12        -24.2484   7.0985   2.6832 C.3            1 RES1               0.0000
     13 C13        -29.0284  10.8649   4.1247 C.ar           1 RES1               0.0000
     14 C14        -27.5210  10.7017   5.9634 C.ar           1 RES1               0.0000
     15 C15        -25.7301   9.9374   0.1263 C.2            1 RES1               0.0000
     16 C16        -28.7354  11.1050   5.4503 C.ar           1 RES1               0.0000
     17 O17        -25.6973  10.2926  -1.0484 O.2            1 RES1               0.0000
     18 H18        -24.3499   8.4725   4.3236 H              1 RES1               0.0000
     19 H19        -25.7280   7.3634   4.2095 H              1 RES1               0.0000
     20 H20        -28.3559  10.0433   2.2720 H              1 RES1               0.0000
     21 H21        -25.6505   9.7505   5.5786 H              1 RES1               0.0000
     22 H22        -27.3202   8.6806  -0.1221 H              1 RES1               0.0000
     23 H23        -24.1859  11.1106   0.7553 H              1 RES1               0.0000
     24 H24        -23.6912   6.3487   3.2409 H              1 RES1               0.0000
     25 H25        -24.9094   6.5830   1.9895 H              1 RES1               0.0000
     26 H26        -23.5394   7.6855   2.1030 H              1 RES1               0.0000
     27 H27        -29.9822  11.1815   3.7157 H              1 RES1               0.0000
     28 H28        -27.2859  10.8892   7.0059 H              1 RES1               0.0000
     29 H29        -29.4562  11.6088   6.0859 H              1 RES1               0.0000
@<TRIPOS>BOND
    1    1    2 1     
    2    1    3 1     
    3    1    4 1     
    4    1    5 1     
    5    2    6 ar    
    6    2    7 ar    
    7    3    8 1     
    8    3    9 2     
    9    4   10 1     
   10    4   11 2     
   11    5   12 1     
   12    5   18 1     
   13    5   19 1     
   14    6   13 ar    
   15    6   20 1     
   16    7   14 ar    
   17    7   21 1     
   18    8   15 1     
   19    8   22 1     
   20   10   15 1     
   21   10   23 1     
   22   12   24 1     
   23   12   25 1     
   24   12   26 1     
   25   13   16 ar    
   26   13   27 1     
   27   14   16 ar    
   28   14   28 1     
   29   15   17 2     
   30   16   29 1     
@<TRIPOS>SUBSTRUCTURE
      1 RES1           1
@<TRIPOS>SET
DONOR_HYDROGENS      STATIC     ATOMS    <user>   **** ""
2 22 23
ATOM$RED        STATIC     ATOMS    COLORGROUP SYSTEM
2 22 23
@<TRIPOS>COMMENT
> <Gold.Version>
2022.3.0

> <Gold.Id.Protein>
unknown|5n23_clean|pdb

> <Gold.Protein.RotatedTorsions>
[  719  714  712  709 ] final   18.42 input   60.03 | X-H torsion
[ 5218 5209 5208 5206 ] final   47.80 input   59.98 | X-H torsion
[ 1928 1919 1918 1916 ] final  123.51 input   60.02 | X-H torsion
[ 2029 2024 2023 2020 ] final -177.38 input   60.01 | X-H torsion
[ 2612 2610 2609 2607 ] final   62.41 input   60.02 | X-H torsion
[ 2694 2683 2682 2681 ] final  166.65 input   59.97 | X-H torsion

> <Gold.Protein.ActiveResidues>
 ARG47   THR48   LEU49   GLY50   THR51   GLY52   SER53   PHE54   GLY55   ARG56  
 VAL57   MET58   LEU59   HIS68   TYR69   ALA70   MET71   LYS72   ILE73   GLU91  
 GLN95   VAL104  LYS105  MET118  VAL119  LEU120  GLU121  TYR122  ALA123  PRO124 
 GLY125  GLY126  GLU127  MET128  PHE129  SER130  HIS131  ARG134  TYR164  ASP166 
 LYS168  GLU170  ASN171  LEU172  LEU173  ILE174  ASP175  LYS181  VAL182  ALA183 
 ASP184  PHE185  GLY186  PRO316  ASN326  PHE327  ASP328  ASP329  TYR330 

> <Gold.Protein.RotatedAtoms>
  -20.3259   12.6836    6.1650 H   0  0  0  0  0  0  0  0  0  0  0  0  # atno 719  bound_to 714 
  -35.6287   12.5663   10.8298 H   0  0  0  0  0  0  0  0  0  0  0  0  # atno 1928 bound_to 1919
  -26.1084    5.7739   11.9675 H   0  0  0  0  0  0  0  0  0  0  0  0  # atno 2029 bound_to 2024
  -26.9922    2.8125   -2.8114 H   0  0  0  0  0  0  0  0  0  0  0  0  # atno 2612 bound_to 2610
  -19.2203    4.7386    0.2959 H   0  0  0  0  0  0  0  0  0  0  0  0  # atno 2694 bound_to 2683
  -18.8035    4.0920    1.7642 H   0  0  0  0  0  0  0  0  0  0  0  0  # atno 2695 bound_to 2683
  -18.4199    3.2888    0.3662 H   0  0  0  0  0  0  0  0  0  0  0  0  # atno 2696 bound_to 2683
  -23.4364   12.9840   10.0020 H   0  0  0  0  0  0  0  0  0  0  0  0  # atno 5218 bound_to 5209
  -20.1314   13.6775    7.4390 LP  0  0  0  0  0  0  0  0  0  0  0  0  # atno 5588 bound_to 714 
  -18.9428   13.5254    6.3297 LP  0  0  0  0  0  0  0  0  0  0  0  0  # atno 5589 bound_to 714 
  -22.3299   12.6093   11.1346 LP  0  0  0  0  0  0  0  0  0  0  0  0  # atno 5592 bound_to 5209
  -21.8570   13.2365    9.7029 LP  0  0  0  0  0  0  0  0  0  0  0  0  # atno 5593 bound_to 5209
  -34.1513   12.0790   10.3523 LP  0  0  0  0  0  0  0  0  0  0  0  0  # atno 5612 bound_to 1919
  -35.3184   10.9781   10.6568 LP  0  0  0  0  0  0  0  0  0  0  0  0  # atno 5613 bound_to 1919
  -25.5760    4.7194   10.8489 LP  0  0  0  0  0  0  0  0  0  0  0  0  # atno 5627 bound_to 2024
  -24.6611    5.0562   12.1589 LP  0  0  0  0  0  0  0  0  0  0  0  0  # atno 5628 bound_to 2024
  -25.5981    3.5039   -3.2885 LP  0  0  0  0  0  0  0  0  0  0  0  0  # atno 5649 bound_to 2610
  -25.5707    2.1428   -2.3867 LP  0  0  0  0  0  0  0  0  0  0  0  0  # atno 5650 bound_to 2610

> <Gold.Score>
     Fitness  S(hb_ext) S(vdw_ext)  S(hb_int)    S(int)      intcor
     36.51       6.00      22.82       0.00      -0.88      -0.77

> <Gold.Goldscore.Fitness>
36.5076

> <Gold.Goldscore.Internal.Vdw>
-1.0660

> <Gold.Goldscore.Internal.Torsion>
-0.5745

> <Gold.Goldscore.External.Vdw>
22.8239

> <Gold.Goldscore.Internal.HBond>
0.0000

> <Gold.Goldscore.External.HBond>
6.0000

> <Gold.Goldscore.Internal.Correction>
-0.7653

> <Gold.Goldscore.Hbonds>
donor molecule, donor type, donor heavy atom, donor atom, acceptor molecule, acceptor atom, score
      P1  H  1043  1055       L1    17  1.00

> <Gold.Goldscore.Internal.Vdw.Weighted>
-1.0660

> <Gold.Goldscore.Internal.Torsion.Weighted>
-0.5745

> <Gold.Goldscore.External.Vdw.Weighted>
31.3828

> <Gold.Goldscore.Internal.HBond.Weighted>
0.0000

> <Gold.Goldscore.External.HBond.Weighted>
6.0000

> <Gold.Goldscore.Internal.Correction.Weighted>
-0.7653

> <Gold.Rescore>
     Score     S(PLP)   S(hbond)     S(cho)   S(metal)  DE(clash)   DE(tors)     intcor
     32.61     -31.73       1.00       0.00       0.00       0.00       1.06       ----

> <Gold.PLP.Fitness>
32.6090

> <Gold.PLP.PLP>
-31.7255

> <Gold.PLP.part.hbond>
-1.0000

> <Gold.PLP.part.metal>
0.0000

> <Gold.PLP.part.buried>
-4.9551

> <Gold.PLP.part.nonpolar>
-26.3844

> <Gold.PLP.part.repulsive>
0.4103

> <Gold.PLP.ligand.clash>
0.0000

> <Gold.PLP.ligand.torsion>
1.0583

> <Gold.PLP.Chemscore.Hbond>
1.0000

> <Gold.PLP.Chemscore.CHOScore>
0.0000

> <Gold.PLP.Chemscore.Metal>
0.0000

> <Gold.Chemscore.Hbonds>
donor molecule, donor type, donor heavy atom, donor atom, acceptor molecule, acceptor atom, score
      P1  H  1043  1055       L1    17  0.94

> <Gold.PLP.Chemscore.Internal.Correction>
   9.000000E+99

