#       Name:                CT1002167954
#       Creating user name   hitesit
#       Creation time:       Sun Apr 16 02:21:25 2023


#       File generated by GOLD software.
#

@<TRIPOS>MOLECULE
CT1002167954|ligand_prepared|mol2|1|dock7
    29    30     1
SMALL
NO_CHARGES


@<TRIPOS>ATOM
      1 C1         -27.7342   9.4809   3.5510 C.3            1 RES1               0.0000
      2 C2         -28.9466   9.4834   4.5044 C.ar           1 RES1               0.0000
      3 C3         -26.6912  10.3988   4.1818 C.2            1 RES1               0.0000
      4 C4         -27.2909   8.0272   3.4284 C.2            1 RES1               0.0000
      5 C5         -28.0546  10.0040   2.1314 C.3            1 RES1               0.0000
      6 C6         -28.7778   9.2502   5.8659 C.ar           1 RES1               0.0000
      7 C7         -30.2372   9.7194   4.0383 C.ar           1 RES1               0.0000
      8 N8         -25.6014   9.8151   4.7576 N.am           1 RES1               0.0000
      9 O9         -26.8421  11.6140   4.2085 O.2            1 RES1               0.0000
     10 N10        -26.0613   7.6866   3.9284 N.am           1 RES1               0.0000
     11 O11        -28.0021   7.1704   2.9183 O.2            1 RES1               0.0000
     12 C12        -26.8477  10.0486   1.2075 C.3            1 RES1               0.0000
     13 C13        -29.8596   9.2558   6.7308 C.ar           1 RES1               0.0000
     14 C14        -31.3177   9.7244   4.9049 C.ar           1 RES1               0.0000
     15 C15        -25.2095   8.5084   4.6149 C.2            1 RES1               0.0000
     16 C16        -31.1300   9.4933   6.2510 C.ar           1 RES1               0.0000
     17 O17        -24.1444   8.1149   5.0817 O.2            1 RES1               0.0000
     18 H18        -28.8198   9.3591   1.6818 H              1 RES1               0.0000
     19 H19        -28.4738  11.0144   2.2136 H              1 RES1               0.0000
     20 H20        -27.7858   9.0590   6.2614 H              1 RES1               0.0000
     21 H21        -30.4087   9.9026   2.9830 H              1 RES1               0.0000
     22 H22        -25.0246  10.4048   5.3490 H              1 RES1               0.0000
     23 H23        -25.7524   6.7320   3.7744 H              1 RES1               0.0000
     24 H24        -27.1277  10.4228   0.2250 H              1 RES1               0.0000
     25 H25        -26.0765  10.7012   1.6116 H              1 RES1               0.0000
     26 H26        -26.4204   9.0558   1.0829 H              1 RES1               0.0000
     27 H27        -29.7068   9.0721   7.7892 H              1 RES1               0.0000
     28 H28        -32.3159   9.9111   4.5228 H              1 RES1               0.0000
     29 H29        -31.9773   9.4980   6.9288 H              1 RES1               0.0000
@<TRIPOS>BOND
    1    1    2 1     
    2    1    3 1     
    3    1    4 1     
    4    1    5 1     
    5    2    6 ar    
    6    2    7 ar    
    7    3    8 1     
    8    3    9 2     
    9    4   10 1     
   10    4   11 2     
   11    5   12 1     
   12    5   18 1     
   13    5   19 1     
   14    6   13 ar    
   15    6   20 1     
   16    7   14 ar    
   17    7   21 1     
   18    8   15 1     
   19    8   22 1     
   20   10   15 1     
   21   10   23 1     
   22   12   24 1     
   23   12   25 1     
   24   12   26 1     
   25   13   16 ar    
   26   13   27 1     
   27   14   16 ar    
   28   14   28 1     
   29   15   17 2     
   30   16   29 1     
@<TRIPOS>SUBSTRUCTURE
      1 RES1           1
@<TRIPOS>SET
DONOR_HYDROGENS      STATIC     ATOMS    <user>   **** ""
2 22 23
ATOM$RED        STATIC     ATOMS    COLORGROUP SYSTEM
2 22 23
@<TRIPOS>COMMENT
> <Gold.Version>
2022.3.0

> <Gold.Id.Protein>
unknown|5n23_clean|pdb

> <Gold.Protein.RotatedTorsions>
[  719  714  712  709 ] final   65.69 input   60.03 | X-H torsion
[ 5218 5209 5208 5206 ] final   75.85 input   59.98 | X-H torsion
[ 1928 1919 1918 1916 ] final   36.55 input   60.02 | X-H torsion
[ 2029 2024 2023 2020 ] final -142.94 input   60.01 | X-H torsion
[ 2612 2610 2609 2607 ] final  149.02 input   60.02 | X-H torsion
[ 2694 2683 2682 2681 ] final   92.74 input   59.97 | X-H torsion

> <Gold.Protein.ActiveResidues>
 ARG47   THR48   LEU49   GLY50   THR51   GLY52   SER53   PHE54   GLY55   ARG56  
 VAL57   MET58   LEU59   HIS68   TYR69   ALA70   MET71   LYS72   ILE73   GLU91  
 GLN95   VAL104  LYS105  MET118  VAL119  LEU120  GLU121  TYR122  ALA123  PRO124 
 GLY125  GLY126  GLU127  MET128  PHE129  SER130  HIS131  ARG134  TYR164  ASP166 
 LYS168  GLU170  ASN171  LEU172  LEU173  ILE174  ASP175  LYS181  VAL182  ALA183 
 ASP184  PHE185  GLY186  PRO316  ASN326  PHE327  ASP328  ASP329  TYR330 

> <Gold.Protein.RotatedAtoms>
  -19.6567   12.8161    5.8512 H   0  0  0  0  0  0  0  0  0  0  0  0  # atno 719  bound_to 714 
  -34.3979   12.5430   10.4492 H   0  0  0  0  0  0  0  0  0  0  0  0  # atno 1928 bound_to 1919
  -25.6967    5.7796   12.3380 H   0  0  0  0  0  0  0  0  0  0  0  0  # atno 2029 bound_to 2024
  -26.0954    2.0390   -2.3128 H   0  0  0  0  0  0  0  0  0  0  0  0  # atno 2612 bound_to 2610
  -18.7141    3.7878   -0.1088 H   0  0  0  0  0  0  0  0  0  0  0  0  # atno 2694 bound_to 2683
  -19.2552    4.8587    1.0349 H   0  0  0  0  0  0  0  0  0  0  0  0  # atno 2695 bound_to 2683
  -18.4745    3.4731    1.5008 H   0  0  0  0  0  0  0  0  0  0  0  0  # atno 2696 bound_to 2683
  -23.2039   13.1485    9.6486 H   0  0  0  0  0  0  0  0  0  0  0  0  # atno 5218 bound_to 5209
  -20.6128   13.1945    7.1128 LP  0  0  0  0  0  0  0  0  0  0  0  0  # atno 5588 bound_to 714 
  -19.1350   13.8749    6.9717 LP  0  0  0  0  0  0  0  0  0  0  0  0  # atno 5589 bound_to 714 
  -22.7855   12.5792   11.1144 LP  0  0  0  0  0  0  0  0  0  0  0  0  # atno 5592 bound_to 5209
  -21.6355   13.1009   10.0790 LP  0  0  0  0  0  0  0  0  0  0  0  0  # atno 5593 bound_to 5209
  -34.8062   10.9685   10.4984 LP  0  0  0  0  0  0  0  0  0  0  0  0  # atno 5612 bound_to 1919
  -35.9028   12.1120   10.8938 LP  0  0  0  0  0  0  0  0  0  0  0  0  # atno 5613 bound_to 1919
  -26.0278    5.0374   10.9288 LP  0  0  0  0  0  0  0  0  0  0  0  0  # atno 5627 bound_to 2024
  -24.6242    4.7326   11.7057 LP  0  0  0  0  0  0  0  0  0  0  0  0  # atno 5628 bound_to 2024
  -26.8513    3.2473   -3.0988 LP  0  0  0  0  0  0  0  0  0  0  0  0  # atno 5649 bound_to 2610
  -25.2200    3.1778   -3.0783 LP  0  0  0  0  0  0  0  0  0  0  0  0  # atno 5650 bound_to 2610

> <Gold.Score>
     Fitness  S(hb_ext) S(vdw_ext)  S(hb_int)    S(int)      intcor
     33.06       1.26      23.39       0.00      -0.37      -0.76

> <Gold.Goldscore.Fitness>
33.0604

> <Gold.Goldscore.Internal.Vdw>
-0.7577

> <Gold.Goldscore.Internal.Torsion>
-0.3746

> <Gold.Goldscore.External.Vdw>
23.3920

> <Gold.Goldscore.Internal.HBond>
0.0000

> <Gold.Goldscore.External.HBond>
1.2637

> <Gold.Goldscore.Internal.Correction>
-0.7650

> <Gold.Goldscore.Hbonds>
donor molecule, donor type, donor heavy atom, donor atom, acceptor molecule, acceptor atom, score
      L1  H    10    23       P1  2714  0.63

> <Gold.Goldscore.Internal.Vdw.Weighted>
-0.7577

> <Gold.Goldscore.Internal.Torsion.Weighted>
-0.3746

> <Gold.Goldscore.External.Vdw.Weighted>
32.1640

> <Gold.Goldscore.Internal.HBond.Weighted>
0.0000

> <Gold.Goldscore.External.HBond.Weighted>
1.2637

> <Gold.Goldscore.Internal.Correction.Weighted>
-0.7650

> <Gold.Rescore>
     Score     S(PLP)   S(hbond)     S(cho)   S(metal)  DE(clash)   DE(tors)     intcor
     26.68     -27.08       0.00       0.00       0.00       0.00       0.20       ----

> <Gold.PLP.Fitness>
26.6751

> <Gold.PLP.PLP>
-27.0843

> <Gold.PLP.part.hbond>
0.0000

> <Gold.PLP.part.metal>
0.0000

> <Gold.PLP.part.buried>
-0.6608

> <Gold.PLP.part.nonpolar>
-27.7012

> <Gold.PLP.part.repulsive>
1.3254

> <Gold.PLP.ligand.clash>
0.0000

> <Gold.PLP.ligand.torsion>
0.2046

> <Gold.PLP.Chemscore.Hbond>
0.0000

> <Gold.PLP.Chemscore.CHOScore>
0.0000

> <Gold.PLP.Chemscore.Metal>
0.0000

> <Gold.Chemscore.Hbonds>
donor molecule, donor type, donor heavy atom, donor atom, acceptor molecule, acceptor atom, score
      L1  H    10    23       P1  2714  0.62

> <Gold.PLP.Chemscore.Internal.Correction>
   9.000000E+99

