#       Name:                CT1002167954
#       Creating user name   hitesit
#       Creation time:       Sun Apr 16 20:18:56 2023


#       File generated by GOLD software.
#

@<TRIPOS>MOLECULE
CT1002167954|ligand_prepared|mol2|1|dock3
    29    30     1
SMALL
NO_CHARGES


@<TRIPOS>ATOM
      1 C1          10.2679  12.5389  12.3254 C.3            1 RES1               0.0000
      2 C2          11.1585  12.5345  11.0662 C.ar           1 RES1               0.0000
      3 C3           9.7652  13.9702  12.4896 C.2            1 RES1               0.0000
      4 C4           9.1649  11.5174  12.0714 C.2            1 RES1               0.0000
      5 C5          11.0112  12.1281  13.6178 C.3            1 RES1               0.0000
      6 C6          10.5971  12.3829   9.8018 C.ar           1 RES1               0.0000
      7 C7          12.5401  12.6834  11.1526 C.ar           1 RES1               0.0000
      8 N8           8.4607  14.2210  12.1806 N.am           1 RES1               0.0000
      9 O9          10.5121  14.8728  12.8468 O.2            1 RES1               0.0000
     10 N10          7.8777  11.9753  11.9654 N.am           1 RES1               0.0000
     11 O11          9.4009  10.3221  11.9456 O.2            1 RES1               0.0000
     12 C12         10.0938  11.9170  14.8120 C.3            1 RES1               0.0000
     13 C13         11.3879  12.3831   8.6647 C.ar           1 RES1               0.0000
     14 C14         13.3292  12.6830  10.0142 C.ar           1 RES1               0.0000
     15 C15          7.4794  13.2842  11.9779 C.2            1 RES1               0.0000
     16 C16         12.7543  12.5336   8.7701 C.ar           1 RES1               0.0000
     17 O17          6.3091  13.6206  11.8218 O.2            1 RES1               0.0000
     18 H18         11.5629  11.1992  13.4277 H              1 RES1               0.0000
     19 H19         11.7422  12.9071  13.8675 H              1 RES1               0.0000
     20 H20          9.5240  12.2608   9.6994 H              1 RES1               0.0000
     21 H21         13.0143  12.8014  12.1210 H              1 RES1               0.0000
     22 H22          8.1899  15.1953  12.0921 H              1 RES1               0.0000
     23 H23          7.1489  11.2754  11.8683 H              1 RES1               0.0000
     24 H24         10.6659  11.6304  15.6919 H              1 RES1               0.0000
     25 H25          9.5478  12.8288  15.0449 H              1 RES1               0.0000
     26 H26          9.3696  11.1310  14.6077 H              1 RES1               0.0000
     27 H27         10.9307  12.2638   7.6880 H              1 RES1               0.0000
     28 H28         14.4042  12.8012  10.1019 H              1 RES1               0.0000
     29 H29         13.3735  12.5341   7.8792 H              1 RES1               0.0000
@<TRIPOS>BOND
    1    1    2 1     
    2    1    3 1     
    3    1    4 1     
    4    1    5 1     
    5    2    6 ar    
    6    2    7 ar    
    7    3    8 1     
    8    3    9 2     
    9    4   10 1     
   10    4   11 2     
   11    5   12 1     
   12    5   18 1     
   13    5   19 1     
   14    6   13 ar    
   15    6   20 1     
   16    7   14 ar    
   17    7   21 1     
   18    8   15 1     
   19    8   22 1     
   20   10   15 1     
   21   10   23 1     
   22   12   24 1     
   23   12   25 1     
   24   12   26 1     
   25   13   16 ar    
   26   13   27 1     
   27   14   16 ar    
   28   14   28 1     
   29   15   17 2     
   30   16   29 1     
@<TRIPOS>SUBSTRUCTURE
      1 RES1           1
@<TRIPOS>SET
DONOR_HYDROGENS      STATIC     ATOMS    <user>   **** ""
2 22 23
ATOM$RED        STATIC     ATOMS    COLORGROUP SYSTEM
2 22 23
@<TRIPOS>COMMENT
> <Gold.Version>
2022.3.0

> <Gold.Id.Protein>
unknown|3mvj_clean|pdb

> <Gold.Protein.RotatedTorsions>
[ 9935 9915 9914 9913 ] final  -84.01 input   59.98 | X-H torsion
[ 10977 10935 10934 10932 ] final -131.40 input   60.03 | X-H torsion
[ 9832 9816 9817 9818 ] final  -59.80 input   89.09 | X-H torsion
[ 9883 9871 9872 9873 ] final   39.53 input -126.12 | X-H torsion
[ 9925 9907 9908 9909 ] final   28.64 input  109.17 | X-H torsion
[ 9887 9876 9875 9872 ] final  -79.66 input   59.96 | X-H torsion
[ 10737 10695 10694 10692 ] final  167.94 input   59.99 | X-H torsion
[ 11660 11631 11630 11629 ] final -142.64 input   60.02 | X-H torsion
[ 9775 9759 9760 9761 ] final  155.53 input  126.36 | X-H torsion
[ 11617 11587 11588 11589 ] final  -50.66 input  114.14 | X-H torsion
[ 11577 11538 11537 11535 ] final   27.44 input   60.01 | X-H torsion
[ 11396 11358 11359 11360 ] final   55.62 input   98.08 | X-H torsion
[ 11450 11416 11417 11418 ] final   19.28 input  102.35 | X-H torsion
[ 11569 11527 11528 11529 ] final  133.58 input  127.83 | X-H torsion
[ 11822 11800 11801 11802 ] final -170.61 input  127.47 | X-H torsion
[ 11676 11632 11633 11634 ] final   70.87 input  113.96 | X-H torsion
[ 11504 11466 11467 11468 ] final  -38.57 input  126.08 | X-H torsion
[ 11785 11753 11754 11755 ] final   30.09 input  105.73 | X-H torsion
[ 11735 11697 11698 11699 ] final   32.27 input  116.95 | X-H torsion
[ 11559 11526 11525 11523 ] final  106.35 input   60.00 | X-H torsion
[ 9355 9334 9332 9329 ] final    9.25 input   60.01 | X-H torsion
[ 7755 7713 7712 7711 ] final  -29.85 input   60.03 | X-H torsion
[ 15483 15454 15453 15451 ] final -164.98 input   59.98 | X-H torsion
[ 5786 5760 5759 5756 ] final    8.78 input   59.99 | X-H torsion
[ 1845 1810 1808 1805 ] final  -36.14 input   60.00 | X-H torsion
[ 8483 8455 8453 8450 ] final  -33.20 input   60.02 | X-H torsion
[ 1888 1872 1871 1868 ] final   85.43 input   59.98 | X-H torsion
[ 9501 9468 9467 9465 ] final -161.23 input   60.02 | X-H torsion
[ 3466 3411 3410 3409 ] final   98.84 input   59.97 | X-H torsion
[ 16458 9819 9818 9817 ] final -103.72 input    0.00 | X-H torsion
[ 16464 9874 9873 9872 ] final   10.91 input    0.00 | X-H torsion
[ 16467 9762 9761 9760 ] final  102.04 input    0.00 | X-H torsion
[ 16495 9617 9616 9615 ] final   87.82 input    0.00 | X-H torsion
[ 16497 9705 9704 9703 ] final  -82.56 input    0.00 | X-H torsion
[ 16500 11530 11529 11528 ] final   59.12 input    0.00 | X-H torsion
[ 16504 11361 11360 11359 ] final    9.62 input    0.00 | X-H torsion
[ 16511 11318 11317 11316 ] final  149.81 input    0.00 | X-H torsion
[ 16520 11590 11589 11588 ] final   67.01 input    0.00 | X-H torsion
[ 16523 11756 11755 11754 ] final  -99.04 input    0.00 | X-H torsion
[ 16543 11419 11418 11417 ] final  -73.60 input   -0.00 | X-H torsion
[ 16547 11469 11468 11467 ] final   96.30 input    0.00 | X-H torsion
[ 16571 11269 11268 11267 ] final  164.19 input   -0.00 | X-H torsion

> <Gold.Protein.ActiveResidues>
 THR48   LEU49   GLY50   THR51   GLY52   SER53   PHE54   GLY55   ARG56   VAL57  
 LYS78   LYS81   LEU82   LYS83   GLN84   HIS87   GLU127  PHE129  SER130  LEU132 
 ARG133  ARG134  ILE135  GLY136  ARG137  ARG165  ASP166  LEU167  LYS168  PRO169 
 GLU170  ASN171  LEU172  LEU173  THR183  ASP184  GLY186  PHE187  TPO197  LEU198 
 CYS199  GLY200  THR201  PRO202  GLU203  TYR204  LEU205  PRO207  ILE209  ILE210 
 LEU211  SER212  LYS213  VAL226  LEU227  TYR229  GLU230  ALA233  GLY234  TYR235 
 PRO236  PRO237  PHE238  PHE239  ALA240  ASP241  GLN242  PRO243  ILE244  GLN245 
 ILE246  TYR247  GLU248  LYS249  ILE250  VAL251  SER252  ARG256  PHE257  PRO258 
 SER259  PHE327  ASP328  TYR330 

> <Gold.Protein.RotatedAtoms>
   15.0338    6.4275   10.3603 H   0  0  0  0  0  0  0  0  0  0  0  0  # atno 1845 bound_to 1810
    6.8098    9.0714   10.0477 H   0  0  0  0  0  0  0  0  0  0  0  0  # atno 1888 bound_to 1872
   -0.0099   11.4715   -6.5599 H   0  0  0  0  0  0  0  0  0  0  0  0  # atno 3466 bound_to 3411
    1.4329   12.2877   -6.5427 H   0  0  0  0  0  0  0  0  0  0  0  0  # atno 3467 bound_to 3411
    1.3471   10.7418   -5.9504 H   0  0  0  0  0  0  0  0  0  0  0  0  # atno 3468 bound_to 3411
   16.0507   13.2911   25.1502 H   0  0  0  0  0  0  0  0  0  0  0  0  # atno 5786 bound_to 5760
    6.9895   12.7525   15.7819 H   0  0  0  0  0  0  0  0  0  0  0  0  # atno 7755 bound_to 7713
    6.1603   13.4352   14.5197 H   0  0  0  0  0  0  0  0  0  0  0  0  # atno 7756 bound_to 7713
    7.7343   12.9575   14.3157 H   0  0  0  0  0  0  0  0  0  0  0  0  # atno 7757 bound_to 7713
   14.3646   19.3875   15.0882 H   0  0  0  0  0  0  0  0  0  0  0  0  # atno 8483 bound_to 8455
    4.0277   14.7582   12.9703 H   0  0  0  0  0  0  0  0  0  0  0  0  # atno 9355 bound_to 9334
    4.0572   18.6045   22.9248 H   0  0  0  0  0  0  0  0  0  0  0  0  # atno 9501 bound_to 9468
    8.3094    6.7099   41.0654 H   0  0  0  0  0  0  0  0  0  0  0  0  # atno 9775 bound_to 9759
    5.7408    8.4794   39.8308 H   0  0  0  0  0  0  0  0  0  0  0  0  # atno 9832 bound_to 9816
    3.6152    9.7594   41.1670 H   0  0  0  0  0  0  0  0  0  0  0  0  # atno 9883 bound_to 9871
    5.7548   13.3649   40.5116 H   0  0  0  0  0  0  0  0  0  0  0  0  # atno 9887 bound_to 9876
    4.1258   10.4825   44.0237 H   0  0  0  0  0  0  0  0  0  0  0  0  # atno 9925 bound_to 9907
   -2.1952    7.1004   43.2904 H   0  0  0  0  0  0  0  0  0  0  0  0  # atno 9935 bound_to 9915
   -0.9477    8.0672   42.7831 H   0  0  0  0  0  0  0  0  0  0  0  0  # atno 9936 bound_to 9915
   -1.3785    6.7361   41.8944 H   0  0  0  0  0  0  0  0  0  0  0  0  # atno 9937 bound_to 9915
   -4.9308   17.6106   30.7615 H   0  0  0  0  0  0  0  0  0  0  0  0  # atno 10737 bound_to 10695
   -2.2220   15.1066   34.0085 H   0  0  0  0  0  0  0  0  0  0  0  0  # atno 10977 bound_to 10935
   11.0982    4.6316   29.1964 H   0  0  0  0  0  0  0  0  0  0  0  0  # atno 11396 bound_to 11358
   10.1646    3.0955   30.2993 H   0  0  0  0  0  0  0  0  0  0  0  0  # atno 11450 bound_to 11416
    9.5463    1.0898   31.1216 H   0  0  0  0  0  0  0  0  0  0  0  0  # atno 11504 bound_to 11466
   -3.1170   10.1844   12.4368 H   0  0  0  0  0  0  0  0  0  0  0  0  # atno 11559 bound_to 11526
   10.0385    3.2490   33.0582 H   0  0  0  0  0  0  0  0  0  0  0  0  # atno 11569 bound_to 11527
   13.5059    7.4560   34.7243 H   0  0  0  0  0  0  0  0  0  0  0  0  # atno 11577 bound_to 11538
    7.2081    1.8990   34.2527 H   0  0  0  0  0  0  0  0  0  0  0  0  # atno 11617 bound_to 11587
   -9.2732    7.9753   26.0168 H   0  0  0  0  0  0  0  0  0  0  0  0  # atno 11660 bound_to 11631
   -7.8835    8.7801   25.6083 H   0  0  0  0  0  0  0  0  0  0  0  0  # atno 11661 bound_to 11631
   -8.6841    9.1681   27.0061 H   0  0  0  0  0  0  0  0  0  0  0  0  # atno 11662 bound_to 11631
    7.6531   -0.2936   33.7682 H   0  0  0  0  0  0  0  0  0  0  0  0  # atno 11676 bound_to 11632
    6.9142   -0.7206   35.8656 H   0  0  0  0  0  0  0  0  0  0  0  0  # atno 11735 bound_to 11697
    5.6347   -0.5092   36.9854 H   0  0  0  0  0  0  0  0  0  0  0  0  # atno 11785 bound_to 11753
    3.3397   -0.6929   36.4417 H   0  0  0  0  0  0  0  0  0  0  0  0  # atno 11822 bound_to 11800
   14.7618    8.0297   17.9314 H   0  0  0  0  0  0  0  0  0  0  0  0  # atno 15483 bound_to 15454
    1.8951   10.8571   40.5156 LP  0  0  0  0  0  0  0  0  0  0  0  0  # atno 16458 bound_to 9819
    1.6700    9.6020   41.6878 LP  0  0  0  0  0  0  0  0  0  0  0  0  # atno 16459 bound_to 9819
   -3.1187   13.7508   33.9312 LP  0  0  0  0  0  0  0  0  0  0  0  0  # atno 16460 bound_to 10935
   -3.4598   15.0154   32.9559 LP  0  0  0  0  0  0  0  0  0  0  0  0  # atno 16461 bound_to 10935
    5.0953    6.9771   40.4443 LP  0  0  0  0  0  0  0  0  0  0  0  0  # atno 16462 bound_to 9816
    5.3419   10.0124   41.0638 LP  0  0  0  0  0  0  0  0  0  0  0  0  # atno 16463 bound_to 9871
    2.6375   13.3231   42.9466 LP  0  0  0  0  0  0  0  0  0  0  0  0  # atno 16464 bound_to 9874
    2.0889   12.5417   44.3917 LP  0  0  0  0  0  0  0  0  0  0  0  0  # atno 16465 bound_to 9874
    2.7100   10.3661   43.0054 LP  0  0  0  0  0  0  0  0  0  0  0  0  # atno 16466 bound_to 9907
    5.2396    8.9497   37.5650 LP  0  0  0  0  0  0  0  0  0  0  0  0  # atno 16467 bound_to 9762
    6.0699   10.0873   38.5732 LP  0  0  0  0  0  0  0  0  0  0  0  0  # atno 16468 bound_to 9762
    4.6024   13.4060   39.3633 LP  0  0  0  0  0  0  0  0  0  0  0  0  # atno 16469 bound_to 9876
    5.2507   11.9794   39.8228 LP  0  0  0  0  0  0  0  0  0  0  0  0  # atno 16470 bound_to 9876
   -3.6950   16.5949   31.0572 LP  0  0  0  0  0  0  0  0  0  0  0  0  # atno 16477 bound_to 10695
   -4.6634   16.3531   29.7648 LP  0  0  0  0  0  0  0  0  0  0  0  0  # atno 16478 bound_to 10695
    4.4229    5.2559   41.4903 LP  0  0  0  0  0  0  0  0  0  0  0  0  # atno 16495 bound_to 9617
    5.9822    5.9807   41.2824 LP  0  0  0  0  0  0  0  0  0  0  0  0  # atno 16496 bound_to 9617
    6.5449   10.0264   41.4575 LP  0  0  0  0  0  0  0  0  0  0  0  0  # atno 16497 bound_to 9705
    8.1258   10.2225   40.7775 LP  0  0  0  0  0  0  0  0  0  0  0  0  # atno 16498 bound_to 9705
    7.3347    8.0951   41.5018 LP  0  0  0  0  0  0  0  0  0  0  0  0  # atno 16499 bound_to 9759
    6.2405    2.7770   36.0714 LP  0  0  0  0  0  0  0  0  0  0  0  0  # atno 16500 bound_to 11530
    6.4438    1.0741   35.8285 LP  0  0  0  0  0  0  0  0  0  0  0  0  # atno 16501 bound_to 11530
    7.2722    4.2155   31.4676 LP  0  0  0  0  0  0  0  0  0  0  0  0  # atno 16504 bound_to 11361
    7.4837    2.5382   31.0908 LP  0  0  0  0  0  0  0  0  0  0  0  0  # atno 16505 bound_to 11361
    7.2904    2.1673   32.5248 LP  0  0  0  0  0  0  0  0  0  0  0  0  # atno 16508 bound_to 11587
   12.5939    8.6493   35.3500 LP  0  0  0  0  0  0  0  0  0  0  0  0  # atno 16509 bound_to 11538
   12.7732    8.5173   33.7323 LP  0  0  0  0  0  0  0  0  0  0  0  0  # atno 16510 bound_to 11538
   10.3021    4.3616   32.4083 LP  0  0  0  0  0  0  0  0  0  0  0  0  # atno 16511 bound_to 11318
   11.7982    3.4966   32.5242 LP  0  0  0  0  0  0  0  0  0  0  0  0  # atno 16512 bound_to 11318
   11.4763    5.4276   30.6950 LP  0  0  0  0  0  0  0  0  0  0  0  0  # atno 16513 bound_to 11358
    9.0361    3.5584   29.0495 LP  0  0  0  0  0  0  0  0  0  0  0  0  # atno 16514 bound_to 11416
    9.7386    1.6214   33.6064 LP  0  0  0  0  0  0  0  0  0  0  0  0  # atno 16515 bound_to 11527
    4.0001   -1.1255   34.1519 LP  0  0  0  0  0  0  0  0  0  0  0  0  # atno 16520 bound_to 11590
    4.9728   -0.9025   35.5676 LP  0  0  0  0  0  0  0  0  0  0  0  0  # atno 16521 bound_to 11590
    4.0026   -1.5169   37.8333 LP  0  0  0  0  0  0  0  0  0  0  0  0  # atno 16522 bound_to 11800
    2.7360   -1.8117   39.7313 LP  0  0  0  0  0  0  0  0  0  0  0  0  # atno 16523 bound_to 11756
    1.6590   -0.5684   39.1887 LP  0  0  0  0  0  0  0  0  0  0  0  0  # atno 16524 bound_to 11756
    7.7608    0.2308   31.8228 LP  0  0  0  0  0  0  0  0  0  0  0  0  # atno 16543 bound_to 11419
    8.8622   -1.0080   31.3208 LP  0  0  0  0  0  0  0  0  0  0  0  0  # atno 16544 bound_to 11419
    6.0604   -0.8037   33.2687 LP  0  0  0  0  0  0  0  0  0  0  0  0  # atno 16545 bound_to 11632
   11.1853    1.5213   30.6802 LP  0  0  0  0  0  0  0  0  0  0  0  0  # atno 16546 bound_to 11466
    9.6470    0.3977   35.3738 LP  0  0  0  0  0  0  0  0  0  0  0  0  # atno 16547 bound_to 11469
    8.5447   -0.0248   34.1064 LP  0  0  0  0  0  0  0  0  0  0  0  0  # atno 16548 bound_to 11469
    6.3658    0.5506   38.1671 LP  0  0  0  0  0  0  0  0  0  0  0  0  # atno 16549 bound_to 11753
    8.3922   -1.6664   35.9153 LP  0  0  0  0  0  0  0  0  0  0  0  0  # atno 16550 bound_to 11697
   -2.8070   11.7817   12.4681 LP  0  0  0  0  0  0  0  0  0  0  0  0  # atno 16565 bound_to 11526
   -3.6166   11.1287   11.2092 LP  0  0  0  0  0  0  0  0  0  0  0  0  # atno 16566 bound_to 11526
    4.9876   13.9053   13.9705 LP  0  0  0  0  0  0  0  0  0  0  0  0  # atno 16567 bound_to 9334
    4.8149   15.5160   14.1766 LP  0  0  0  0  0  0  0  0  0  0  0  0  # atno 16568 bound_to 9334
   12.3391    2.7759   30.1978 LP  0  0  0  0  0  0  0  0  0  0  0  0  # atno 16571 bound_to 11269
   11.9741    2.1971   28.6066 LP  0  0  0  0  0  0  0  0  0  0  0  0  # atno 16572 bound_to 11269
   15.7514    9.2036   17.3929 LP  0  0  0  0  0  0  0  0  0  0  0  0  # atno 16581 bound_to 15454
   16.0576    8.4621   18.8153 LP  0  0  0  0  0  0  0  0  0  0  0  0  # atno 16582 bound_to 15454
   16.4669   12.5939   23.7403 LP  0  0  0  0  0  0  0  0  0  0  0  0  # atno 16589 bound_to 5760
   17.2154   12.1552   25.1238 LP  0  0  0  0  0  0  0  0  0  0  0  0  # atno 16590 bound_to 5760
   15.1211    5.0095   11.1545 LP  0  0  0  0  0  0  0  0  0  0  0  0  # atno 16601 bound_to 1810
   16.4661    5.9087   10.9333 LP  0  0  0  0  0  0  0  0  0  0  0  0  # atno 16602 bound_to 1810
   15.7136   18.4804   15.1617 LP  0  0  0  0  0  0  0  0  0  0  0  0  # atno 16609 bound_to 8455
   14.6279   18.2387   13.9662 LP  0  0  0  0  0  0  0  0  0  0  0  0  # atno 16610 bound_to 8455
    6.7001    7.7212    9.1462 LP  0  0  0  0  0  0  0  0  0  0  0  0  # atno 16611 bound_to 1872
    5.8207    9.0407    8.7560 LP  0  0  0  0  0  0  0  0  0  0  0  0  # atno 16612 bound_to 1872
    5.0586   17.4796   22.3092 LP  0  0  0  0  0  0  0  0  0  0  0  0  # atno 16621 bound_to 9468
    3.6643   17.0291   23.0299 LP  0  0  0  0  0  0  0  0  0  0  0  0  # atno 16622 bound_to 9468

> <Gold.Score>
     Fitness  S(hb_ext) S(vdw_ext)  S(hb_int)    S(int)      intcor
     40.48       6.65      24.80       0.00      -0.26      -0.76

> <Gold.Goldscore.Fitness>
40.4825

> <Gold.Goldscore.Internal.Vdw>
-0.5201

> <Gold.Goldscore.Internal.Torsion>
-0.4998

> <Gold.Goldscore.External.Vdw>
24.7959

> <Gold.Goldscore.Internal.HBond>
0.0000

> <Gold.Goldscore.External.HBond>
6.6495

> <Gold.Goldscore.Internal.Correction>
-0.7585

> <Gold.Goldscore.Hbonds>
donor molecule, donor type, donor heavy atom, donor atom, acceptor molecule, acceptor atom, score
      P1  H  1867  1899       L1    11  0.32
      L1  H     8    22       P1  7619  1.00

> <Gold.Goldscore.Internal.Vdw.Weighted>
-0.5201

> <Gold.Goldscore.Internal.Torsion.Weighted>
-0.4998

> <Gold.Goldscore.External.Vdw.Weighted>
34.0943

> <Gold.Goldscore.Internal.HBond.Weighted>
0.0000

> <Gold.Goldscore.External.HBond.Weighted>
6.6495

> <Gold.Goldscore.Internal.Correction.Weighted>
-0.7585

> <Gold.Rescore>
     Score     S(PLP)   S(hbond)     S(cho)   S(metal)  DE(clash)   DE(tors)     intcor
     31.52     -26.60       2.10       0.00       0.00       0.00       0.69       ----

> <Gold.PLP.Fitness>
31.5171

> <Gold.PLP.PLP>
-26.6021

> <Gold.PLP.part.hbond>
-3.6200

> <Gold.PLP.part.metal>
0.0000

> <Gold.PLP.part.buried>
-2.0439

> <Gold.PLP.part.nonpolar>
-25.4686

> <Gold.PLP.part.repulsive>
4.1559

> <Gold.PLP.ligand.clash>
0.0000

> <Gold.PLP.ligand.torsion>
0.6864

> <Gold.PLP.Chemscore.Hbond>
2.0959

> <Gold.PLP.Chemscore.CHOScore>
0.0000

> <Gold.PLP.Chemscore.Metal>
0.0000

> <Gold.Chemscore.Hbonds>
donor molecule, donor type, donor heavy atom, donor atom, acceptor molecule, acceptor atom, score
      L1  H     8    22       P1  7619  1.00
      P1  H  1867  1899       L1    11  1.00

> <Gold.PLP.Chemscore.Internal.Correction>
   9.000000E+99

