#       Name:                CT1002167954
#       Creating user name   hitesit
#       Creation time:       Sun Apr 16 20:19:01 2023


#       File generated by GOLD software.
#

@<TRIPOS>MOLECULE
CT1002167954|ligand_prepared|mol2|1|dock5
    29    30     1
SMALL
NO_CHARGES


@<TRIPOS>ATOM
      1 C1           9.0444  12.7623  11.8755 C.3            1 RES1               0.0000
      2 C2           9.8196  12.3684  13.1494 C.ar           1 RES1               0.0000
      3 C3           8.1570  11.5706  11.5282 C.2            1 RES1               0.0000
      4 C4           8.2740  14.0320  12.2204 C.2            1 RES1               0.0000
      5 C5           9.9521  13.0691  10.6616 C.3            1 RES1               0.0000
      6 C6          10.8443  13.1761  13.6335 C.ar           1 RES1               0.0000
      7 C7           9.5201  11.2040  13.8514 C.ar           1 RES1               0.0000
      8 N8           6.8200  11.6867  11.7703 N.am           1 RES1               0.0000
      9 O9           8.6285  10.5304  11.0856 O.2            1 RES1               0.0000
     10 N10          6.9053  13.9681  12.2368 N.am           1 RES1               0.0000
     11 O11          8.8402  15.0831  12.4943 O.2            1 RES1               0.0000
     12 C12          9.1854  13.3777   9.3852 C.3            1 RES1               0.0000
     13 C13         11.5425  12.8336  14.7796 C.ar           1 RES1               0.0000
     14 C14         10.2197  10.8632  14.9973 C.ar           1 RES1               0.0000
     15 C15          6.1441  12.8453  12.0575 C.2            1 RES1               0.0000
     16 C16         11.2304  11.6774  15.4625 C.ar           1 RES1               0.0000
     17 O17          4.9193  12.8567  12.1412 O.2            1 RES1               0.0000
     18 H18         10.5907  13.9269  10.9060 H              1 RES1               0.0000
     19 H19         10.6046  12.2059  10.4815 H              1 RES1               0.0000
     20 H20         11.1056  14.0886  13.1081 H              1 RES1               0.0000
     21 H21          8.7296  10.5478  13.5034 H              1 RES1               0.0000
     22 H22          6.2719  10.8330  11.7346 H              1 RES1               0.0000
     23 H23          6.4077  14.8381  12.3975 H              1 RES1               0.0000
     24 H24          9.8694  13.5855   8.5650 H              1 RES1               0.0000
     25 H25          8.5586  12.5358   9.0986 H              1 RES1               0.0000
     26 H26          8.5447  14.2467   9.5206 H              1 RES1               0.0000
     27 H27         12.3380  13.4770  15.1408 H              1 RES1               0.0000
     28 H28          9.9712   9.9520  15.5312 H              1 RES1               0.0000
     29 H29         11.7773  11.4095  16.3605 H              1 RES1               0.0000
@<TRIPOS>BOND
    1    1    2 1     
    2    1    3 1     
    3    1    4 1     
    4    1    5 1     
    5    2    6 ar    
    6    2    7 ar    
    7    3    8 1     
    8    3    9 2     
    9    4   10 1     
   10    4   11 2     
   11    5   12 1     
   12    5   18 1     
   13    5   19 1     
   14    6   13 ar    
   15    6   20 1     
   16    7   14 ar    
   17    7   21 1     
   18    8   15 1     
   19    8   22 1     
   20   10   15 1     
   21   10   23 1     
   22   12   24 1     
   23   12   25 1     
   24   12   26 1     
   25   13   16 ar    
   26   13   27 1     
   27   14   16 ar    
   28   14   28 1     
   29   15   17 2     
   30   16   29 1     
@<TRIPOS>SUBSTRUCTURE
      1 RES1           1
@<TRIPOS>SET
DONOR_HYDROGENS      STATIC     ATOMS    <user>   **** ""
2 22 23
ATOM$RED        STATIC     ATOMS    COLORGROUP SYSTEM
2 22 23
@<TRIPOS>COMMENT
> <Gold.Version>
2022.3.0

> <Gold.Id.Protein>
unknown|3mvj_clean|pdb

> <Gold.Protein.RotatedTorsions>
[ 9935 9915 9914 9913 ] final -120.39 input   59.98 | X-H torsion
[ 10977 10935 10934 10932 ] final  -54.91 input   60.03 | X-H torsion
[ 9832 9816 9817 9818 ] final  -63.64 input   89.09 | X-H torsion
[ 9883 9871 9872 9873 ] final   71.23 input -126.12 | X-H torsion
[ 9925 9907 9908 9909 ] final   83.09 input  109.17 | X-H torsion
[ 9887 9876 9875 9872 ] final  153.01 input   59.96 | X-H torsion
[ 10737 10695 10694 10692 ] final   61.22 input   59.99 | X-H torsion
[ 11660 11631 11630 11629 ] final -143.74 input   60.02 | X-H torsion
[ 9775 9759 9760 9761 ] final -146.34 input  126.36 | X-H torsion
[ 11617 11587 11588 11589 ] final   -0.97 input  114.14 | X-H torsion
[ 11577 11538 11537 11535 ] final -126.80 input   60.01 | X-H torsion
[ 11396 11358 11359 11360 ] final   30.10 input   98.08 | X-H torsion
[ 11450 11416 11417 11418 ] final  -76.40 input  102.35 | X-H torsion
[ 11569 11527 11528 11529 ] final    7.06 input  127.83 | X-H torsion
[ 11822 11800 11801 11802 ] final -137.24 input  127.47 | X-H torsion
[ 11676 11632 11633 11634 ] final   51.54 input  113.96 | X-H torsion
[ 11504 11466 11467 11468 ] final -112.01 input  126.08 | X-H torsion
[ 11785 11753 11754 11755 ] final  168.59 input  105.73 | X-H torsion
[ 11735 11697 11698 11699 ] final  178.45 input  116.95 | X-H torsion
[ 11559 11526 11525 11523 ] final    2.21 input   60.00 | X-H torsion
[ 9355 9334 9332 9329 ] final  170.80 input   60.01 | X-H torsion
[ 7755 7713 7712 7711 ] final -141.29 input   60.03 | X-H torsion
[ 15483 15454 15453 15451 ] final -171.03 input   59.98 | X-H torsion
[ 5786 5760 5759 5756 ] final  -76.91 input   59.99 | X-H torsion
[ 1845 1810 1808 1805 ] final  -51.34 input   60.00 | X-H torsion
[ 8483 8455 8453 8450 ] final   82.30 input   60.02 | X-H torsion
[ 1888 1872 1871 1868 ] final  141.21 input   59.98 | X-H torsion
[ 9501 9468 9467 9465 ] final  -44.33 input   60.02 | X-H torsion
[ 3466 3411 3410 3409 ] final  -95.01 input   59.97 | X-H torsion
[ 16458 9819 9818 9817 ] final  123.86 input    0.00 | X-H torsion
[ 16464 9874 9873 9872 ] final  -32.72 input    0.00 | X-H torsion
[ 16467 9762 9761 9760 ] final  -93.70 input    0.00 | X-H torsion
[ 16495 9617 9616 9615 ] final  -79.53 input    0.00 | X-H torsion
[ 16497 9705 9704 9703 ] final -159.48 input    0.00 | X-H torsion
[ 16500 11530 11529 11528 ] final   40.06 input    0.00 | X-H torsion
[ 16504 11361 11360 11359 ] final  150.17 input    0.00 | X-H torsion
[ 16511 11318 11317 11316 ] final   62.00 input    0.00 | X-H torsion
[ 16520 11590 11589 11588 ] final   -5.98 input    0.00 | X-H torsion
[ 16523 11756 11755 11754 ] final  -67.54 input    0.00 | X-H torsion
[ 16543 11419 11418 11417 ] final  -43.03 input   -0.00 | X-H torsion
[ 16547 11469 11468 11467 ] final   30.47 input    0.00 | X-H torsion
[ 16571 11269 11268 11267 ] final   -2.75 input   -0.00 | X-H torsion

> <Gold.Protein.ActiveResidues>
 THR48   LEU49   GLY50   THR51   GLY52   SER53   PHE54   GLY55   ARG56   VAL57  
 LYS78   LYS81   LEU82   LYS83   GLN84   HIS87   GLU127  PHE129  SER130  LEU132 
 ARG133  ARG134  ILE135  GLY136  ARG137  ARG165  ASP166  LEU167  LYS168  PRO169 
 GLU170  ASN171  LEU172  LEU173  THR183  ASP184  GLY186  PHE187  TPO197  LEU198 
 CYS199  GLY200  THR201  PRO202  GLU203  TYR204  LEU205  PRO207  ILE209  ILE210 
 LEU211  SER212  LYS213  VAL226  LEU227  TYR229  GLU230  ALA233  GLY234  TYR235 
 PRO236  PRO237  PHE238  PHE239  ALA240  ASP241  GLN242  PRO243  ILE244  GLN245 
 ILE246  TYR247  GLU248  LYS249  ILE250  VAL251  SER252  ARG256  PHE257  PRO258 
 SER259  PHE327  ASP328  TYR330 

> <Gold.Protein.RotatedAtoms>
   14.8492    6.2697   10.4095 H   0  0  0  0  0  0  0  0  0  0  0  0  # atno 1845 bound_to 1810
    6.2335    9.4960    9.5433 H   0  0  0  0  0  0  0  0  0  0  0  0  # atno 1888 bound_to 1872
    1.8413   11.7415   -6.2306 H   0  0  0  0  0  0  0  0  0  0  0  0  # atno 3466 bound_to 3411
    0.6161   10.6351   -6.0799 H   0  0  0  0  0  0  0  0  0  0  0  0  # atno 3467 bound_to 3411
    0.3126   12.1241   -6.7423 H   0  0  0  0  0  0  0  0  0  0  0  0  # atno 3468 bound_to 3411
   16.1079   12.9769   23.9180 H   0  0  0  0  0  0  0  0  0  0  0  0  # atno 5786 bound_to 5760
    7.7970   12.8999   14.4307 H   0  0  0  0  0  0  0  0  0  0  0  0  # atno 7755 bound_to 7713
    6.8543   12.7970   15.7899 H   0  0  0  0  0  0  0  0  0  0  0  0  # atno 7756 bound_to 7713
    6.2333   13.4478   14.3976 H   0  0  0  0  0  0  0  0  0  0  0  0  # atno 7757 bound_to 7713
   14.5706   18.2856   13.9699 H   0  0  0  0  0  0  0  0  0  0  0  0  # atno 8483 bound_to 8455
    5.1259   14.9883   14.4400 H   0  0  0  0  0  0  0  0  0  0  0  0  # atno 9355 bound_to 9334
    3.6371   17.0702   23.0440 H   0  0  0  0  0  0  0  0  0  0  0  0  # atno 9501 bound_to 9468
    8.6585    7.4963   41.0260 H   0  0  0  0  0  0  0  0  0  0  0  0  # atno 9775 bound_to 9759
    5.7361    8.4569   39.7764 H   0  0  0  0  0  0  0  0  0  0  0  0  # atno 9832 bound_to 9816
    3.6882   10.0068   40.7580 H   0  0  0  0  0  0  0  0  0  0  0  0  # atno 9883 bound_to 9871
    4.5724   13.2969   39.3226 H   0  0  0  0  0  0  0  0  0  0  0  0  # atno 9887 bound_to 9876
    3.8873    9.7409   43.8046 H   0  0  0  0  0  0  0  0  0  0  0  0  # atno 9925 bound_to 9907
   -2.2083    6.6834   42.8624 H   0  0  0  0  0  0  0  0  0  0  0  0  # atno 9935 bound_to 9915
   -1.3363    8.0429   43.2362 H   0  0  0  0  0  0  0  0  0  0  0  0  # atno 9936 bound_to 9915
   -0.9763    7.1775   41.8691 H   0  0  0  0  0  0  0  0  0  0  0  0  # atno 9937 bound_to 9915
   -3.7547   16.7713   31.1695 H   0  0  0  0  0  0  0  0  0  0  0  0  # atno 10737 bound_to 10695
   -2.9553   15.4424   33.1760 H   0  0  0  0  0  0  0  0  0  0  0  0  # atno 10977 bound_to 10935
   11.1373    4.3392   29.4399 H   0  0  0  0  0  0  0  0  0  0  0  0  # atno 11396 bound_to 11358
    8.9381    3.5381   30.2175 H   0  0  0  0  0  0  0  0  0  0  0  0  # atno 11450 bound_to 11416
   10.2906    0.4400   30.7217 H   0  0  0  0  0  0  0  0  0  0  0  0  # atno 11504 bound_to 11466
   -2.7466   11.5993   12.6424 H   0  0  0  0  0  0  0  0  0  0  0  0  # atno 11559 bound_to 11526
    9.3205    1.8616   32.9874 H   0  0  0  0  0  0  0  0  0  0  0  0  # atno 11569 bound_to 11527
   12.4191    8.9119   34.8956 H   0  0  0  0  0  0  0  0  0  0  0  0  # atno 11577 bound_to 11538
    7.5984    1.3863   33.8734 H   0  0  0  0  0  0  0  0  0  0  0  0  # atno 11617 bound_to 11587
   -9.2820    7.9798   26.0324 H   0  0  0  0  0  0  0  0  0  0  0  0  # atno 11660 bound_to 11631
   -7.8902    8.7668   25.5974 H   0  0  0  0  0  0  0  0  0  0  0  0  # atno 11661 bound_to 11631
   -8.6686    9.1769   27.0014 H   0  0  0  0  0  0  0  0  0  0  0  0  # atno 11662 bound_to 11631
    7.4976   -0.2094   34.0049 H   0  0  0  0  0  0  0  0  0  0  0  0  # atno 11676 bound_to 11632
    8.5695   -1.1881   35.8505 H   0  0  0  0  0  0  0  0  0  0  0  0  # atno 11735 bound_to 11697
    6.2099    0.8828   37.6680 H   0  0  0  0  0  0  0  0  0  0  0  0  # atno 11785 bound_to 11753
    3.0550   -0.5583   36.8401 H   0  0  0  0  0  0  0  0  0  0  0  0  # atno 11822 bound_to 11800
   14.7476    8.0775   17.8462 H   0  0  0  0  0  0  0  0  0  0  0  0  # atno 15483 bound_to 15454
    1.9141   10.1988   41.9571 LP  0  0  0  0  0  0  0  0  0  0  0  0  # atno 16458 bound_to 9819
    1.6510   10.2603   40.2462 LP  0  0  0  0  0  0  0  0  0  0  0  0  # atno 16459 bound_to 9819
   -2.2791   14.4748   34.2962 LP  0  0  0  0  0  0  0  0  0  0  0  0  # atno 16460 bound_to 10935
   -3.5609   13.9533   33.4292 LP  0  0  0  0  0  0  0  0  0  0  0  0  # atno 16461 bound_to 10935
    5.0998    6.9992   40.4977 LP  0  0  0  0  0  0  0  0  0  0  0  0  # atno 16462 bound_to 9816
    5.2708    9.7714   41.4624 LP  0  0  0  0  0  0  0  0  0  0  0  0  # atno 16463 bound_to 9871
    3.0328   13.4328   43.4426 LP  0  0  0  0  0  0  0  0  0  0  0  0  # atno 16464 bound_to 9874
    1.6936   12.4321   43.8957 LP  0  0  0  0  0  0  0  0  0  0  0  0  # atno 16465 bound_to 9874
    2.9428   11.0900   43.2192 LP  0  0  0  0  0  0  0  0  0  0  0  0  # atno 16466 bound_to 9907
    5.8506   10.1250   38.6554 LP  0  0  0  0  0  0  0  0  0  0  0  0  # atno 16467 bound_to 9762
    5.4589    8.9120   37.4827 LP  0  0  0  0  0  0  0  0  0  0  0  0  # atno 16468 bound_to 9762
    5.3356   11.9843   39.9081 LP  0  0  0  0  0  0  0  0  0  0  0  0  # atno 16469 bound_to 9876
    5.7081   13.4697   40.4752 LP  0  0  0  0  0  0  0  0  0  0  0  0  # atno 16470 bound_to 9876
   -4.4926   16.2312   29.8241 LP  0  0  0  0  0  0  0  0  0  0  0  0  # atno 16477 bound_to 10695
   -5.0511   17.5627   30.5868 LP  0  0  0  0  0  0  0  0  0  0  0  0  # atno 16478 bound_to 10695
    6.0012    5.8501   41.1444 LP  0  0  0  0  0  0  0  0  0  0  0  0  # atno 16495 bound_to 9617
    4.4040    5.3865   41.6283 LP  0  0  0  0  0  0  0  0  0  0  0  0  # atno 16496 bound_to 9617
    6.8771    9.8006   40.4579 LP  0  0  0  0  0  0  0  0  0  0  0  0  # atno 16497 bound_to 9705
    7.7936   10.4484   41.7772 LP  0  0  0  0  0  0  0  0  0  0  0  0  # atno 16498 bound_to 9705
    6.9950    7.3299   41.5401 LP  0  0  0  0  0  0  0  0  0  0  0  0  # atno 16499 bound_to 9759
    6.4867    2.7379   36.2130 LP  0  0  0  0  0  0  0  0  0  0  0  0  # atno 16500 bound_to 11530
    6.1976    1.1132   35.6869 LP  0  0  0  0  0  0  0  0  0  0  0  0  # atno 16501 bound_to 11530
    7.1503    2.7916   30.6828 LP  0  0  0  0  0  0  0  0  0  0  0  0  # atno 16504 bound_to 11361
    7.6056    3.9621   31.8756 LP  0  0  0  0  0  0  0  0  0  0  0  0  # atno 16505 bound_to 11361
    6.9128    2.6633   32.8917 LP  0  0  0  0  0  0  0  0  0  0  0  0  # atno 16508 bound_to 11587
   13.1038    8.0744   33.6802 LP  0  0  0  0  0  0  0  0  0  0  0  0  # atno 16509 bound_to 11538
   13.3580    7.6257   35.2296 LP  0  0  0  0  0  0  0  0  0  0  0  0  # atno 16510 bound_to 11538
   11.3544    4.5853   32.9426 LP  0  0  0  0  0  0  0  0  0  0  0  0  # atno 16511 bound_to 11318
   10.7459    3.2729   31.9900 LP  0  0  0  0  0  0  0  0  0  0  0  0  # atno 16512 bound_to 11318
   11.4369    5.7221   30.4498 LP  0  0  0  0  0  0  0  0  0  0  0  0  # atno 16513 bound_to 11358
   10.2401    3.1240   29.1297 LP  0  0  0  0  0  0  0  0  0  0  0  0  # atno 16514 bound_to 11416
   10.4502    2.9966   33.6766 LP  0  0  0  0  0  0  0  0  0  0  0  0  # atno 16515 bound_to 11527
    4.0362   -0.2833   34.7440 LP  0  0  0  0  0  0  0  0  0  0  0  0  # atno 16520 bound_to 11590
    4.9367   -1.7446   34.9755 LP  0  0  0  0  0  0  0  0  0  0  0  0  # atno 16521 bound_to 11590
    4.2804   -1.6483   37.4445 LP  0  0  0  0  0  0  0  0  0  0  0  0  # atno 16522 bound_to 11800
    2.8640   -1.4223   39.9618 LP  0  0  0  0  0  0  0  0  0  0  0  0  # atno 16523 bound_to 11756
    1.5309   -0.9577   38.9583 LP  0  0  0  0  0  0  0  0  0  0  0  0  # atno 16524 bound_to 11756
    7.6198    0.1058   31.4071 LP  0  0  0  0  0  0  0  0  0  0  0  0  # atno 16543 bound_to 11419
    9.0032   -0.8830   31.7366 LP  0  0  0  0  0  0  0  0  0  0  0  0  # atno 16544 bound_to 11419
    6.2133   -0.8864   33.0360 LP  0  0  0  0  0  0  0  0  0  0  0  0  # atno 16545 bound_to 11632
   10.4672    2.1482   31.0660 LP  0  0  0  0  0  0  0  0  0  0  0  0  # atno 16546 bound_to 11466
    9.8175   -0.2921   34.7566 LP  0  0  0  0  0  0  0  0  0  0  0  0  # atno 16547 bound_to 11469
    8.3742    0.6650   34.7236 LP  0  0  0  0  0  0  0  0  0  0  0  0  # atno 16548 bound_to 11469
    5.8041   -0.8087   37.5004 LP  0  0  0  0  0  0  0  0  0  0  0  0  # atno 16549 bound_to 11753
    6.8162   -1.2213   35.9297 LP  0  0  0  0  0  0  0  0  0  0  0  0  # atno 16550 bound_to 11697
   -3.5513   11.3778   11.2454 LP  0  0  0  0  0  0  0  0  0  0  0  0  # atno 16565 bound_to 11526
   -3.2452   10.1075   12.2248 LP  0  0  0  0  0  0  0  0  0  0  0  0  # atno 16566 bound_to 11526
    4.1068   15.3677   13.2290 LP  0  0  0  0  0  0  0  0  0  0  0  0  # atno 16567 bound_to 9334
    4.5903   13.8221   13.4389 LP  0  0  0  0  0  0  0  0  0  0  0  0  # atno 16568 bound_to 9334
   12.1278    2.0783   28.6390 LP  0  0  0  0  0  0  0  0  0  0  0  0  # atno 16571 bound_to 11269
   12.1853    2.8947   30.1655 LP  0  0  0  0  0  0  0  0  0  0  0  0  # atno 16572 bound_to 11269
   15.8293    9.2265   17.4503 LP  0  0  0  0  0  0  0  0  0  0  0  0  # atno 16581 bound_to 15454
   15.9940    8.3912   18.8437 LP  0  0  0  0  0  0  0  0  0  0  0  0  # atno 16582 bound_to 15454
   17.2403   12.0179   24.5853 LP  0  0  0  0  0  0  0  0  0  0  0  0  # atno 16589 bound_to 5760
   16.3843   13.0477   25.5198 LP  0  0  0  0  0  0  0  0  0  0  0  0  # atno 16590 bound_to 5760
   15.3531    4.9575   11.2301 LP  0  0  0  0  0  0  0  0  0  0  0  0  # atno 16601 bound_to 1810
   16.4200    6.1195   10.8081 LP  0  0  0  0  0  0  0  0  0  0  0  0  # atno 16602 bound_to 1810
   14.4108   19.4000   15.1448 LP  0  0  0  0  0  0  0  0  0  0  0  0  # atno 16609 bound_to 8455
   15.7232   18.4290   15.1096 LP  0  0  0  0  0  0  0  0  0  0  0  0  # atno 16610 bound_to 8455
    7.0609    8.1270    9.8414 LP  0  0  0  0  0  0  0  0  0  0  0  0  # atno 16611 bound_to 1872
    6.0405    8.2072    8.5689 LP  0  0  0  0  0  0  0  0  0  0  0  0  # atno 16612 bound_to 1872
    4.1008   18.6236   22.9059 LP  0  0  0  0  0  0  0  0  0  0  0  0  # atno 16621 bound_to 9468
    5.0452   17.4305   22.3130 LP  0  0  0  0  0  0  0  0  0  0  0  0  # atno 16622 bound_to 9468

> <Gold.Score>
     Fitness  S(hb_ext) S(vdw_ext)  S(hb_int)    S(int)      intcor
     34.05       7.78      20.39       0.00      -1.77      -0.76

> <Gold.Goldscore.Fitness>
34.0534

> <Gold.Goldscore.Internal.Vdw>
-2.1393

> <Gold.Goldscore.Internal.Torsion>
-0.3877

> <Gold.Goldscore.External.Vdw>
20.3912

> <Gold.Goldscore.Internal.HBond>
0.0000

> <Gold.Goldscore.External.HBond>
7.7839

> <Gold.Goldscore.Internal.Correction>
-0.7585

> <Gold.Goldscore.Hbonds>
donor molecule, donor type, donor heavy atom, donor atom, acceptor molecule, acceptor atom, score
      P1  H  7713  7757       L1    17  0.08
      P1  H  1867  1899       L1     9  0.83
      P1  H  7864  7892       L1    11  0.62
      L1  H    10    23       P1  7618  0.74

> <Gold.Goldscore.Internal.Vdw.Weighted>
-2.1393

> <Gold.Goldscore.Internal.Torsion.Weighted>
-0.3877

> <Gold.Goldscore.External.Vdw.Weighted>
28.0379

> <Gold.Goldscore.Internal.HBond.Weighted>
0.0000

> <Gold.Goldscore.External.HBond.Weighted>
7.7839

> <Gold.Goldscore.Internal.Correction.Weighted>
-0.7585

> <Gold.Rescore>
     Score     S(PLP)   S(hbond)     S(cho)   S(metal)  DE(clash)   DE(tors)     intcor
     28.78     -22.95       2.41       0.00       0.00       1.38       0.02       ----

> <Gold.PLP.Fitness>
28.7783

> <Gold.PLP.PLP>
-22.9474

> <Gold.PLP.part.hbond>
-3.6097

> <Gold.PLP.part.metal>
0.0000

> <Gold.PLP.part.buried>
-4.5795

> <Gold.PLP.part.nonpolar>
-21.0067

> <Gold.PLP.part.repulsive>
4.8194

> <Gold.PLP.ligand.clash>
1.3782

> <Gold.PLP.ligand.torsion>
0.0169

> <Gold.PLP.Chemscore.Hbond>
2.4142

> <Gold.PLP.Chemscore.CHOScore>
0.0000

> <Gold.PLP.Chemscore.Metal>
0.0000

> <Gold.Chemscore.Hbonds>
donor molecule, donor type, donor heavy atom, donor atom, acceptor molecule, acceptor atom, score
      L1  H    10    23       P1  7619  0.23
      P1  H  1867  1899       L1     9  1.00
      P1  H  7864  7892       L1    11  1.00

> <Gold.PLP.Chemscore.Internal.Correction>
   9.000000E+99

