#       Name:                CT1002167954
#       Creating user name   hitesit
#       Creation time:       Sun Apr 16 20:18:52 2023


#       File generated by GOLD software.
#

@<TRIPOS>MOLECULE
CT1002167954|ligand_prepared|mol2|1|dock1
    29    30     1
SMALL
NO_CHARGES


@<TRIPOS>ATOM
      1 C1          10.3139  12.5375  12.3189 C.3            1 RES1               0.0000
      2 C2          11.2138  12.5705  11.0667 C.ar           1 RES1               0.0000
      3 C3           9.8075  13.9628  12.5202 C.2            1 RES1               0.0000
      4 C4           9.2146  11.5220  12.0275 C.2            1 RES1               0.0000
      5 C5          11.0483  12.0910  13.6045 C.3            1 RES1               0.0000
      6 C6          10.6551  12.5648   9.7922 C.ar           1 RES1               0.0000
      7 C7          12.6018  12.6094  11.1701 C.ar           1 RES1               0.0000
      8 N8           8.5050  14.2204  12.2088 N.am           1 RES1               0.0000
      9 O9          10.5502  14.8559  12.9087 O.2            1 RES1               0.0000
     10 N10          7.9274  11.9808  11.9249 N.am           1 RES1               0.0000
     11 O11          9.4536  10.3312  11.8693 O.2            1 RES1               0.0000
     12 C12         10.1276  11.8886  14.7976 C.3            1 RES1               0.0000
     13 C13         11.4547  12.5998   8.6618 C.ar           1 RES1               0.0000
     14 C14         13.3996  12.6441  10.0384 C.ar           1 RES1               0.0000
     15 C15          7.5268  13.2883  11.9719 C.2            1 RES1               0.0000
     16 C16         12.8273  12.6399   8.7841 C.ar           1 RES1               0.0000
     17 O17          6.3571  13.6272  11.8168 O.2            1 RES1               0.0000
     18 H18         11.5752  11.1505  13.4016 H              1 RES1               0.0000
     19 H19         11.7997  12.8473  13.8627 H              1 RES1               0.0000
     20 H20          9.5769  12.5310   9.6762 H              1 RES1               0.0000
     21 H21         13.0740  12.6124  12.1466 H              1 RES1               0.0000
     22 H22          8.2331  15.1963  12.1461 H              1 RES1               0.0000
     23 H23          7.2006  11.2830  11.8024 H              1 RES1               0.0000
     24 H24         10.6934  11.5760  15.6728 H              1 RES1               0.0000
     25 H25          9.6060  12.8114  15.0432 H              1 RES1               0.0000
     26 H26          9.3828  11.1246  14.5848 H              1 RES1               0.0000
     27 H27         10.9995  12.5949   7.6770 H              1 RES1               0.0000
     28 H28         14.4795  12.6750  10.1393 H              1 RES1               0.0000
     29 H29         13.4535  12.6676   7.8985 H              1 RES1               0.0000
@<TRIPOS>BOND
    1    1    2 1     
    2    1    3 1     
    3    1    4 1     
    4    1    5 1     
    5    2    6 ar    
    6    2    7 ar    
    7    3    8 1     
    8    3    9 2     
    9    4   10 1     
   10    4   11 2     
   11    5   12 1     
   12    5   18 1     
   13    5   19 1     
   14    6   13 ar    
   15    6   20 1     
   16    7   14 ar    
   17    7   21 1     
   18    8   15 1     
   19    8   22 1     
   20   10   15 1     
   21   10   23 1     
   22   12   24 1     
   23   12   25 1     
   24   12   26 1     
   25   13   16 ar    
   26   13   27 1     
   27   14   16 ar    
   28   14   28 1     
   29   15   17 2     
   30   16   29 1     
@<TRIPOS>SUBSTRUCTURE
      1 RES1           1
@<TRIPOS>SET
DONOR_HYDROGENS      STATIC     ATOMS    <user>   **** ""
2 22 23
ATOM$RED        STATIC     ATOMS    COLORGROUP SYSTEM
2 22 23
@<TRIPOS>COMMENT
> <Gold.Version>
2022.3.0

> <Gold.Id.Protein>
unknown|3mvj_clean|pdb

> <Gold.Protein.RotatedTorsions>
[ 9935 9915 9914 9913 ] final   -9.81 input   59.98 | X-H torsion
[ 10977 10935 10934 10932 ] final  138.39 input   60.03 | X-H torsion
[ 9832 9816 9817 9818 ] final  165.22 input   89.09 | X-H torsion
[ 9883 9871 9872 9873 ] final  102.74 input -126.12 | X-H torsion
[ 9925 9907 9908 9909 ] final -117.65 input  109.17 | X-H torsion
[ 9887 9876 9875 9872 ] final  138.28 input   59.96 | X-H torsion
[ 10737 10695 10694 10692 ] final  134.24 input   59.99 | X-H torsion
[ 11660 11631 11630 11629 ] final   -6.48 input   60.02 | X-H torsion
[ 9775 9759 9760 9761 ] final    3.87 input  126.36 | X-H torsion
[ 11617 11587 11588 11589 ] final -171.59 input  114.14 | X-H torsion
[ 11577 11538 11537 11535 ] final  151.37 input   60.01 | X-H torsion
[ 11396 11358 11359 11360 ] final   64.31 input   98.08 | X-H torsion
[ 11450 11416 11417 11418 ] final  111.34 input  102.35 | X-H torsion
[ 11569 11527 11528 11529 ] final  147.72 input  127.83 | X-H torsion
[ 11822 11800 11801 11802 ] final  155.54 input  127.47 | X-H torsion
[ 11676 11632 11633 11634 ] final -160.77 input  113.96 | X-H torsion
[ 11504 11466 11467 11468 ] final   38.02 input  126.08 | X-H torsion
[ 11785 11753 11754 11755 ] final  -87.15 input  105.73 | X-H torsion
[ 11735 11697 11698 11699 ] final   97.15 input  116.95 | X-H torsion
[ 11559 11526 11525 11523 ] final -175.73 input   60.00 | X-H torsion
[ 9355 9334 9332 9329 ] final -154.48 input   60.01 | X-H torsion
[ 7755 7713 7712 7711 ] final   89.27 input   60.03 | X-H torsion
[ 15483 15454 15453 15451 ] final  176.52 input   59.98 | X-H torsion
[ 5786 5760 5759 5756 ] final -141.07 input   59.99 | X-H torsion
[ 1845 1810 1808 1805 ] final  111.08 input   60.00 | X-H torsion
[ 8483 8455 8453 8450 ] final  119.31 input   60.02 | X-H torsion
[ 1888 1872 1871 1868 ] final  133.13 input   59.98 | X-H torsion
[ 9501 9468 9467 9465 ] final  164.77 input   60.02 | X-H torsion
[ 3466 3411 3410 3409 ] final -141.07 input   59.97 | X-H torsion
[ 16458 9819 9818 9817 ] final  -19.86 input    0.00 | X-H torsion
[ 16464 9874 9873 9872 ] final   91.31 input    0.00 | X-H torsion
[ 16467 9762 9761 9760 ] final  -50.77 input    0.00 | X-H torsion
[ 16495 9617 9616 9615 ] final -146.79 input    0.00 | X-H torsion
[ 16497 9705 9704 9703 ] final  167.02 input    0.00 | X-H torsion
[ 16500 11530 11529 11528 ] final  103.65 input    0.00 | X-H torsion
[ 16504 11361 11360 11359 ] final  -90.35 input    0.00 | X-H torsion
[ 16511 11318 11317 11316 ] final  -73.68 input    0.00 | X-H torsion
[ 16520 11590 11589 11588 ] final  158.46 input    0.00 | X-H torsion
[ 16523 11756 11755 11754 ] final -130.18 input    0.00 | X-H torsion
[ 16543 11419 11418 11417 ] final -163.16 input   -0.00 | X-H torsion
[ 16547 11469 11468 11467 ] final -132.48 input    0.00 | X-H torsion
[ 16571 11269 11268 11267 ] final -122.79 input   -0.00 | X-H torsion

> <Gold.Protein.ActiveResidues>
 THR48   LEU49   GLY50   THR51   GLY52   SER53   PHE54   GLY55   ARG56   VAL57  
 LYS78   LYS81   LEU82   LYS83   GLN84   HIS87   GLU127  PHE129  SER130  LEU132 
 ARG133  ARG134  ILE135  GLY136  ARG137  ARG165  ASP166  LEU167  LYS168  PRO169 
 GLU170  ASN171  LEU172  LEU173  THR183  ASP184  GLY186  PHE187  TPO197  LEU198 
 CYS199  GLY200  THR201  PRO202  GLU203  TYR204  LEU205  PRO207  ILE209  ILE210 
 LEU211  SER212  LYS213  VAL226  LEU227  TYR229  GLU230  ALA233  GLY234  TYR235 
 PRO236  PRO237  PHE238  PHE239  ALA240  ASP241  GLN242  PRO243  ILE244  GLN245 
 ILE246  TYR247  GLU248  LYS249  ILE250  VAL251  SER252  ARG256  PHE257  PRO258 
 SER259  PHE327  ASP328  TYR330 

> <Gold.Protein.RotatedAtoms>
   16.3813    5.5223   11.1311 H   0  0  0  0  0  0  0  0  0  0  0  0  # atno 1845 bound_to 1810
    6.3177    9.4808    9.6435 H   0  0  0  0  0  0  0  0  0  0  0  0  # atno 1888 bound_to 1872
    1.4338   12.2864   -6.5428 H   0  0  0  0  0  0  0  0  0  0  0  0  # atno 3466 bound_to 3411
    1.3462   10.7409   -5.9498 H   0  0  0  0  0  0  0  0  0  0  0  0  # atno 3467 bound_to 3411
   -0.0098   11.4734   -6.5603 H   0  0  0  0  0  0  0  0  0  0  0  0  # atno 3468 bound_to 3411
   16.8131   12.2783   23.8617 H   0  0  0  0  0  0  0  0  0  0  0  0  # atno 5786 bound_to 5760
    6.1541   13.4327   14.5327 H   0  0  0  0  0  0  0  0  0  0  0  0  # atno 7755 bound_to 7713
    7.7274   12.9641   14.3045 H   0  0  0  0  0  0  0  0  0  0  0  0  # atno 7756 bound_to 7713
    7.0037   12.7481   15.7800 H   0  0  0  0  0  0  0  0  0  0  0  0  # atno 7757 bound_to 7713
   15.0900   18.0350   14.1126 H   0  0  0  0  0  0  0  0  0  0  0  0  # atno 8483 bound_to 8455
    5.1915   14.4367   14.3778 H   0  0  0  0  0  0  0  0  0  0  0  0  # atno 9355 bound_to 9334
    4.5384   18.5954   22.6645 H   0  0  0  0  0  0  0  0  0  0  0  0  # atno 9501 bound_to 9468
    7.0519    7.7766   41.5510 H   0  0  0  0  0  0  0  0  0  0  0  0  # atno 9775 bound_to 9759
    5.1435    6.9648   39.7773 H   0  0  0  0  0  0  0  0  0  0  0  0  # atno 9832 bound_to 9816
    3.9978   10.2187   40.4573 H   0  0  0  0  0  0  0  0  0  0  0  0  # atno 9883 bound_to 9871
    4.5388   13.0679   39.2589 H   0  0  0  0  0  0  0  0  0  0  0  0  # atno 9887 bound_to 9876
    2.7675   10.8633   43.0876 H   0  0  0  0  0  0  0  0  0  0  0  0  # atno 9925 bound_to 9907
   -1.4553    7.9865   43.3228 H   0  0  0  0  0  0  0  0  0  0  0  0  # atno 9935 bound_to 9915
   -0.9010    7.3072   41.9158 H   0  0  0  0  0  0  0  0  0  0  0  0  # atno 9936 bound_to 9915
   -2.1653    6.6105   42.7303 H   0  0  0  0  0  0  0  0  0  0  0  0  # atno 9937 bound_to 9915
   -4.5388   17.5607   31.1331 H   0  0  0  0  0  0  0  0  0  0  0  0  # atno 10737 bound_to 10695
   -2.7380   13.8980   34.1894 H   0  0  0  0  0  0  0  0  0  0  0  0  # atno 10977 bound_to 10935
   11.0940    4.7522   29.1449 H   0  0  0  0  0  0  0  0  0  0  0  0  # atno 11396 bound_to 11358
   10.1789    3.1535   29.0322 H   0  0  0  0  0  0  0  0  0  0  0  0  # atno 11450 bound_to 11416
   10.0424    2.0730   31.2089 H   0  0  0  0  0  0  0  0  0  0  0  0  # atno 11504 bound_to 11466
   -3.6216   10.4868   11.4168 H   0  0  0  0  0  0  0  0  0  0  0  0  # atno 11559 bound_to 11526
   10.1823    3.2482   33.2188 H   0  0  0  0  0  0  0  0  0  0  0  0  # atno 11569 bound_to 11527
   12.7369    8.5598   33.7650 H   0  0  0  0  0  0  0  0  0  0  0  0  # atno 11577 bound_to 11538
    6.8331    2.7258   32.9987 H   0  0  0  0  0  0  0  0  0  0  0  0  # atno 11617 bound_to 11587
   -7.8171    8.9665   25.7906 H   0  0  0  0  0  0  0  0  0  0  0  0  # atno 11660 bound_to 11631
   -8.9046    9.0177   27.0399 H   0  0  0  0  0  0  0  0  0  0  0  0  # atno 11661 bound_to 11631
   -9.1184    7.9394   25.8001 H   0  0  0  0  0  0  0  0  0  0  0  0  # atno 11662 bound_to 11631
    6.6124   -0.9413   32.7643 H   0  0  0  0  0  0  0  0  0  0  0  0  # atno 11676 bound_to 11632
    7.7841   -0.3284   35.7258 H   0  0  0  0  0  0  0  0  0  0  0  0  # atno 11735 bound_to 11697
    6.2595   -0.3348   38.3486 H   0  0  0  0  0  0  0  0  0  0  0  0  # atno 11785 bound_to 11753
    3.7402   -0.9704   36.2749 H   0  0  0  0  0  0  0  0  0  0  0  0  # atno 11822 bound_to 11800
   14.7454    8.1921   17.6787 H   0  0  0  0  0  0  0  0  0  0  0  0  # atno 15483 bound_to 15454
    1.5152    9.7681   40.4193 LP  0  0  0  0  0  0  0  0  0  0  0  0  # atno 16458 bound_to 9819
    2.0499   10.6910   41.7840 LP  0  0  0  0  0  0  0  0  0  0  0  0  # atno 16459 bound_to 9819
   -3.6483   14.5739   33.0220 LP  0  0  0  0  0  0  0  0  0  0  0  0  # atno 16460 bound_to 10935
   -2.4107   15.4095   33.6829 LP  0  0  0  0  0  0  0  0  0  0  0  0  # atno 16461 bound_to 10935
    5.6811    8.4626   40.4967 LP  0  0  0  0  0  0  0  0  0  0  0  0  # atno 16462 bound_to 9816
    4.9690    9.5648   41.7555 LP  0  0  0  0  0  0  0  0  0  0  0  0  # atno 16463 bound_to 9871
    1.7359   12.6867   43.1250 LP  0  0  0  0  0  0  0  0  0  0  0  0  # atno 16464 bound_to 9874
    2.9905   13.1781   44.2133 LP  0  0  0  0  0  0  0  0  0  0  0  0  # atno 16465 bound_to 9874
    4.0358    9.9944   43.9191 LP  0  0  0  0  0  0  0  0  0  0  0  0  # atno 16466 bound_to 9907
    6.3670    9.9251   38.3472 LP  0  0  0  0  0  0  0  0  0  0  0  0  # atno 16467 bound_to 9762
    4.9425    9.1119   37.7910 LP  0  0  0  0  0  0  0  0  0  0  0  0  # atno 16468 bound_to 9762
    5.4984   12.0399   40.0779 LP  0  0  0  0  0  0  0  0  0  0  0  0  # atno 16469 bound_to 9876
    5.5791   13.6446   40.3695 LP  0  0  0  0  0  0  0  0  0  0  0  0  # atno 16470 bound_to 9876
   -3.7314   16.2343   30.6481 LP  0  0  0  0  0  0  0  0  0  0  0  0  # atno 16477 bound_to 10695
   -5.0220   16.7641   29.7995 LP  0  0  0  0  0  0  0  0  0  0  0  0  # atno 16478 bound_to 10695
    5.5133    6.2813   41.8488 LP  0  0  0  0  0  0  0  0  0  0  0  0  # atno 16495 bound_to 9617
    4.8919    4.9553   40.9239 LP  0  0  0  0  0  0  0  0  0  0  0  0  # atno 16496 bound_to 9617
    7.3424    9.8685   40.2903 LP  0  0  0  0  0  0  0  0  0  0  0  0  # atno 16497 bound_to 9705
    7.3283   10.3805   41.9448 LP  0  0  0  0  0  0  0  0  0  0  0  0  # atno 16498 bound_to 9705
    8.5584    7.0572   41.0292 LP  0  0  0  0  0  0  0  0  0  0  0  0  # atno 16499 bound_to 9759
    5.7528    2.5162   35.7182 LP  0  0  0  0  0  0  0  0  0  0  0  0  # atno 16500 bound_to 11530
    6.9316    1.3349   36.1818 LP  0  0  0  0  0  0  0  0  0  0  0  0  # atno 16501 bound_to 11530
    7.8756    3.1350   31.9454 LP  0  0  0  0  0  0  0  0  0  0  0  0  # atno 16504 bound_to 11361
    6.8803    3.6187   30.6130 LP  0  0  0  0  0  0  0  0  0  0  0  0  # atno 16505 bound_to 11361
    7.6533    1.3674   33.7380 LP  0  0  0  0  0  0  0  0  0  0  0  0  # atno 16508 bound_to 11587
   13.5178    7.4486   34.6610 LP  0  0  0  0  0  0  0  0  0  0  0  0  # atno 16509 bound_to 11538
   12.6239    8.6062   35.3875 LP  0  0  0  0  0  0  0  0  0  0  0  0  # atno 16510 bound_to 11538
   11.3636    3.1747   32.1787 LP  0  0  0  0  0  0  0  0  0  0  0  0  # atno 16511 bound_to 11318
   10.7368    4.6835   32.7538 LP  0  0  0  0  0  0  0  0  0  0  0  0  # atno 16512 bound_to 11318
   11.4806    5.3061   30.7468 LP  0  0  0  0  0  0  0  0  0  0  0  0  # atno 16513 bound_to 11358
    9.0221    3.5014   30.2933 LP  0  0  0  0  0  0  0  0  0  0  0  0  # atno 16514 bound_to 11416
    9.5961    1.6222   33.4472 LP  0  0  0  0  0  0  0  0  0  0  0  0  # atno 16515 bound_to 11527
    4.8207   -1.8091   34.7822 LP  0  0  0  0  0  0  0  0  0  0  0  0  # atno 16520 bound_to 11590
    4.1521   -0.2188   34.9373 LP  0  0  0  0  0  0  0  0  0  0  0  0  # atno 16521 bound_to 11590
    3.6117   -1.2460   37.9961 LP  0  0  0  0  0  0  0  0  0  0  0  0  # atno 16522 bound_to 11800
    2.4531   -2.0167   39.4246 LP  0  0  0  0  0  0  0  0  0  0  0  0  # atno 16523 bound_to 11756
    1.9418   -0.3633   39.4955 LP  0  0  0  0  0  0  0  0  0  0  0  0  # atno 16524 bound_to 11756
    8.7350   -0.3072   32.3228 LP  0  0  0  0  0  0  0  0  0  0  0  0  # atno 16543 bound_to 11419
    7.8879   -0.4700   30.8208 LP  0  0  0  0  0  0  0  0  0  0  0  0  # atno 16544 bound_to 11419
    7.0836   -0.1668   34.2558 LP  0  0  0  0  0  0  0  0  0  0  0  0  # atno 16545 bound_to 11632
   10.7068    0.5728   30.5960 LP  0  0  0  0  0  0  0  0  0  0  0  0  # atno 16546 bound_to 11466
    8.3238    0.5131   34.5229 LP  0  0  0  0  0  0  0  0  0  0  0  0  # atno 16547 bound_to 11469
    9.8679   -0.1402   34.9574 LP  0  0  0  0  0  0  0  0  0  0  0  0  # atno 16548 bound_to 11469
    5.7557    0.3804   36.8358 LP  0  0  0  0  0  0  0  0  0  0  0  0  # atno 16549 bound_to 11753
    7.5640   -2.0398   36.0485 LP  0  0  0  0  0  0  0  0  0  0  0  0  # atno 16550 bound_to 11697
   -2.8183   10.6502   12.8227 LP  0  0  0  0  0  0  0  0  0  0  0  0  # atno 16565 bound_to 11526
   -3.0970   11.9555   11.8818 LP  0  0  0  0  0  0  0  0  0  0  0  0  # atno 16566 bound_to 11526
    4.3743   15.6377   13.6438 LP  0  0  0  0  0  0  0  0  0  0  0  0  # atno 16567 bound_to 9334
    4.2568   14.1071   13.0868 LP  0  0  0  0  0  0  0  0  0  0  0  0  # atno 16568 bound_to 9334
   11.5791    3.1055   29.5849 LP  0  0  0  0  0  0  0  0  0  0  0  0  # atno 16571 bound_to 11269
   12.7340    1.8675   29.2195 LP  0  0  0  0  0  0  0  0  0  0  0  0  # atno 16572 bound_to 11269
   15.9781    9.2502   17.5885 LP  0  0  0  0  0  0  0  0  0  0  0  0  # atno 16581 bound_to 15454
   15.8473    8.2520   18.8742 LP  0  0  0  0  0  0  0  0  0  0  0  0  # atno 16582 bound_to 15454
   17.0106   12.4273   25.4699 LP  0  0  0  0  0  0  0  0  0  0  0  0  # atno 16589 bound_to 5760
   15.9038   13.3419   24.6920 LP  0  0  0  0  0  0  0  0  0  0  0  0  # atno 16590 bound_to 5760
   15.4424    6.5964   10.3477 LP  0  0  0  0  0  0  0  0  0  0  0  0  # atno 16601 bound_to 1810
   14.7884    5.2330   10.9642 LP  0  0  0  0  0  0  0  0  0  0  0  0  # atno 16602 bound_to 1810
   14.1077   19.2085   14.6657 LP  0  0  0  0  0  0  0  0  0  0  0  0  # atno 16609 bound_to 8455
   15.5030   18.8730   15.4449 LP  0  0  0  0  0  0  0  0  0  0  0  0  # atno 16610 bound_to 8455
    7.0393    8.0268    9.7570 LP  0  0  0  0  0  0  0  0  0  0  0  0  # atno 16611 bound_to 1872
    5.9772    8.3227    8.5524 LP  0  0  0  0  0  0  0  0  0  0  0  0  # atno 16612 bound_to 1872
    4.7954   17.0078   22.4182 LP  0  0  0  0  0  0  0  0  0  0  0  0  # atno 16621 bound_to 9468
    3.4428   17.5101   23.1830 LP  0  0  0  0  0  0  0  0  0  0  0  0  # atno 16622 bound_to 9468

> <Gold.Score>
     Fitness  S(hb_ext) S(vdw_ext)  S(hb_int)    S(int)      intcor
     40.48       6.68      24.69       0.00      -0.15      -0.78

> <Gold.Goldscore.Fitness>
40.4844

> <Gold.Goldscore.Internal.Vdw>
-0.4847

> <Gold.Goldscore.Internal.Torsion>
-0.4509

> <Gold.Goldscore.External.Vdw>
24.6937

> <Gold.Goldscore.Internal.HBond>
0.0000

> <Gold.Goldscore.External.HBond>
6.6819

> <Gold.Goldscore.Internal.Correction>
-0.7842

> <Gold.Goldscore.Hbonds>
donor molecule, donor type, donor heavy atom, donor atom, acceptor molecule, acceptor atom, score
      P1  H  1867  1899       L1    11  0.34
      L1  H     8    22       P1  7619  1.00

> <Gold.Goldscore.Internal.Vdw.Weighted>
-0.4847

> <Gold.Goldscore.Internal.Torsion.Weighted>
-0.4509

> <Gold.Goldscore.External.Vdw.Weighted>
33.9539

> <Gold.Goldscore.Internal.HBond.Weighted>
0.0000

> <Gold.Goldscore.External.HBond.Weighted>
6.6819

> <Gold.Goldscore.Internal.Correction.Weighted>
-0.7842

> <Gold.Rescore>
     Score     S(PLP)   S(hbond)     S(cho)   S(metal)  DE(clash)   DE(tors)     intcor
     31.76     -26.72       2.06       0.00       0.00       0.00       0.57       ----

> <Gold.PLP.Fitness>
31.7617

> <Gold.PLP.PLP>
-26.7152

> <Gold.PLP.part.hbond>
-3.5068

> <Gold.PLP.part.metal>
0.0000

> <Gold.PLP.part.buried>
-2.4763

> <Gold.PLP.part.nonpolar>
-24.7441

> <Gold.PLP.part.repulsive>
4.7791

> <Gold.PLP.ligand.clash>
0.0000

> <Gold.PLP.ligand.torsion>
0.5657

> <Gold.PLP.Chemscore.Hbond>
2.0593

> <Gold.PLP.Chemscore.CHOScore>
0.0000

> <Gold.PLP.Chemscore.Metal>
0.0000

> <Gold.Chemscore.Hbonds>
donor molecule, donor type, donor heavy atom, donor atom, acceptor molecule, acceptor atom, score
      L1  H     8    22       P1  7619  1.00
      P1  H  1867  1899       L1    11  1.00

> <Gold.PLP.Chemscore.Internal.Correction>
   9.000000E+99

