#       Name:                CT1002167954
#       Creating user name   hitesit
#       Creation time:       Sun Apr 16 20:19:12 2023


#       File generated by GOLD software.
#

@<TRIPOS>MOLECULE
CT1002167954|ligand_prepared|mol2|1|dock10
    29    30     1
SMALL
NO_CHARGES


@<TRIPOS>ATOM
      1 C1           4.1679  11.0266  35.8946 C.3            1 RES1               0.0000
      2 C2           5.6968  10.9306  36.0735 C.ar           1 RES1               0.0000
      3 C3           3.6030  11.4398  37.2504 C.2            1 RES1               0.0000
      4 C4           3.9314  12.0457  34.7854 C.2            1 RES1               0.0000
      5 C5           3.5037   9.6961  35.4704 C.3            1 RES1               0.0000
      6 C6           6.4152   9.8931  35.4867 C.ar           1 RES1               0.0000
      7 C7           6.4019  11.8717  36.8190 C.ar           1 RES1               0.0000
      8 N8           3.1616  12.7230  37.3866 N.am           1 RES1               0.0000
      9 O9           3.5816  10.6631  38.1973 O.2            1 RES1               0.0000
     10 N10          3.3029  13.2182  35.1140 N.am           1 RES1               0.0000
     11 O11          4.2986  11.8510  33.6332 O.2            1 RES1               0.0000
     12 C12          1.9867   9.7077  35.5742 C.3            1 RES1               0.0000
     13 C13          7.7889   9.8014  35.6371 C.ar           1 RES1               0.0000
     14 C14          7.7757  11.7780  36.9684 C.ar           1 RES1               0.0000
     15 C15          2.9348  13.6160  36.3704 C.2            1 RES1               0.0000
     16 C16          8.4702  10.7438  36.3776 C.ar           1 RES1               0.0000
     17 O17          2.4232  14.7093  36.5942 O.2            1 RES1               0.0000
     18 H18          3.7850   9.4759  34.4332 H              1 RES1               0.0000
     19 H19          3.8946   8.8891  36.1024 H              1 RES1               0.0000
     20 H20          5.8959   9.1407  34.9024 H              1 RES1               0.0000
     21 H21          5.8762  12.6933  37.2937 H              1 RES1               0.0000
     22 H22          2.9838  13.0487  38.3314 H              1 RES1               0.0000
     23 H23          3.0896  13.8532  34.3514 H              1 RES1               0.0000
     24 H24          1.5716   8.7507  35.2651 H              1 RES1               0.0000
     25 H25          1.6715   9.8990  36.5979 H              1 RES1               0.0000
     26 H26          1.5625  10.4823  34.9386 H              1 RES1               0.0000
     27 H27          8.3306   8.9848  35.1712 H              1 RES1               0.0000
     28 H28          8.3077  12.5216  37.5525 H              1 RES1               0.0000
     29 H29          9.5464  10.6720  36.4949 H              1 RES1               0.0000
@<TRIPOS>BOND
    1    1    2 1     
    2    1    3 1     
    3    1    4 1     
    4    1    5 1     
    5    2    6 ar    
    6    2    7 ar    
    7    3    8 1     
    8    3    9 2     
    9    4   10 1     
   10    4   11 2     
   11    5   12 1     
   12    5   18 1     
   13    5   19 1     
   14    6   13 ar    
   15    6   20 1     
   16    7   14 ar    
   17    7   21 1     
   18    8   15 1     
   19    8   22 1     
   20   10   15 1     
   21   10   23 1     
   22   12   24 1     
   23   12   25 1     
   24   12   26 1     
   25   13   16 ar    
   26   13   27 1     
   27   14   16 ar    
   28   14   28 1     
   29   15   17 2     
   30   16   29 1     
@<TRIPOS>SUBSTRUCTURE
      1 RES1           1
@<TRIPOS>SET
DONOR_HYDROGENS      STATIC     ATOMS    <user>   **** ""
2 22 23
ATOM$RED        STATIC     ATOMS    COLORGROUP SYSTEM
2 22 23
@<TRIPOS>COMMENT
> <Gold.Version>
2022.3.0

> <Gold.Id.Protein>
unknown|3mvj_clean|pdb

> <Gold.Protein.RotatedTorsions>
[ 9935 9915 9914 9913 ] final -116.10 input   59.98 | X-H torsion
[ 10977 10935 10934 10932 ] final  150.25 input   60.03 | X-H torsion
[ 9832 9816 9817 9818 ] final -112.31 input   89.09 | X-H torsion
[ 9883 9871 9872 9873 ] final  116.15 input -126.12 | X-H torsion
[ 9925 9907 9908 9909 ] final -128.89 input  109.17 | X-H torsion
[ 9887 9876 9875 9872 ] final   49.35 input   59.96 | X-H torsion
[ 10737 10695 10694 10692 ] final   78.89 input   59.99 | X-H torsion
[ 11660 11631 11630 11629 ] final -136.34 input   60.02 | X-H torsion
[ 9775 9759 9760 9761 ] final -107.29 input  126.36 | X-H torsion
[ 11617 11587 11588 11589 ] final  100.34 input  114.14 | X-H torsion
[ 11577 11538 11537 11535 ] final -101.27 input   60.01 | X-H torsion
[ 11396 11358 11359 11360 ] final  154.34 input   98.08 | X-H torsion
[ 11450 11416 11417 11418 ] final  -11.81 input  102.35 | X-H torsion
[ 11569 11527 11528 11529 ] final -129.26 input  127.83 | X-H torsion
[ 11822 11800 11801 11802 ] final  160.47 input  127.47 | X-H torsion
[ 11676 11632 11633 11634 ] final  110.52 input  113.96 | X-H torsion
[ 11504 11466 11467 11468 ] final   26.68 input  126.08 | X-H torsion
[ 11785 11753 11754 11755 ] final  131.53 input  105.73 | X-H torsion
[ 11735 11697 11698 11699 ] final   42.53 input  116.95 | X-H torsion
[ 11559 11526 11525 11523 ] final  -31.46 input   60.00 | X-H torsion
[ 9355 9334 9332 9329 ] final  -11.70 input   60.01 | X-H torsion
[ 7755 7713 7712 7711 ] final  175.04 input   60.03 | X-H torsion
[ 15483 15454 15453 15451 ] final   22.45 input   59.98 | X-H torsion
[ 5786 5760 5759 5756 ] final   60.75 input   59.99 | X-H torsion
[ 1845 1810 1808 1805 ] final   67.74 input   60.00 | X-H torsion
[ 8483 8455 8453 8450 ] final -146.66 input   60.02 | X-H torsion
[ 1888 1872 1871 1868 ] final  122.89 input   59.98 | X-H torsion
[ 9501 9468 9467 9465 ] final  -51.59 input   60.02 | X-H torsion
[ 3466 3411 3410 3409 ] final   68.11 input   59.97 | X-H torsion
[ 16458 9819 9818 9817 ] final  -14.85 input    0.00 | X-H torsion
[ 16464 9874 9873 9872 ] final  113.56 input    0.00 | X-H torsion
[ 16467 9762 9761 9760 ] final  -50.34 input    0.00 | X-H torsion
[ 16495 9617 9616 9615 ] final  160.59 input    0.00 | X-H torsion
[ 16497 9705 9704 9703 ] final -130.66 input    0.00 | X-H torsion
[ 16500 11530 11529 11528 ] final  -12.31 input    0.00 | X-H torsion
[ 16504 11361 11360 11359 ] final -174.05 input    0.00 | X-H torsion
[ 16511 11318 11317 11316 ] final   26.50 input    0.00 | X-H torsion
[ 16520 11590 11589 11588 ] final -178.72 input    0.00 | X-H torsion
[ 16523 11756 11755 11754 ] final -152.51 input    0.00 | X-H torsion
[ 16543 11419 11418 11417 ] final  108.66 input   -0.00 | X-H torsion
[ 16547 11469 11468 11467 ] final  110.36 input    0.00 | X-H torsion
[ 16571 11269 11268 11267 ] final  127.01 input   -0.00 | X-H torsion

> <Gold.Protein.ActiveResidues>
 THR48   LEU49   GLY50   THR51   GLY52   SER53   PHE54   GLY55   ARG56   VAL57  
 LYS78   LYS81   LEU82   LYS83   GLN84   HIS87   GLU127  PHE129  SER130  LEU132 
 ARG133  ARG134  ILE135  GLY136  ARG137  ARG165  ASP166  LEU167  LYS168  PRO169 
 GLU170  ASN171  LEU172  LEU173  THR183  ASP184  GLY186  PHE187  TPO197  LEU198 
 CYS199  GLY200  THR201  PRO202  GLU203  TYR204  LEU205  PRO207  ILE209  ILE210 
 LEU211  SER212  LYS213  VAL226  LEU227  TYR229  GLU230  ALA233  GLY234  TYR235 
 PRO236  PRO237  PHE238  PHE239  ALA240  ASP241  GLN242  PRO243  ILE244  GLN245 
 ILE246  TYR247  GLU248  LYS249  ILE250  VAL251  SER252  ARG256  PHE257  PRO258 
 SER259  PHE327  ASP328  TYR330 

> <Gold.Protein.RotatedAtoms>
   16.4090    6.1304   10.8026 H   0  0  0  0  0  0  0  0  0  0  0  0  # atno 1845 bound_to 1810
    6.4280    9.4368    9.7611 H   0  0  0  0  0  0  0  0  0  0  0  0  # atno 1888 bound_to 1872
    0.0961   11.0198   -6.3558 H   0  0  0  0  0  0  0  0  0  0  0  0  # atno 3466 bound_to 3411
    0.9608   12.3926   -6.6955 H   0  0  0  0  0  0  0  0  0  0  0  0  # atno 3467 bound_to 3411
    1.7132   11.0886   -6.0017 H   0  0  0  0  0  0  0  0  0  0  0  0  # atno 3468 bound_to 3411
   16.5900   12.8586   25.5916 H   0  0  0  0  0  0  0  0  0  0  0  0  # atno 5786 bound_to 5760
    7.3185   13.2005   13.9981 H   0  0  0  0  0  0  0  0  0  0  0  0  # atno 7755 bound_to 7713
    7.5076   12.6481   15.5492 H   0  0  0  0  0  0  0  0  0  0  0  0  # atno 7756 bound_to 7713
    6.0589   13.2960   15.0708 H   0  0  0  0  0  0  0  0  0  0  0  0  # atno 7757 bound_to 7713
   15.6859   18.5598   15.2285 H   0  0  0  0  0  0  0  0  0  0  0  0  # atno 8483 bound_to 8455
    4.1014   14.4257   12.9767 H   0  0  0  0  0  0  0  0  0  0  0  0  # atno 9355 bound_to 9334
    3.5736   17.1617   23.0847 H   0  0  0  0  0  0  0  0  0  0  0  0  # atno 9501 bound_to 9468
    8.4331    8.0315   41.1434 H   0  0  0  0  0  0  0  0  0  0  0  0  # atno 9775 bound_to 9759
    5.5666    7.9358   39.2990 H   0  0  0  0  0  0  0  0  0  0  0  0  # atno 9832 bound_to 9816
    4.1806   10.2824   40.3851 H   0  0  0  0  0  0  0  0  0  0  0  0  # atno 9883 bound_to 9871
    5.1441   12.0005   39.7227 H   0  0  0  0  0  0  0  0  0  0  0  0  # atno 9887 bound_to 9876
    2.7145   10.7057   43.0394 H   0  0  0  0  0  0  0  0  0  0  0  0  # atno 9925 bound_to 9907
   -2.2220    6.7226   42.9209 H   0  0  0  0  0  0  0  0  0  0  0  0  # atno 9935 bound_to 9915
   -1.2836    8.0621   43.1917 H   0  0  0  0  0  0  0  0  0  0  0  0  # atno 9936 bound_to 9915
   -1.0154    7.1191   41.8552 H   0  0  0  0  0  0  0  0  0  0  0  0  # atno 9937 bound_to 9915
   -3.8837   17.0069   31.2719 H   0  0  0  0  0  0  0  0  0  0  0  0  # atno 10737 bound_to 10695
   -2.5963   14.0119   34.2554 H   0  0  0  0  0  0  0  0  0  0  0  0  # atno 10977 bound_to 10935
   11.2937    5.8463   29.6585 H   0  0  0  0  0  0  0  0  0  0  0  0  # atno 11396 bound_to 11358
    9.7710    3.2250   30.5258 H   0  0  0  0  0  0  0  0  0  0  0  0  # atno 11450 bound_to 11416
    9.8957    1.9783   31.2320 H   0  0  0  0  0  0  0  0  0  0  0  0  # atno 11504 bound_to 11466
   -2.9167   11.9075   12.2301 H   0  0  0  0  0  0  0  0  0  0  0  0  # atno 11559 bound_to 11526
   10.4775    2.4242   33.9808 H   0  0  0  0  0  0  0  0  0  0  0  0  # atno 11569 bound_to 11527
   12.5345    8.7319   35.2497 H   0  0  0  0  0  0  0  0  0  0  0  0  # atno 11577 bound_to 11538
    7.5114    1.7891   32.5604 H   0  0  0  0  0  0  0  0  0  0  0  0  # atno 11617 bound_to 11587
   -9.2184    7.9548   25.9293 H   0  0  0  0  0  0  0  0  0  0  0  0  # atno 11660 bound_to 11631
   -7.8506    8.8548   25.6746 H   0  0  0  0  0  0  0  0  0  0  0  0  # atno 11661 bound_to 11631
   -8.7718    9.1139   27.0272 H   0  0  0  0  0  0  0  0  0  0  0  0  # atno 11662 bound_to 11631
    7.6809   -0.5424   33.2262 H   0  0  0  0  0  0  0  0  0  0  0  0  # atno 11676 bound_to 11632
    7.0115   -0.5969   35.8334 H   0  0  0  0  0  0  0  0  0  0  0  0  # atno 11735 bound_to 11697
    5.9757    0.8044   37.1632 H   0  0  0  0  0  0  0  0  0  0  0  0  # atno 11785 bound_to 11753
    3.6799   -0.9244   36.2811 H   0  0  0  0  0  0  0  0  0  0  0  0  # atno 11822 bound_to 11800
   16.2545    9.1460   18.0531 H   0  0  0  0  0  0  0  0  0  0  0  0  # atno 15483 bound_to 15454
    1.5038    9.7104   40.4670 LP  0  0  0  0  0  0  0  0  0  0  0  0  # atno 16458 bound_to 9819
    2.0613   10.7487   41.7363 LP  0  0  0  0  0  0  0  0  0  0  0  0  # atno 16459 bound_to 9819
   -3.6718   14.3952   33.0958 LP  0  0  0  0  0  0  0  0  0  0  0  0  # atno 16460 bound_to 10935
   -2.5298   15.4734   33.5427 LP  0  0  0  0  0  0  0  0  0  0  0  0  # atno 16461 bound_to 10935
    5.2661    7.5103   40.9659 LP  0  0  0  0  0  0  0  0  0  0  0  0  # atno 16462 bound_to 9816
    4.7908    9.5027   41.8259 LP  0  0  0  0  0  0  0  0  0  0  0  0  # atno 16463 bound_to 9871
    1.6371   12.5392   43.4081 LP  0  0  0  0  0  0  0  0  0  0  0  0  # atno 16464 bound_to 9874
    3.0894   13.3256   43.9302 LP  0  0  0  0  0  0  0  0  0  0  0  0  # atno 16465 bound_to 9874
    4.0876   10.1483   43.9662 LP  0  0  0  0  0  0  0  0  0  0  0  0  # atno 16466 bound_to 9907
    6.3706    9.9216   38.3429 LP  0  0  0  0  0  0  0  0  0  0  0  0  # atno 16467 bound_to 9762
    4.9389    9.1153   37.7952 LP  0  0  0  0  0  0  0  0  0  0  0  0  # atno 16468 bound_to 9762
    5.8121   13.2337   40.5480 LP  0  0  0  0  0  0  0  0  0  0  0  0  # atno 16469 bound_to 9876
    4.6559   13.5255   39.4324 LP  0  0  0  0  0  0  0  0  0  0  0  0  # atno 16470 bound_to 9876
   -4.2618   16.1216   29.9605 LP  0  0  0  0  0  0  0  0  0  0  0  0  # atno 16477 bound_to 10695
   -5.1518   17.4349   30.3472 LP  0  0  0  0  0  0  0  0  0  0  0  0  # atno 16478 bound_to 10695
    4.8066    6.0419   42.0296 LP  0  0  0  0  0  0  0  0  0  0  0  0  # atno 16495 bound_to 9617
    5.5985    5.1947   40.7431 LP  0  0  0  0  0  0  0  0  0  0  0  0  # atno 16496 bound_to 9617
    6.5940    9.8285   40.7817 LP  0  0  0  0  0  0  0  0  0  0  0  0  # atno 16497 bound_to 9705
    8.0767   10.4205   41.4534 LP  0  0  0  0  0  0  0  0  0  0  0  0  # atno 16498 bound_to 9705
    7.2144    6.8092   41.4259 LP  0  0  0  0  0  0  0  0  0  0  0  0  # atno 16499 bound_to 9759
    7.0085    2.2188   36.4190 LP  0  0  0  0  0  0  0  0  0  0  0  0  # atno 16500 bound_to 11530
    5.6758    1.6323   35.4809 LP  0  0  0  0  0  0  0  0  0  0  0  0  # atno 16501 bound_to 11530
    7.4523    2.5462   31.0457 LP  0  0  0  0  0  0  0  0  0  0  0  0  # atno 16504 bound_to 11361
    7.3036    4.2075   31.5127 LP  0  0  0  0  0  0  0  0  0  0  0  0  # atno 16505 bound_to 11361
    6.9970    2.2737   34.1620 LP  0  0  0  0  0  0  0  0  0  0  0  0  # atno 16508 bound_to 11587
   12.8556    8.4091   33.6877 LP  0  0  0  0  0  0  0  0  0  0  0  0  # atno 16509 bound_to 11538
   13.4899    7.4723   34.8653 LP  0  0  0  0  0  0  0  0  0  0  0  0  # atno 16510 bound_to 11538
   11.7393    4.2265   32.8983 LP  0  0  0  0  0  0  0  0  0  0  0  0  # atno 16511 bound_to 11318
   10.3611    3.6316   32.0343 LP  0  0  0  0  0  0  0  0  0  0  0  0  # atno 16512 bound_to 11318
   11.2795    4.2043   30.2296 LP  0  0  0  0  0  0  0  0  0  0  0  0  # atno 16513 bound_to 11358
    9.4225    3.4313   28.8271 LP  0  0  0  0  0  0  0  0  0  0  0  0  # atno 16514 bound_to 11416
    9.3035    2.4390   32.6919 LP  0  0  0  0  0  0  0  0  0  0  0  0  # atno 16515 bound_to 11527
    4.9799   -1.6958   35.0636 LP  0  0  0  0  0  0  0  0  0  0  0  0  # atno 16520 bound_to 11590
    3.9929   -0.3321   34.6559 LP  0  0  0  0  0  0  0  0  0  0  0  0  # atno 16521 bound_to 11590
    3.6705   -1.2910   37.9900 LP  0  0  0  0  0  0  0  0  0  0  0  0  # atno 16522 bound_to 11800
    2.1991   -2.0178   39.2056 LP  0  0  0  0  0  0  0  0  0  0  0  0  # atno 16523 bound_to 11756
    2.1958   -0.3622   39.7144 LP  0  0  0  0  0  0  0  0  0  0  0  0  # atno 16524 bound_to 11756
    8.8786   -1.0045   31.3505 LP  0  0  0  0  0  0  0  0  0  0  0  0  # atno 16543 bound_to 11419
    7.7444    0.2273   31.7931 LP  0  0  0  0  0  0  0  0  0  0  0  0  # atno 16544 bound_to 11419
    6.0331   -0.5590   33.8015 LP  0  0  0  0  0  0  0  0  0  0  0  0  # atno 16545 bound_to 11632
   10.8482    0.6641   30.5737 LP  0  0  0  0  0  0  0  0  0  0  0  0  # atno 16546 bound_to 11466
    9.4985    0.5418   35.4196 LP  0  0  0  0  0  0  0  0  0  0  0  0  # atno 16547 bound_to 11469
    8.6933   -0.1689   34.0607 LP  0  0  0  0  0  0  0  0  0  0  0  0  # atno 16548 bound_to 11469
    6.0327   -0.7323   37.9934 LP  0  0  0  0  0  0  0  0  0  0  0  0  # atno 16549 bound_to 11753
    8.2995   -1.7842   35.9460 LP  0  0  0  0  0  0  0  0  0  0  0  0  # atno 16550 bound_to 11697
   -3.6500   10.8408   11.2437 LP  0  0  0  0  0  0  0  0  0  0  0  0  # atno 16565 bound_to 11526
   -2.9752   10.3341   12.6418 LP  0  0  0  0  0  0  0  0  0  0  0  0  # atno 16566 bound_to 11526
    5.1254   14.1159   14.2032 LP  0  0  0  0  0  0  0  0  0  0  0  0  # atno 16567 bound_to 9334
    4.6028   15.6400   13.9375 LP  0  0  0  0  0  0  0  0  0  0  0  0  # atno 16568 bound_to 9334
   12.7006    2.3793   30.0675 LP  0  0  0  0  0  0  0  0  0  0  0  0  # atno 16571 bound_to 11269
   11.6126    2.5937   28.7370 LP  0  0  0  0  0  0  0  0  0  0  0  0  # atno 16572 bound_to 11269
   15.3903    7.9631   18.7609 LP  0  0  0  0  0  0  0  0  0  0  0  0  # atno 16581 bound_to 15454
   14.9150    8.5782   17.3247 LP  0  0  0  0  0  0  0  0  0  0  0  0  # atno 16582 bound_to 15454
   15.9787   13.1472   24.1116 LP  0  0  0  0  0  0  0  0  0  0  0  0  # atno 16589 bound_to 5760
   17.1604   12.0375   24.3079 LP  0  0  0  0  0  0  0  0  0  0  0  0  # atno 16590 bound_to 5760
   14.8352    6.2610   10.4088 LP  0  0  0  0  0  0  0  0  0  0  0  0  # atno 16601 bound_to 1810
   15.3677    4.9562   11.2338 LP  0  0  0  0  0  0  0  0  0  0  0  0  # atno 16602 bound_to 1810
   14.7185   18.1820   13.9758 LP  0  0  0  0  0  0  0  0  0  0  0  0  # atno 16609 bound_to 8455
   14.2920   19.3708   15.0108 LP  0  0  0  0  0  0  0  0  0  0  0  0  # atno 16610 bound_to 8455
    6.9951    7.9166    9.6376 LP  0  0  0  0  0  0  0  0  0  0  0  0  # atno 16611 bound_to 1872
    5.9103    8.4772    8.5533 LP  0  0  0  0  0  0  0  0  0  0  0  0  # atno 16612 bound_to 1872
    4.2051   18.6429   22.8510 LP  0  0  0  0  0  0  0  0  0  0  0  0  # atno 16621 bound_to 9468
    5.0048   17.3190   22.3270 LP  0  0  0  0  0  0  0  0  0  0  0  0  # atno 16622 bound_to 9468

> <Gold.Score>
     Fitness  S(hb_ext) S(vdw_ext)  S(hb_int)    S(int)      intcor
     34.38       3.13      23.20       0.00      -0.65      -0.76

> <Gold.Goldscore.Fitness>
34.3776

> <Gold.Goldscore.Internal.Vdw>
-0.8043

> <Gold.Goldscore.Internal.Torsion>
-0.6007

> <Gold.Goldscore.External.Vdw>
23.1961

> <Gold.Goldscore.Internal.HBond>
0.0000

> <Gold.Goldscore.External.HBond>
3.1294

> <Gold.Goldscore.Internal.Correction>
-0.7585

> <Gold.Goldscore.Hbonds>
donor molecule, donor type, donor heavy atom, donor atom, acceptor molecule, acceptor atom, score
      P1  H  9871  9883       L1     9  0.60
      L1  H    10    23       P1 10876  0.97

> <Gold.Goldscore.Internal.Vdw.Weighted>
-0.8043

> <Gold.Goldscore.Internal.Torsion.Weighted>
-0.6007

> <Gold.Goldscore.External.Vdw.Weighted>
31.8946

> <Gold.Goldscore.Internal.HBond.Weighted>
0.0000

> <Gold.Goldscore.External.HBond.Weighted>
3.1294

> <Gold.Goldscore.Internal.Correction.Weighted>
-0.7585

> <Gold.Rescore>
     Score     S(PLP)   S(hbond)     S(cho)   S(metal)  DE(clash)   DE(tors)     intcor
     28.67     -26.87       1.00       0.00       0.00       0.00       0.60       ----

> <Gold.PLP.Fitness>
28.6702

> <Gold.PLP.PLP>
-26.8678

> <Gold.PLP.part.hbond>
-2.0000

> <Gold.PLP.part.metal>
0.0000

> <Gold.PLP.part.buried>
-2.1207

> <Gold.PLP.part.nonpolar>
-24.8308

> <Gold.PLP.part.repulsive>
1.8646

> <Gold.PLP.ligand.clash>
0.0000

> <Gold.PLP.ligand.torsion>
0.5988

> <Gold.PLP.Chemscore.Hbond>
1.0000

> <Gold.PLP.Chemscore.CHOScore>
0.0000

> <Gold.PLP.Chemscore.Metal>
0.0000

> <Gold.Chemscore.Hbonds>
donor molecule, donor type, donor heavy atom, donor atom, acceptor molecule, acceptor atom, score
      L1  H    10    23       P1 10876  1.00
      P1  H  9871  9883       L1     9  0.50
      P1  H  6125  6172       L1    17  0.01

> <Gold.PLP.Chemscore.Internal.Correction>
   9.000000E+99

