#       Name:                CT1002167954
#       Creating user name   hitesit
#       Creation time:       Sun Apr 16 20:18:54 2023


#       File generated by GOLD software.
#

@<TRIPOS>MOLECULE
CT1002167954|ligand_prepared|mol2|1|dock2
    29    30     1
SMALL
NO_CHARGES


@<TRIPOS>ATOM
      1 C1           9.0163  12.6158  11.8850 C.3            1 RES1               0.0000
      2 C2           9.8737  12.2744  13.1207 C.ar           1 RES1               0.0000
      3 C3           8.1316  11.3994  11.6280 C.2            1 RES1               0.0000
      4 C4           8.2449  13.8827  12.2378 C.2            1 RES1               0.0000
      5 C5           9.8435  12.8997  10.6096 C.3            1 RES1               0.0000
      6 C6          10.9076  13.1160  13.5203 C.ar           1 RES1               0.0000
      7 C7           9.6416  11.1250  13.8713 C.ar           1 RES1               0.0000
      8 N8           6.8096  11.5009  11.9472 N.am           1 RES1               0.0000
      9 O9           8.5946  10.3538  11.1890 O.2            1 RES1               0.0000
     10 N10          6.8810  13.7968  12.3391 N.am           1 RES1               0.0000
     11 O11          8.8072  14.9509  12.4452 O.2            1 RES1               0.0000
     12 C12          8.9962  13.2045   9.3843 C.3            1 RES1               0.0000
     13 C13         11.6795  12.8208  14.6317 C.ar           1 RES1               0.0000
     14 C14         10.4149  10.8315  14.9824 C.ar           1 RES1               0.0000
     15 C15          6.1311  12.6566  12.2400 C.2            1 RES1               0.0000
     16 C16         11.4335  11.6787  15.3637 C.ar           1 RES1               0.0000
     17 O17          4.9136  12.6504  12.3975 O.2            1 RES1               0.0000
     18 H18         10.5066  13.7523  10.8013 H              1 RES1               0.0000
     19 H19         10.4729  12.0271  10.3954 H              1 RES1               0.0000
     20 H20         11.1176  14.0180  12.9551 H              1 RES1               0.0000
     21 H21          8.8463  10.4434  13.5894 H              1 RES1               0.0000
     22 H22          6.2761  10.6376  11.9704 H              1 RES1               0.0000
     23 H23          6.3782  14.6631  12.5035 H              1 RES1               0.0000
     24 H24          9.6257  13.3960   8.5179 H              1 RES1               0.0000
     25 H25          8.3422  12.3672   9.1496 H              1 RES1               0.0000
     26 H26          8.3757  14.0822   9.5531 H              1 RES1               0.0000
     27 H27         12.4808  13.4901  14.9268 H              1 RES1               0.0000
     28 H28         10.2181   9.9313  15.5551 H              1 RES1               0.0000
     29 H29         12.0381  11.4479  16.2345 H              1 RES1               0.0000
@<TRIPOS>BOND
    1    1    2 1     
    2    1    3 1     
    3    1    4 1     
    4    1    5 1     
    5    2    6 ar    
    6    2    7 ar    
    7    3    8 1     
    8    3    9 2     
    9    4   10 1     
   10    4   11 2     
   11    5   12 1     
   12    5   18 1     
   13    5   19 1     
   14    6   13 ar    
   15    6   20 1     
   16    7   14 ar    
   17    7   21 1     
   18    8   15 1     
   19    8   22 1     
   20   10   15 1     
   21   10   23 1     
   22   12   24 1     
   23   12   25 1     
   24   12   26 1     
   25   13   16 ar    
   26   13   27 1     
   27   14   16 ar    
   28   14   28 1     
   29   15   17 2     
   30   16   29 1     
@<TRIPOS>SUBSTRUCTURE
      1 RES1           1
@<TRIPOS>SET
DONOR_HYDROGENS      STATIC     ATOMS    <user>   **** ""
2 22 23
ATOM$RED        STATIC     ATOMS    COLORGROUP SYSTEM
2 22 23
@<TRIPOS>COMMENT
> <Gold.Version>
2022.3.0

> <Gold.Id.Protein>
unknown|3mvj_clean|pdb

> <Gold.Protein.RotatedTorsions>
[ 9935 9915 9914 9913 ] final  -38.00 input   59.98 | X-H torsion
[ 10977 10935 10934 10932 ] final  115.93 input   60.03 | X-H torsion
[ 9832 9816 9817 9818 ] final   76.20 input   89.09 | X-H torsion
[ 9883 9871 9872 9873 ] final -171.62 input -126.12 | X-H torsion
[ 9925 9907 9908 9909 ] final   94.06 input  109.17 | X-H torsion
[ 9887 9876 9875 9872 ] final   99.49 input   59.96 | X-H torsion
[ 10737 10695 10694 10692 ] final   47.80 input   59.99 | X-H torsion
[ 11660 11631 11630 11629 ] final -126.62 input   60.02 | X-H torsion
[ 9775 9759 9760 9761 ] final  -65.76 input  126.36 | X-H torsion
[ 11617 11587 11588 11589 ] final -127.27 input  114.14 | X-H torsion
[ 11577 11538 11537 11535 ] final -155.98 input   60.01 | X-H torsion
[ 11396 11358 11359 11360 ] final  -87.17 input   98.08 | X-H torsion
[ 11450 11416 11417 11418 ] final  -55.66 input  102.35 | X-H torsion
[ 11569 11527 11528 11529 ] final   73.06 input  127.83 | X-H torsion
[ 11822 11800 11801 11802 ] final  -20.20 input  127.47 | X-H torsion
[ 11676 11632 11633 11634 ] final   92.80 input  113.96 | X-H torsion
[ 11504 11466 11467 11468 ] final  147.01 input  126.08 | X-H torsion
[ 11785 11753 11754 11755 ] final  -99.13 input  105.73 | X-H torsion
[ 11735 11697 11698 11699 ] final  -98.52 input  116.95 | X-H torsion
[ 11559 11526 11525 11523 ] final   79.96 input   60.00 | X-H torsion
[ 9355 9334 9332 9329 ] final  -63.52 input   60.01 | X-H torsion
[ 7755 7713 7712 7711 ] final -144.43 input   60.03 | X-H torsion
[ 15483 15454 15453 15451 ] final   13.53 input   59.98 | X-H torsion
[ 5786 5760 5759 5756 ] final  -97.64 input   59.99 | X-H torsion
[ 1845 1810 1808 1805 ] final  139.95 input   60.00 | X-H torsion
[ 8483 8455 8453 8450 ] final   66.85 input   60.02 | X-H torsion
[ 1888 1872 1871 1868 ] final  141.64 input   59.98 | X-H torsion
[ 9501 9468 9467 9465 ] final  173.23 input   60.02 | X-H torsion
[ 3466 3411 3410 3409 ] final -102.22 input   59.97 | X-H torsion
[ 16458 9819 9818 9817 ] final -134.52 input    0.00 | X-H torsion
[ 16464 9874 9873 9872 ] final  -71.42 input    0.00 | X-H torsion
[ 16467 9762 9761 9760 ] final -116.48 input    0.00 | X-H torsion
[ 16495 9617 9616 9615 ] final   11.88 input    0.00 | X-H torsion
[ 16497 9705 9704 9703 ] final  -75.26 input    0.00 | X-H torsion
[ 16500 11530 11529 11528 ] final   90.36 input    0.00 | X-H torsion
[ 16504 11361 11360 11359 ] final -113.51 input    0.00 | X-H torsion
[ 16511 11318 11317 11316 ] final   15.50 input    0.00 | X-H torsion
[ 16520 11590 11589 11588 ] final  -59.29 input    0.00 | X-H torsion
[ 16523 11756 11755 11754 ] final -157.56 input    0.00 | X-H torsion
[ 16543 11419 11418 11417 ] final -174.37 input   -0.00 | X-H torsion
[ 16547 11469 11468 11467 ] final  117.52 input    0.00 | X-H torsion
[ 16571 11269 11268 11267 ] final  107.00 input   -0.00 | X-H torsion

> <Gold.Protein.ActiveResidues>
 THR48   LEU49   GLY50   THR51   GLY52   SER53   PHE54   GLY55   ARG56   VAL57  
 LYS78   LYS81   LEU82   LYS83   GLN84   HIS87   GLU127  PHE129  SER130  LEU132 
 ARG133  ARG134  ILE135  GLY136  ARG137  ARG165  ASP166  LEU167  LYS168  PRO169 
 GLU170  ASN171  LEU172  LEU173  THR183  ASP184  GLY186  PHE187  TPO197  LEU198 
 CYS199  GLY200  THR201  PRO202  GLU203  TYR204  LEU205  PRO207  ILE209  ILE210 
 LEU211  SER212  LYS213  VAL226  LEU227  TYR229  GLU230  ALA233  GLY234  TYR235 
 PRO236  PRO237  PHE238  PHE239  ALA240  ASP241  GLN242  PRO243  ILE244  GLN245 
 ILE246  TYR247  GLU248  LYS249  ILE250  VAL251  SER252  ARG256  PHE257  PRO258 
 SER259  PHE327  ASP328  TYR330 

> <Gold.Protein.RotatedAtoms>
   16.0956    5.1773   11.2627 H   0  0  0  0  0  0  0  0  0  0  0  0  # atno 1845 bound_to 1810
    6.2291    9.4964    9.5378 H   0  0  0  0  0  0  0  0  0  0  0  0  # atno 1888 bound_to 1872
    1.8120   11.8474   -6.2796 H   0  0  0  0  0  0  0  0  0  0  0  0  # atno 3466 bound_to 3411
    0.7294   10.6142   -6.0449 H   0  0  0  0  0  0  0  0  0  0  0  0  # atno 3467 bound_to 3411
    0.2286   12.0391   -6.7284 H   0  0  0  0  0  0  0  0  0  0  0  0  # atno 3468 bound_to 3411
   16.3119   12.7487   23.7773 H   0  0  0  0  0  0  0  0  0  0  0  0  # atno 5786 bound_to 5760
    7.7761   12.9207   14.3874 H   0  0  0  0  0  0  0  0  0  0  0  0  # atno 7755 bound_to 7713
    6.9039   12.7801   15.7895 H   0  0  0  0  0  0  0  0  0  0  0  0  # atno 7756 bound_to 7713
    6.2046   13.4439   14.4413 H   0  0  0  0  0  0  0  0  0  0  0  0  # atno 7757 bound_to 7713
   14.3821   18.4491   14.0031 H   0  0  0  0  0  0  0  0  0  0  0  0  # atno 8483 bound_to 8455
    4.5302   13.8534   13.3746 H   0  0  0  0  0  0  0  0  0  0  0  0  # atno 9355 bound_to 9334
    4.4213   18.6281   22.7300 H   0  0  0  0  0  0  0  0  0  0  0  0  # atno 9501 bound_to 9468
    7.8945    8.2937   41.3342 H   0  0  0  0  0  0  0  0  0  0  0  0  # atno 9775 bound_to 9759
    5.2220    7.3911   40.9351 H   0  0  0  0  0  0  0  0  0  0  0  0  # atno 9832 bound_to 9816
    5.1806   10.2286   40.6788 H   0  0  0  0  0  0  0  0  0  0  0  0  # atno 9883 bound_to 9871
    4.6562   12.4582   39.2960 H   0  0  0  0  0  0  0  0  0  0  0  0  # atno 9887 bound_to 9876
    3.7757    9.6467   43.7193 H   0  0  0  0  0  0  0  0  0  0  0  0  # atno 9925 bound_to 9907
   -1.8062    7.7150   43.4660 H   0  0  0  0  0  0  0  0  0  0  0  0  # atno 9935 bound_to 9915
   -0.7794    7.6817   42.1649 H   0  0  0  0  0  0  0  0  0  0  0  0  # atno 9936 bound_to 9915
   -1.9360    6.5072   42.3377 H   0  0  0  0  0  0  0  0  0  0  0  0  # atno 9937 bound_to 9915
   -3.6989   16.5966   31.0505 H   0  0  0  0  0  0  0  0  0  0  0  0  # atno 10737 bound_to 10695
   -3.0238   13.7701   34.0023 H   0  0  0  0  0  0  0  0  0  0  0  0  # atno 10977 bound_to 10935
   11.4972    4.8770   30.7695 H   0  0  0  0  0  0  0  0  0  0  0  0  # atno 11396 bound_to 11358
    9.1601    3.4484   30.4257 H   0  0  0  0  0  0  0  0  0  0  0  0  # atno 11450 bound_to 11416
   11.2328    1.4408   30.6710 H   0  0  0  0  0  0  0  0  0  0  0  0  # atno 11504 bound_to 11466
   -2.9173   10.4389   12.7162 H   0  0  0  0  0  0  0  0  0  0  0  0  # atno 11559 bound_to 11526
    9.4372    2.7468   32.6522 H   0  0  0  0  0  0  0  0  0  0  0  0  # atno 11569 bound_to 11527
   12.4164    8.9475   34.4254 H   0  0  0  0  0  0  0  0  0  0  0  0  # atno 11577 bound_to 11538
    6.7510    2.7125   33.6646 H   0  0  0  0  0  0  0  0  0  0  0  0  # atno 11617 bound_to 11587
   -9.1199    7.9394   25.8015 H   0  0  0  0  0  0  0  0  0  0  0  0  # atno 11660 bound_to 11631
   -7.8181    8.9646   25.7891 H   0  0  0  0  0  0  0  0  0  0  0  0  # atno 11661 bound_to 11631
   -8.9028    9.0194   27.0404 H   0  0  0  0  0  0  0  0  0  0  0  0  # atno 11662 bound_to 11631
    7.7194   -0.4233   33.4667 H   0  0  0  0  0  0  0  0  0  0  0  0  # atno 11676 bound_to 11632
    7.8062   -2.0727   36.0850 H   0  0  0  0  0  0  0  0  0  0  0  0  # atno 11735 bound_to 11697
    6.3120   -0.1630   38.3901 H   0  0  0  0  0  0  0  0  0  0  0  0  # atno 11785 bound_to 11753
    3.6578   -1.2948   38.0109 H   0  0  0  0  0  0  0  0  0  0  0  0  # atno 11822 bound_to 11800
   16.2878    9.0844   18.1805 H   0  0  0  0  0  0  0  0  0  0  0  0  # atno 15483 bound_to 15454
    2.0231   11.0408   40.9174 LP  0  0  0  0  0  0  0  0  0  0  0  0  # atno 16458 bound_to 9819
    1.5420    9.4183   41.2860 LP  0  0  0  0  0  0  0  0  0  0  0  0  # atno 16459 bound_to 9819
   -3.5217   14.9122   32.9554 LP  0  0  0  0  0  0  0  0  0  0  0  0  # atno 16460 bound_to 10935
   -2.2495   15.2000   33.9379 LP  0  0  0  0  0  0  0  0  0  0  0  0  # atno 16461 bound_to 10935
    5.6040    8.0445   39.3612 LP  0  0  0  0  0  0  0  0  0  0  0  0  # atno 16462 bound_to 9816
    3.8162    9.5551   41.5396 LP  0  0  0  0  0  0  0  0  0  0  0  0  # atno 16463 bound_to 9871
    3.0764   13.2970   43.9985 LP  0  0  0  0  0  0  0  0  0  0  0  0  # atno 16464 bound_to 9874
    1.6500   12.5678   43.3399 LP  0  0  0  0  0  0  0  0  0  0  0  0  # atno 16465 bound_to 9874
    3.0518   11.1820   43.3025 LP  0  0  0  0  0  0  0  0  0  0  0  0  # atno 16466 bound_to 9907
    5.5119   10.0990   38.6956 LP  0  0  0  0  0  0  0  0  0  0  0  0  # atno 16467 bound_to 9762
    5.7976    8.9380   37.4425 LP  0  0  0  0  0  0  0  0  0  0  0  0  # atno 16468 bound_to 9762
    5.8109   12.4418   40.4427 LP  0  0  0  0  0  0  0  0  0  0  0  0  # atno 16469 bound_to 9876
    5.1483   13.8566   39.9674 LP  0  0  0  0  0  0  0  0  0  0  0  0  # atno 16470 bound_to 9876
   -4.6651   16.3545   29.7644 LP  0  0  0  0  0  0  0  0  0  0  0  0  # atno 16477 bound_to 10695
   -4.9348   17.6155   30.7664 LP  0  0  0  0  0  0  0  0  0  0  0  0  # atno 16478 bound_to 10695
    5.1807    4.9910   40.7896 LP  0  0  0  0  0  0  0  0  0  0  0  0  # atno 16495 bound_to 9617
    5.2244    6.2456   41.9830 LP  0  0  0  0  0  0  0  0  0  0  0  0  # atno 16496 bound_to 9617
    6.5878   10.0666   41.5508 LP  0  0  0  0  0  0  0  0  0  0  0  0  # atno 16497 bound_to 9705
    8.0830   10.1824   40.6842 LP  0  0  0  0  0  0  0  0  0  0  0  0  # atno 16498 bound_to 9705
    7.7385    6.5541   41.2402 LP  0  0  0  0  0  0  0  0  0  0  0  0  # atno 16499 bound_to 9759
    5.8730    2.6415   35.8184 LP  0  0  0  0  0  0  0  0  0  0  0  0  # atno 16500 bound_to 11530
    6.8114    1.2096   36.0816 LP  0  0  0  0  0  0  0  0  0  0  0  0  # atno 16501 bound_to 11530
    7.8433    2.8364   31.7704 LP  0  0  0  0  0  0  0  0  0  0  0  0  # atno 16504 bound_to 11361
    6.9126    3.9174   30.7880 LP  0  0  0  0  0  0  0  0  0  0  0  0  # atno 16505 bound_to 11361
    7.7326    1.3803   33.0937 LP  0  0  0  0  0  0  0  0  0  0  0  0  # atno 16508 bound_to 11587
   13.3503    7.7273   33.8905 LP  0  0  0  0  0  0  0  0  0  0  0  0  # atno 16509 bound_to 11538
   13.1142    7.9369   35.4927 LP  0  0  0  0  0  0  0  0  0  0  0  0  # atno 16510 bound_to 11538
   11.8111    4.0849   32.8494 LP  0  0  0  0  0  0  0  0  0  0  0  0  # atno 16511 bound_to 11318
   10.2893    3.7732   32.0832 LP  0  0  0  0  0  0  0  0  0  0  0  0  # atno 16512 bound_to 11318
   11.0745    5.1804   29.1108 LP  0  0  0  0  0  0  0  0  0  0  0  0  # atno 16513 bound_to 11358
   10.0222    3.2120   28.9254 LP  0  0  0  0  0  0  0  0  0  0  0  0  # atno 16514 bound_to 11416
   10.3345    2.1192   34.0089 LP  0  0  0  0  0  0  0  0  0  0  0  0  # atno 16515 bound_to 11527
    4.5147   -0.3046   35.3557 LP  0  0  0  0  0  0  0  0  0  0  0  0  # atno 16520 bound_to 11590
    4.4581   -1.7233   34.3638 LP  0  0  0  0  0  0  0  0  0  0  0  0  # atno 16521 bound_to 11590
    3.6921   -0.9295   36.3020 LP  0  0  0  0  0  0  0  0  0  0  0  0  # atno 16522 bound_to 11800
    2.1402   -2.0005   39.1603 LP  0  0  0  0  0  0  0  0  0  0  0  0  # atno 16523 bound_to 11756
    2.2548   -0.3795   39.7597 LP  0  0  0  0  0  0  0  0  0  0  0  0  # atno 16524 bound_to 11756
    8.8346   -0.4290   32.2608 LP  0  0  0  0  0  0  0  0  0  0  0  0  # atno 16543 bound_to 11419
    7.7884   -0.3482   30.8828 LP  0  0  0  0  0  0  0  0  0  0  0  0  # atno 16544 bound_to 11419
    5.9952   -0.6761   33.5651 LP  0  0  0  0  0  0  0  0  0  0  0  0  # atno 16545 bound_to 11632
    9.5583    1.1827   31.1149 LP  0  0  0  0  0  0  0  0  0  0  0  0  # atno 16546 bound_to 11466
    9.4128    0.6076   35.4273 LP  0  0  0  0  0  0  0  0  0  0  0  0  # atno 16547 bound_to 11469
    8.7789   -0.2346   34.0529 LP  0  0  0  0  0  0  0  0  0  0  0  0  # atno 16548 bound_to 11469
    5.7044    0.2126   36.7952 LP  0  0  0  0  0  0  0  0  0  0  0  0  # atno 16549 bound_to 11753
    7.5430   -0.3790   35.7064 LP  0  0  0  0  0  0  0  0  0  0  0  0  # atno 16550 bound_to 11697
   -2.9745   11.9472   12.1078 LP  0  0  0  0  0  0  0  0  0  0  0  0  # atno 16565 bound_to 11526
   -3.6501   10.7069   11.2881 LP  0  0  0  0  0  0  0  0  0  0  0  0  # atno 16566 bound_to 11526
    5.1566   14.9007   14.4515 LP  0  0  0  0  0  0  0  0  0  0  0  0  # atno 16567 bound_to 9334
    4.1402   15.4312   13.2887 LP  0  0  0  0  0  0  0  0  0  0  0  0  # atno 16568 bound_to 9334
   12.8098    2.1736   29.8769 LP  0  0  0  0  0  0  0  0  0  0  0  0  # atno 16571 bound_to 11269
   11.5033    2.7995   28.9275 LP  0  0  0  0  0  0  0  0  0  0  0  0  # atno 16572 bound_to 11269
   15.2717    7.9190   18.6870 LP  0  0  0  0  0  0  0  0  0  0  0  0  # atno 16581 bound_to 15454
   15.0000    8.6843   17.2703 LP  0  0  0  0  0  0  0  0  0  0  0  0  # atno 16582 bound_to 15454
   17.2542   12.0746   24.9195 LP  0  0  0  0  0  0  0  0  0  0  0  0  # atno 16589 bound_to 5760
   16.1650   13.2209   25.3274 LP  0  0  0  0  0  0  0  0  0  0  0  0  # atno 16590 bound_to 5760
   15.9001    6.5751   10.4522 LP  0  0  0  0  0  0  0  0  0  0  0  0  # atno 16601 bound_to 1810
   14.6183    5.6015   10.7272 LP  0  0  0  0  0  0  0  0  0  0  0  0  # atno 16602 bound_to 1810
   14.6064   19.3975   15.3062 LP  0  0  0  0  0  0  0  0  0  0  0  0  # atno 16609 bound_to 8455
   15.7176   18.2668   14.9147 LP  0  0  0  0  0  0  0  0  0  0  0  0  # atno 16610 bound_to 8455
    7.0617    8.1326    9.8456 LP  0  0  0  0  0  0  0  0  0  0  0  0  # atno 16611 bound_to 1872
    6.0442    8.2012    8.5702 LP  0  0  0  0  0  0  0  0  0  0  0  0  # atno 16612 bound_to 1872
    4.8829   17.1082   22.3780 LP  0  0  0  0  0  0  0  0  0  0  0  0  # atno 16621 bound_to 9468
    3.4732   17.3768   23.1573 LP  0  0  0  0  0  0  0  0  0  0  0  0  # atno 16622 bound_to 9468

> <Gold.Score>
     Fitness  S(hb_ext) S(vdw_ext)  S(hb_int)    S(int)      intcor
     34.97       9.11      20.13       0.00      -1.81      -0.78

> <Gold.Goldscore.Fitness>
34.9730

> <Gold.Goldscore.Internal.Vdw>
-2.2275

> <Gold.Goldscore.Internal.Torsion>
-0.3711

> <Gold.Goldscore.External.Vdw>
20.1271

> <Gold.Goldscore.Internal.HBond>
0.0000

> <Gold.Goldscore.External.HBond>
9.1127

> <Gold.Goldscore.Internal.Correction>
-0.7842

> <Gold.Goldscore.Hbonds>
donor molecule, donor type, donor heavy atom, donor atom, acceptor molecule, acceptor atom, score
      P1  H  9334  9355       L1    17  0.96
      P1  H  7713  7757       L1    17  0.06
      P1  H  1867  1899       L1     9  0.82
      P1  H  7864  7892       L1    11  0.53
      L1  H    10    23       P1  7618  0.68

> <Gold.Goldscore.Internal.Vdw.Weighted>
-2.2275

> <Gold.Goldscore.Internal.Torsion.Weighted>
-0.3711

> <Gold.Goldscore.External.Vdw.Weighted>
27.6747

> <Gold.Goldscore.Internal.HBond.Weighted>
0.0000

> <Gold.Goldscore.External.HBond.Weighted>
9.1127

> <Gold.Goldscore.Internal.Correction.Weighted>
-0.7842

> <Gold.Rescore>
     Score     S(PLP)   S(hbond)     S(cho)   S(metal)  DE(clash)   DE(tors)     intcor
     32.16     -25.16       2.95       0.00       0.00       1.25       0.30       ----

> <Gold.PLP.Fitness>
32.1571

> <Gold.PLP.PLP>
-25.1587

> <Gold.PLP.part.hbond>
-3.6895

> <Gold.PLP.part.metal>
0.0000

> <Gold.PLP.part.buried>
-6.1498

> <Gold.PLP.part.nonpolar>
-20.7479

> <Gold.PLP.part.repulsive>
4.6825

> <Gold.PLP.ligand.clash>
1.2537

> <Gold.PLP.ligand.torsion>
0.3020

> <Gold.PLP.Chemscore.Hbond>
2.9520

> <Gold.PLP.Chemscore.CHOScore>
0.0000

> <Gold.PLP.Chemscore.Metal>
0.0000

> <Gold.Chemscore.Hbonds>
donor molecule, donor type, donor heavy atom, donor atom, acceptor molecule, acceptor atom, score
      L1  H    10    23       P1  7619  0.14
      P1  H  9334  9355       L1    17  0.99
      P1  H  1867  1899       L1     9  1.00
      P1  H  7864  7892       L1    11  0.73

> <Gold.PLP.Chemscore.Internal.Correction>
   9.000000E+99

