#       Name:                CT1002167954
#       Creating user name   hitesit
#       Creation time:       Sun Apr 16 20:19:07 2023


#       File generated by GOLD software.
#

@<TRIPOS>MOLECULE
CT1002167954|ligand_prepared|mol2|1|dock8
    29    30     1
SMALL
NO_CHARGES


@<TRIPOS>ATOM
      1 C1           9.2846  13.6120  10.5760 C.3            1 RES1               0.0000
      2 C2          10.7539  13.1956  10.3602 C.ar           1 RES1               0.0000
      3 C3           9.3212  14.9973  11.2146 C.2            1 RES1               0.0000
      4 C4           8.6252  13.5777   9.2018 C.2            1 RES1               0.0000
      5 C5           8.4965  12.6622  11.5079 C.3            1 RES1               0.0000
      6 C6          11.2994  13.1591   9.0804 C.ar           1 RES1               0.0000
      7 C7          11.5755  12.8485  11.4293 C.ar           1 RES1               0.0000
      8 N8           8.9817  16.0623  10.4334 N.am           1 RES1               0.0000
      9 O9           9.6808  15.1569  12.3746 O.2            1 RES1               0.0000
     10 N10          8.1919  14.7629   8.6677 N.am           1 RES1               0.0000
     11 O11          8.4919  12.5372   8.5693 O.2            1 RES1               0.0000
     12 C12          7.0076  12.9637  11.5735 C.3            1 RES1               0.0000
     13 C13         12.6192  12.7918   8.8769 C.ar           1 RES1               0.0000
     14 C14         12.8951  12.4813  11.2236 C.ar           1 RES1               0.0000
     15 C15          8.3679  16.0077   9.2078 C.2            1 RES1               0.0000
     16 C16         13.4180  12.4531   9.9483 C.ar           1 RES1               0.0000
     17 O17          7.9984  17.0323   8.6414 O.2            1 RES1               0.0000
     18 H18          8.6331  11.6313  11.1587 H              1 RES1               0.0000
     19 H19          8.9157  12.7318  12.5193 H              1 RES1               0.0000
     20 H20         10.6853  13.4200   8.2249 H              1 RES1               0.0000
     21 H21         11.1853  12.8625  12.4413 H              1 RES1               0.0000
     22 H22          9.2047  16.9847  10.7938 H              1 RES1               0.0000
     23 H23          7.6917  14.7126   7.7859 H              1 RES1               0.0000
     24 H24          6.5023  12.2685  12.2407 H              1 RES1               0.0000
     25 H25          6.8342  13.9729  11.9411 H              1 RES1               0.0000
     26 H26          6.5532  12.8789  10.5885 H              1 RES1               0.0000
     27 H27         13.0256  12.7700   7.8711 H              1 RES1               0.0000
     28 H28         13.5200  12.2149  12.0697 H              1 RES1               0.0000
     29 H29         14.4521  12.1658   9.7887 H              1 RES1               0.0000
@<TRIPOS>BOND
    1    1    2 1     
    2    1    3 1     
    3    1    4 1     
    4    1    5 1     
    5    2    6 ar    
    6    2    7 ar    
    7    3    8 1     
    8    3    9 2     
    9    4   10 1     
   10    4   11 2     
   11    5   12 1     
   12    5   18 1     
   13    5   19 1     
   14    6   13 ar    
   15    6   20 1     
   16    7   14 ar    
   17    7   21 1     
   18    8   15 1     
   19    8   22 1     
   20   10   15 1     
   21   10   23 1     
   22   12   24 1     
   23   12   25 1     
   24   12   26 1     
   25   13   16 ar    
   26   13   27 1     
   27   14   16 ar    
   28   14   28 1     
   29   15   17 2     
   30   16   29 1     
@<TRIPOS>SUBSTRUCTURE
      1 RES1           1
@<TRIPOS>SET
DONOR_HYDROGENS      STATIC     ATOMS    <user>   **** ""
2 22 23
ATOM$RED        STATIC     ATOMS    COLORGROUP SYSTEM
2 22 23
@<TRIPOS>COMMENT
> <Gold.Version>
2022.3.0

> <Gold.Id.Protein>
unknown|3mvj_clean|pdb

> <Gold.Protein.RotatedTorsions>
[ 9935 9915 9914 9913 ] final   75.20 input   59.98 | X-H torsion
[ 10977 10935 10934 10932 ] final  -73.52 input   60.03 | X-H torsion
[ 9832 9816 9817 9818 ] final  -34.63 input   89.09 | X-H torsion
[ 9883 9871 9872 9873 ] final  -96.55 input -126.12 | X-H torsion
[ 9925 9907 9908 9909 ] final  -69.60 input  109.17 | X-H torsion
[ 9887 9876 9875 9872 ] final  -86.07 input   59.96 | X-H torsion
[ 10737 10695 10694 10692 ] final  -77.68 input   59.99 | X-H torsion
[ 11660 11631 11630 11629 ] final -108.27 input   60.02 | X-H torsion
[ 9775 9759 9760 9761 ] final  -17.74 input  126.36 | X-H torsion
[ 11617 11587 11588 11589 ] final -121.80 input  114.14 | X-H torsion
[ 11577 11538 11537 11535 ] final   52.12 input   60.01 | X-H torsion
[ 11396 11358 11359 11360 ] final   46.63 input   98.08 | X-H torsion
[ 11450 11416 11417 11418 ] final   38.36 input  102.35 | X-H torsion
[ 11569 11527 11528 11529 ] final  141.03 input  127.83 | X-H torsion
[ 11822 11800 11801 11802 ] final   36.50 input  127.47 | X-H torsion
[ 11676 11632 11633 11634 ] final -113.10 input  113.96 | X-H torsion
[ 11504 11466 11467 11468 ] final -122.86 input  126.08 | X-H torsion
[ 11785 11753 11754 11755 ] final  -77.22 input  105.73 | X-H torsion
[ 11735 11697 11698 11699 ] final   63.21 input  116.95 | X-H torsion
[ 11559 11526 11525 11523 ] final -135.49 input   60.00 | X-H torsion
[ 9355 9334 9332 9329 ] final   78.22 input   60.01 | X-H torsion
[ 7755 7713 7712 7711 ] final  103.81 input   60.03 | X-H torsion
[ 15483 15454 15453 15451 ] final  -63.32 input   59.98 | X-H torsion
[ 5786 5760 5759 5756 ] final   22.22 input   59.99 | X-H torsion
[ 1845 1810 1808 1805 ] final   -8.84 input   60.00 | X-H torsion
[ 8483 8455 8453 8450 ] final  126.90 input   60.02 | X-H torsion
[ 1888 1872 1871 1868 ] final  136.37 input   59.98 | X-H torsion
[ 9501 9468 9467 9465 ] final -111.56 input   60.02 | X-H torsion
[ 3466 3411 3410 3409 ] final -178.01 input   59.97 | X-H torsion
[ 16458 9819 9818 9817 ] final   92.71 input    0.00 | X-H torsion
[ 16464 9874 9873 9872 ] final  166.43 input    0.00 | X-H torsion
[ 16467 9762 9761 9760 ] final -107.73 input    0.00 | X-H torsion
[ 16495 9617 9616 9615 ] final  -69.56 input    0.00 | X-H torsion
[ 16497 9705 9704 9703 ] final  -68.54 input    0.00 | X-H torsion
[ 16500 11530 11529 11528 ] final  -35.72 input    0.00 | X-H torsion
[ 16504 11361 11360 11359 ] final  -23.90 input    0.00 | X-H torsion
[ 16511 11318 11317 11316 ] final   -5.24 input    0.00 | X-H torsion
[ 16520 11590 11589 11588 ] final  -94.73 input    0.00 | X-H torsion
[ 16523 11756 11755 11754 ] final -122.60 input    0.00 | X-H torsion
[ 16543 11419 11418 11417 ] final   41.31 input   -0.00 | X-H torsion
[ 16547 11469 11468 11467 ] final  171.25 input    0.00 | X-H torsion
[ 16571 11269 11268 11267 ] final  147.39 input   -0.00 | X-H torsion

> <Gold.Protein.ActiveResidues>
 THR48   LEU49   GLY50   THR51   GLY52   SER53   PHE54   GLY55   ARG56   VAL57  
 LYS78   LYS81   LEU82   LYS83   GLN84   HIS87   GLU127  PHE129  SER130  LEU132 
 ARG133  ARG134  ILE135  GLY136  ARG137  ARG165  ASP166  LEU167  LYS168  PRO169 
 GLU170  ASN171  LEU172  LEU173  THR183  ASP184  GLY186  PHE187  TPO197  LEU198 
 CYS199  GLY200  THR201  PRO202  GLU203  TYR204  LEU205  PRO207  ILE209  ILE210 
 LEU211  SER212  LYS213  VAL226  LEU227  TYR229  GLU230  ALA233  GLY234  TYR235 
 PRO236  PRO237  PHE238  PHE239  ALA240  ASP241  GLN242  PRO243  ILE244  GLN245 
 ILE246  TYR247  GLU248  LYS249  ILE250  VAL251  SER252  ARG256  PHE257  PRO258 
 SER259  PHE327  ASP328  TYR330 

> <Gold.Protein.RotatedAtoms>
   15.4438    6.5923   10.3529 H   0  0  0  0  0  0  0  0  0  0  0  0  # atno 1845 bound_to 1810
    6.2835    9.4890    9.6040 H   0  0  0  0  0  0  0  0  0  0  0  0  # atno 1888 bound_to 1872
    0.8609   12.3825   -6.7159 H   0  0  0  0  0  0  0  0  0  0  0  0  # atno 3466 bound_to 3411
    1.7625   11.1756   -6.0241 H   0  0  0  0  0  0  0  0  0  0  0  0  # atno 3467 bound_to 3411
    0.1468   10.9427   -6.3130 H   0  0  0  0  0  0  0  0  0  0  0  0  # atno 3468 bound_to 3411
   16.1648   13.2160   25.3215 H   0  0  0  0  0  0  0  0  0  0  0  0  # atno 5786 bound_to 5760
    6.2849   13.4516   14.3296 H   0  0  0  0  0  0  0  0  0  0  0  0  # atno 7755 bound_to 7713
    7.8261   12.8675   14.5037 H   0  0  0  0  0  0  0  0  0  0  0  0  # atno 7756 bound_to 7713
    6.7743   12.8257   15.7841 H   0  0  0  0  0  0  0  0  0  0  0  0  # atno 7757 bound_to 7713
   15.1940   18.0154   14.1771 H   0  0  0  0  0  0  0  0  0  0  0  0  # atno 8483 bound_to 8455
    4.3070   15.6001   13.5520 H   0  0  0  0  0  0  0  0  0  0  0  0  # atno 9355 bound_to 9334
    3.5190   18.0909   23.1792 H   0  0  0  0  0  0  0  0  0  0  0  0  # atno 9501 bound_to 9468
    7.2413    8.0474   41.5159 H   0  0  0  0  0  0  0  0  0  0  0  0  # atno 9775 bound_to 9759
    5.7349    8.5395   40.2102 H   0  0  0  0  0  0  0  0  0  0  0  0  # atno 9832 bound_to 9816
    5.1946    9.6861   41.6111 H   0  0  0  0  0  0  0  0  0  0  0  0  # atno 9883 bound_to 9871
    5.7098   13.4535   40.4784 H   0  0  0  0  0  0  0  0  0  0  0  0  # atno 9887 bound_to 9876
    3.2290   11.2870   43.4430 H   0  0  0  0  0  0  0  0  0  0  0  0  # atno 9925 bound_to 9907
   -0.7751    7.7621   42.2455 H   0  0  0  0  0  0  0  0  0  0  0  0  # atno 9935 bound_to 9915
   -1.8623    6.5106   42.2517 H   0  0  0  0  0  0  0  0  0  0  0  0  # atno 9936 bound_to 9915
   -1.8834    7.6324   43.4717 H   0  0  0  0  0  0  0  0  0  0  0  0  # atno 9937 bound_to 9915
   -4.7287   16.4179   29.7566 H   0  0  0  0  0  0  0  0  0  0  0  0  # atno 10737 bound_to 10695
   -2.7196   15.4951   33.3584 H   0  0  0  0  0  0  0  0  0  0  0  0  # atno 10977 bound_to 10935
   11.1076    4.5164   29.2676 H   0  0  0  0  0  0  0  0  0  0  0  0  # atno 11396 bound_to 11358
   10.3309    3.0478   30.0637 H   0  0  0  0  0  0  0  0  0  0  0  0  # atno 11450 bound_to 11416
   10.4516    0.4496   30.6727 H   0  0  0  0  0  0  0  0  0  0  0  0  # atno 11504 bound_to 11466
   -3.6205   11.0987   11.2157 H   0  0  0  0  0  0  0  0  0  0  0  0  # atno 11559 bound_to 11526
   10.1159    3.2548   33.1413 H   0  0  0  0  0  0  0  0  0  0  0  0  # atno 11569 bound_to 11527
   13.4987    7.4928   34.3260 H   0  0  0  0  0  0  0  0  0  0  0  0  # atno 11577 bound_to 11538
    6.7611    2.6811   33.7430 H   0  0  0  0  0  0  0  0  0  0  0  0  # atno 11617 bound_to 11587
   -8.8968    7.9652   25.5948 H   0  0  0  0  0  0  0  0  0  0  0  0  # atno 11660 bound_to 11631
   -7.8191    9.1443   26.0355 H   0  0  0  0  0  0  0  0  0  0  0  0  # atno 11661 bound_to 11631
   -9.1248    8.8139   27.0006 H   0  0  0  0  0  0  0  0  0  0  0  0  # atno 11662 bound_to 11631
    6.0713   -0.8247   33.2111 H   0  0  0  0  0  0  0  0  0  0  0  0  # atno 11676 bound_to 11632
    7.2682   -0.4094   35.7773 H   0  0  0  0  0  0  0  0  0  0  0  0  # atno 11735 bound_to 11697
    6.2073   -0.4657   38.2888 H   0  0  0  0  0  0  0  0  0  0  0  0  # atno 11785 bound_to 11753
    4.2511   -1.6553   37.5378 H   0  0  0  0  0  0  0  0  0  0  0  0  # atno 11822 bound_to 11800
   15.8483    8.2542   18.8668 H   0  0  0  0  0  0  0  0  0  0  0  0  # atno 15483 bound_to 15454
    1.7540    9.7780   41.8401 LP  0  0  0  0  0  0  0  0  0  0  0  0  # atno 16458 bound_to 9819
    1.8110   10.6811   40.3632 LP  0  0  0  0  0  0  0  0  0  0  0  0  # atno 16459 bound_to 9819
   -2.4245   14.2072   34.3084 LP  0  0  0  0  0  0  0  0  0  0  0  0  # atno 16460 bound_to 10935
   -3.6529   14.1679   33.2332 LP  0  0  0  0  0  0  0  0  0  0  0  0  # atno 16461 bound_to 10935
    5.1010    6.9181   40.0722 LP  0  0  0  0  0  0  0  0  0  0  0  0  # atno 16462 bound_to 9816
    3.8027   10.0839   40.6310 LP  0  0  0  0  0  0  0  0  0  0  0  0  # atno 16463 bound_to 9871
    1.8307   12.4462   44.1488 LP  0  0  0  0  0  0  0  0  0  0  0  0  # atno 16464 bound_to 9874
    2.8957   13.4186   43.1896 LP  0  0  0  0  0  0  0  0  0  0  0  0  # atno 16465 bound_to 9874
    3.5854    9.5808   43.5722 LP  0  0  0  0  0  0  0  0  0  0  0  0  # atno 16466 bound_to 9907
    5.6422   10.1202   38.6918 LP  0  0  0  0  0  0  0  0  0  0  0  0  # atno 16467 bound_to 9762
    5.6673    8.9167   37.4464 LP  0  0  0  0  0  0  0  0  0  0  0  0  # atno 16468 bound_to 9762
    4.5733   13.3134   39.3221 LP  0  0  0  0  0  0  0  0  0  0  0  0  # atno 16469 bound_to 9876
    5.3251   11.9828   39.8975 LP  0  0  0  0  0  0  0  0  0  0  0  0  # atno 16470 bound_to 9876
   -4.8790   17.6251   30.8365 LP  0  0  0  0  0  0  0  0  0  0  0  0  # atno 16477 bound_to 10695
   -3.6831   16.5249   30.9983 LP  0  0  0  0  0  0  0  0  0  0  0  0  # atno 16478 bound_to 10695
    5.9887    5.7390   41.0437 LP  0  0  0  0  0  0  0  0  0  0  0  0  # atno 16495 bound_to 9617
    4.4164    5.4977   41.7290 LP  0  0  0  0  0  0  0  0  0  0  0  0  # atno 16496 bound_to 9617
    6.6380   10.1044   41.6306 LP  0  0  0  0  0  0  0  0  0  0  0  0  # atno 16497 bound_to 9705
    8.0327   10.1446   40.6045 LP  0  0  0  0  0  0  0  0  0  0  0  0  # atno 16498 bound_to 9705
    8.3740    6.7937   41.0634 LP  0  0  0  0  0  0  0  0  0  0  0  0  # atno 16499 bound_to 9759
    7.0852    1.8769   36.3921 LP  0  0  0  0  0  0  0  0  0  0  0  0  # atno 16500 bound_to 11530
    5.5991    1.9742   35.5078 LP  0  0  0  0  0  0  0  0  0  0  0  0  # atno 16501 bound_to 11530
    7.5586    4.0219   31.8281 LP  0  0  0  0  0  0  0  0  0  0  0  0  # atno 16504 bound_to 11361
    7.1974    2.7318   30.7303 LP  0  0  0  0  0  0  0  0  0  0  0  0  # atno 16505 bound_to 11361
    7.7229    1.4107   33.0179 LP  0  0  0  0  0  0  0  0  0  0  0  0  # atno 16508 bound_to 11587
   12.8054    8.3521   35.5211 LP  0  0  0  0  0  0  0  0  0  0  0  0  # atno 16509 bound_to 11538
   12.5689    8.7775   33.9623 LP  0  0  0  0  0  0  0  0  0  0  0  0  # atno 16510 bound_to 11538
   11.8689    3.8069   32.7208 LP  0  0  0  0  0  0  0  0  0  0  0  0  # atno 16511 bound_to 11318
   10.2315    4.0513   32.2118 LP  0  0  0  0  0  0  0  0  0  0  0  0  # atno 16512 bound_to 11318
   11.4668    5.5436   30.6234 LP  0  0  0  0  0  0  0  0  0  0  0  0  # atno 16513 bound_to 11358
    8.8729    3.6052   29.2807 LP  0  0  0  0  0  0  0  0  0  0  0  0  # atno 16514 bound_to 11416
    9.6619    1.6156   33.5240 LP  0  0  0  0  0  0  0  0  0  0  0  0  # atno 16515 bound_to 11527
    4.8474   -0.6580   35.5619 LP  0  0  0  0  0  0  0  0  0  0  0  0  # atno 16520 bound_to 11590
    4.1255   -1.3699   34.1576 LP  0  0  0  0  0  0  0  0  0  0  0  0  # atno 16521 bound_to 11590
    3.1132   -0.5778   36.7637 LP  0  0  0  0  0  0  0  0  0  0  0  0  # atno 16522 bound_to 11800
    2.5324   -1.9875   39.5018 LP  0  0  0  0  0  0  0  0  0  0  0  0  # atno 16523 bound_to 11756
    1.8625   -0.3925   39.4182 LP  0  0  0  0  0  0  0  0  0  0  0  0  # atno 16524 bound_to 11756
    8.1555   -0.7191   30.7867 LP  0  0  0  0  0  0  0  0  0  0  0  0  # atno 16543 bound_to 11419
    8.4675   -0.0581   32.3570 LP  0  0  0  0  0  0  0  0  0  0  0  0  # atno 16544 bound_to 11419
    7.6156   -0.2814   33.8164 LP  0  0  0  0  0  0  0  0  0  0  0  0  # atno 16545 bound_to 11632
   10.3120    2.1390   31.1133 LP  0  0  0  0  0  0  0  0  0  0  0  0  # atno 16546 bound_to 11466
    8.7140    0.8394   35.1619 LP  0  0  0  0  0  0  0  0  0  0  0  0  # atno 16547 bound_to 11469
    9.4777   -0.4665   34.3184 LP  0  0  0  0  0  0  0  0  0  0  0  0  # atno 16548 bound_to 11469
    5.8066    0.5082   36.8942 LP  0  0  0  0  0  0  0  0  0  0  0  0  # atno 16549 bound_to 11753
    8.0552   -1.9627   35.9994 LP  0  0  0  0  0  0  0  0  0  0  0  0  # atno 16550 bound_to 11697
   -3.1000   10.1907   12.4619 LP  0  0  0  0  0  0  0  0  0  0  0  0  # atno 16565 bound_to 11526
   -2.8164   11.7988   12.4452 LP  0  0  0  0  0  0  0  0  0  0  0  0  # atno 16566 bound_to 11526
    4.3200   14.0240   13.1458 LP  0  0  0  0  0  0  0  0  0  0  0  0  # atno 16567 bound_to 9334
    5.2014   14.5500   14.4159 LP  0  0  0  0  0  0  0  0  0  0  0  0  # atno 16568 bound_to 9334
   12.5220    2.6019   30.1789 LP  0  0  0  0  0  0  0  0  0  0  0  0  # atno 16571 bound_to 11269
   11.7912    2.3711   28.6256 LP  0  0  0  0  0  0  0  0  0  0  0  0  # atno 16572 bound_to 11269
   14.7380    8.1896   17.6793 LP  0  0  0  0  0  0  0  0  0  0  0  0  # atno 16581 bound_to 15454
   15.9763    9.2501   17.5866 LP  0  0  0  0  0  0  0  0  0  0  0  0  # atno 16582 bound_to 15454
   16.3134   12.7496   23.7698 LP  0  0  0  0  0  0  0  0  0  0  0  0  # atno 16589 bound_to 5760
   17.2540   12.0752   24.9218 LP  0  0  0  0  0  0  0  0  0  0  0  0  # atno 16590 bound_to 5760
   14.7877    5.2338   10.9636 LP  0  0  0  0  0  0  0  0  0  0  0  0  # atno 16601 bound_to 1810
   16.3869    5.5184   11.1317 LP  0  0  0  0  0  0  0  0  0  0  0  0  # atno 16602 bound_to 1810
   14.0832   19.1398   14.5645 LP  0  0  0  0  0  0  0  0  0  0  0  0  # atno 16609 bound_to 8455
   15.4228   18.9614   15.4812 LP  0  0  0  0  0  0  0  0  0  0  0  0  # atno 16610 bound_to 8455
    7.0494    8.0657    9.7920 LP  0  0  0  0  0  0  0  0  0  0  0  0  # atno 16611 bound_to 1872
    6.0016    8.2755    8.5572 LP  0  0  0  0  0  0  0  0  0  0  0  0  # atno 16612 bound_to 1872
    4.9497   18.2559   22.4223 LP  0  0  0  0  0  0  0  0  0  0  0  0  # atno 16621 bound_to 9468
    4.3152   16.7702   22.6606 LP  0  0  0  0  0  0  0  0  0  0  0  0  # atno 16622 bound_to 9468

> <Gold.Score>
     Fitness  S(hb_ext) S(vdw_ext)  S(hb_int)    S(int)      intcor
     36.65       0.20      28.01       0.00      -2.07      -0.76

> <Gold.Goldscore.Fitness>
36.6485

> <Gold.Goldscore.Internal.Vdw>
-2.3673

> <Gold.Goldscore.Internal.Torsion>
-0.4600

> <Gold.Goldscore.External.Vdw>
28.0139

> <Gold.Goldscore.Internal.HBond>
0.0000

> <Gold.Goldscore.External.HBond>
0.1981

> <Gold.Goldscore.Internal.Correction>
-0.7585

> <Gold.Goldscore.Hbonds>
donor molecule, donor type, donor heavy atom, donor atom, acceptor molecule, acceptor atom, score
      P1  H  7864  7892       L1     9  0.10

> <Gold.Goldscore.Internal.Vdw.Weighted>
-2.3673

> <Gold.Goldscore.Internal.Torsion.Weighted>
-0.4600

> <Gold.Goldscore.External.Vdw.Weighted>
38.5192

> <Gold.Goldscore.Internal.HBond.Weighted>
0.0000

> <Gold.Goldscore.External.HBond.Weighted>
0.1981

> <Gold.Goldscore.Internal.Correction.Weighted>
-0.7585

> <Gold.Rescore>
     Score     S(PLP)   S(hbond)     S(cho)   S(metal)  DE(clash)   DE(tors)     intcor
     -0.99       0.55       0.61       0.00       0.00       2.13       0.07       ----

> <Gold.PLP.Fitness>
-0.9850

> <Gold.PLP.PLP>
0.5482

> <Gold.PLP.part.hbond>
-2.5926

> <Gold.PLP.part.metal>
0.0000

> <Gold.PLP.part.buried>
26.4613

> <Gold.PLP.part.nonpolar>
-26.3309

> <Gold.PLP.part.repulsive>
6.7378

> <Gold.PLP.ligand.clash>
2.1322

> <Gold.PLP.ligand.torsion>
0.0673

> <Gold.PLP.Chemscore.Hbond>
0.6100

> <Gold.PLP.Chemscore.CHOScore>
0.0000

> <Gold.PLP.Chemscore.Metal>
0.0000

> <Gold.Chemscore.Hbonds>
donor molecule, donor type, donor heavy atom, donor atom, acceptor molecule, acceptor atom, score
      P1  H  7864  7892       L1     9  0.65

> <Gold.PLP.Chemscore.Internal.Correction>
   9.000000E+99

