#       Name:                CT1002167954
#       Creating user name   hitesit
#       Creation time:       Sun Apr 16 20:19:09 2023


#       File generated by GOLD software.
#

@<TRIPOS>MOLECULE
CT1002167954|ligand_prepared|mol2|1|dock9
    29    30     1
SMALL
NO_CHARGES


@<TRIPOS>ATOM
      1 C1           9.9243  12.7732  11.3898 C.3            1 RES1               0.0000
      2 C2          11.1558  12.6700  10.4671 C.ar           1 RES1               0.0000
      3 C3           9.8883  11.4822  12.2023 C.2            1 RES1               0.0000
      4 C4          10.1237  14.0308  12.2284 C.2            1 RES1               0.0000
      5 C5           8.5844  12.9131  10.6302 C.3            1 RES1               0.0000
      6 C6          11.0096  12.7046   9.0835 C.ar           1 RES1               0.0000
      7 C7          12.4424  12.5427  10.9837 C.ar           1 RES1               0.0000
      8 N8          10.2497  11.5519  13.5155 N.am           1 RES1               0.0000
      9 O9           9.5855  10.4122  11.6888 O.2            1 RES1               0.0000
     10 N10         10.2991  13.8807  13.5791 N.am           1 RES1               0.0000
     11 O11         10.1473  15.1492  11.7295 O.2            1 RES1               0.0000
     12 C12          7.3722  13.0269  11.5411 C.3            1 RES1               0.0000
     13 C13         12.1099  12.6181   8.2468 C.ar           1 RES1               0.0000
     14 C14         13.5415  12.4561  10.1452 C.ar           1 RES1               0.0000
     15 C15         10.4018  12.6962  14.2564 C.2            1 RES1               0.0000
     16 C16         13.3765  12.4942   8.7770 C.ar           1 RES1               0.0000
     17 O17         10.6143  12.6418  15.4643 O.2            1 RES1               0.0000
     18 H18          8.6316  13.8042   9.9922 H              1 RES1               0.0000
     19 H19          8.4554  12.0403   9.9782 H              1 RES1               0.0000
     20 H20         10.0204  12.7992   8.6481 H              1 RES1               0.0000
     21 H21         12.5961  12.5094  12.0570 H              1 RES1               0.0000
     22 H22         10.4230  10.6717  13.9905 H              1 RES1               0.0000
     23 H23         10.3585  14.7306  14.1308 H              1 RES1               0.0000
     24 H24          6.4589  13.1227  10.9576 H              1 RES1               0.0000
     25 H25          7.2801  12.1456  12.1725 H              1 RES1               0.0000
     26 H26          7.4552  13.8990  12.1864 H              1 RES1               0.0000
     27 H27         11.9746  12.6472   7.1707 H              1 RES1               0.0000
     28 H28         14.5364  12.3581  10.5668 H              1 RES1               0.0000
     29 H29         14.2383  12.4269   8.1213 H              1 RES1               0.0000
@<TRIPOS>BOND
    1    1    2 1     
    2    1    3 1     
    3    1    4 1     
    4    1    5 1     
    5    2    6 ar    
    6    2    7 ar    
    7    3    8 1     
    8    3    9 2     
    9    4   10 1     
   10    4   11 2     
   11    5   12 1     
   12    5   18 1     
   13    5   19 1     
   14    6   13 ar    
   15    6   20 1     
   16    7   14 ar    
   17    7   21 1     
   18    8   15 1     
   19    8   22 1     
   20   10   15 1     
   21   10   23 1     
   22   12   24 1     
   23   12   25 1     
   24   12   26 1     
   25   13   16 ar    
   26   13   27 1     
   27   14   16 ar    
   28   14   28 1     
   29   15   17 2     
   30   16   29 1     
@<TRIPOS>SUBSTRUCTURE
      1 RES1           1
@<TRIPOS>SET
DONOR_HYDROGENS      STATIC     ATOMS    <user>   **** ""
2 22 23
ATOM$RED        STATIC     ATOMS    COLORGROUP SYSTEM
2 22 23
@<TRIPOS>COMMENT
> <Gold.Version>
2022.3.0

> <Gold.Id.Protein>
unknown|3mvj_clean|pdb

> <Gold.Protein.RotatedTorsions>
[ 9935 9915 9914 9913 ] final   28.79 input   59.98 | X-H torsion
[ 10977 10935 10934 10932 ] final   64.33 input   60.03 | X-H torsion
[ 9832 9816 9817 9818 ] final  159.10 input   89.09 | X-H torsion
[ 9883 9871 9872 9873 ] final  -83.31 input -126.12 | X-H torsion
[ 9925 9907 9908 9909 ] final   33.84 input  109.17 | X-H torsion
[ 9887 9876 9875 9872 ] final   32.52 input   59.96 | X-H torsion
[ 10737 10695 10694 10692 ] final  101.68 input   59.99 | X-H torsion
[ 11660 11631 11630 11629 ] final  -38.84 input   60.02 | X-H torsion
[ 9775 9759 9760 9761 ] final -171.43 input  126.36 | X-H torsion
[ 11617 11587 11588 11589 ] final -101.92 input  114.14 | X-H torsion
[ 11577 11538 11537 11535 ] final -142.25 input   60.01 | X-H torsion
[ 11396 11358 11359 11360 ] final -130.95 input   98.08 | X-H torsion
[ 11450 11416 11417 11418 ] final   93.23 input  102.35 | X-H torsion
[ 11569 11527 11528 11529 ] final   98.40 input  127.83 | X-H torsion
[ 11822 11800 11801 11802 ] final -120.06 input  127.47 | X-H torsion
[ 11676 11632 11633 11634 ] final   27.18 input  113.96 | X-H torsion
[ 11504 11466 11467 11468 ] final  -24.51 input  126.08 | X-H torsion
[ 11785 11753 11754 11755 ] final  171.63 input  105.73 | X-H torsion
[ 11735 11697 11698 11699 ] final   11.13 input  116.95 | X-H torsion
[ 11559 11526 11525 11523 ] final  102.03 input   60.00 | X-H torsion
[ 9355 9334 9332 9329 ] final  170.16 input   60.01 | X-H torsion
[ 7755 7713 7712 7711 ] final -133.07 input   60.03 | X-H torsion
[ 15483 15454 15453 15451 ] final  114.49 input   59.98 | X-H torsion
[ 5786 5760 5759 5756 ] final  127.52 input   59.99 | X-H torsion
[ 1845 1810 1808 1805 ] final  104.39 input   60.00 | X-H torsion
[ 8483 8455 8453 8450 ] final  104.20 input   60.02 | X-H torsion
[ 1888 1872 1871 1868 ] final   80.23 input   59.98 | X-H torsion
[ 9501 9468 9467 9465 ] final   39.57 input   60.02 | X-H torsion
[ 3466 3411 3410 3409 ] final  -11.86 input   59.97 | X-H torsion
[ 16458 9819 9818 9817 ] final   79.97 input    0.00 | X-H torsion
[ 16464 9874 9873 9872 ] final  -92.38 input    0.00 | X-H torsion
[ 16467 9762 9761 9760 ] final   14.42 input    0.00 | X-H torsion
[ 16495 9617 9616 9615 ] final  145.86 input    0.00 | X-H torsion
[ 16497 9705 9704 9703 ] final   83.51 input    0.00 | X-H torsion
[ 16500 11530 11529 11528 ] final  179.78 input    0.00 | X-H torsion
[ 16504 11361 11360 11359 ] final   46.50 input    0.00 | X-H torsion
[ 16511 11318 11317 11316 ] final  133.74 input    0.00 | X-H torsion
[ 16520 11590 11589 11588 ] final   93.44 input    0.00 | X-H torsion
[ 16523 11756 11755 11754 ] final   59.37 input    0.00 | X-H torsion
[ 16543 11419 11418 11417 ] final -144.22 input   -0.00 | X-H torsion
[ 16547 11469 11468 11467 ] final   17.03 input    0.00 | X-H torsion
[ 16571 11269 11268 11267 ] final   32.68 input   -0.00 | X-H torsion

> <Gold.Protein.ActiveResidues>
 THR48   LEU49   GLY50   THR51   GLY52   SER53   PHE54   GLY55   ARG56   VAL57  
 LYS78   LYS81   LEU82   LYS83   GLN84   HIS87   GLU127  PHE129  SER130  LEU132 
 ARG133  ARG134  ILE135  GLY136  ARG137  ARG165  ASP166  LEU167  LYS168  PRO169 
 GLU170  ASN171  LEU172  LEU173  THR183  ASP184  GLY186  PHE187  TPO197  LEU198 
 CYS199  GLY200  THR201  PRO202  GLU203  TYR204  LEU205  PRO207  ILE209  ILE210 
 LEU211  SER212  LYS213  VAL226  LEU227  TYR229  GLU230  ALA233  GLY234  TYR235 
 PRO236  PRO237  PHE238  PHE239  ALA240  ASP241  GLN242  PRO243  ILE244  GLN245 
 ILE246  TYR247  GLU248  LYS249  ILE250  VAL251  SER252  ARG256  PHE257  PRO258 
 SER259  PHE327  ASP328  TYR330 

> <Gold.Protein.RotatedAtoms>
   16.4193    5.6152   11.0878 H   0  0  0  0  0  0  0  0  0  0  0  0  # atno 1845 bound_to 1810
    6.8539    9.0011   10.0650 H   0  0  0  0  0  0  0  0  0  0  0  0  # atno 1888 bound_to 1872
    1.2073   10.6757   -5.9575 H   0  0  0  0  0  0  0  0  0  0  0  0  # atno 3466 bound_to 3411
    0.0097   11.6167   -6.6120 H   0  0  0  0  0  0  0  0  0  0  0  0  # atno 3467 bound_to 3411
    1.5528   12.2085   -6.4834 H   0  0  0  0  0  0  0  0  0  0  0  0  # atno 3468 bound_to 3411
   17.2034   12.1661   25.1386 H   0  0  0  0  0  0  0  0  0  0  0  0  # atno 5786 bound_to 5760
    7.8396   12.8477   14.5501 H   0  0  0  0  0  0  0  0  0  0  0  0  # atno 7755 bound_to 7713
    6.7263   12.8448   15.7778 H   0  0  0  0  0  0  0  0  0  0  0  0  # atno 7756 bound_to 7713
    6.3185   13.4522   14.2904 H   0  0  0  0  0  0  0  0  0  0  0  0  # atno 7757 bound_to 7713
   14.8750   18.1083   14.0178 H   0  0  0  0  0  0  0  0  0  0  0  0  # atno 8483 bound_to 8455
    5.1228   14.9982   14.4386 H   0  0  0  0  0  0  0  0  0  0  0  0  # atno 9355 bound_to 9334
    4.7308   16.9592   22.4463 H   0  0  0  0  0  0  0  0  0  0  0  0  # atno 9501 bound_to 9468
    8.6036    7.1155   41.0095 H   0  0  0  0  0  0  0  0  0  0  0  0  # atno 9775 bound_to 9759
    5.1249    6.9353   39.8649 H   0  0  0  0  0  0  0  0  0  0  0  0  # atno 9832 bound_to 9816
    5.0550    9.5991   41.7320 H   0  0  0  0  0  0  0  0  0  0  0  0  # atno 9883 bound_to 9871
    5.3386   11.9914   39.9156 H   0  0  0  0  0  0  0  0  0  0  0  0  # atno 9887 bound_to 9876
    4.1298   10.4023   44.0211 H   0  0  0  0  0  0  0  0  0  0  0  0  # atno 9925 bound_to 9907
   -1.0112    8.0881   42.8837 H   0  0  0  0  0  0  0  0  0  0  0  0  # atno 9935 bound_to 9915
   -1.2889    6.8104   41.8645 H   0  0  0  0  0  0  0  0  0  0  0  0  # atno 9936 bound_to 9915
   -2.2213    7.0062   43.2209 H   0  0  0  0  0  0  0  0  0  0  0  0  # atno 9937 bound_to 9915
   -4.1238   17.2865   31.2996 H   0  0  0  0  0  0  0  0  0  0  0  0  # atno 10737 bound_to 10695
   -3.5602   13.9645   33.4205 H   0  0  0  0  0  0  0  0  0  0  0  0  # atno 10977 bound_to 10935
   11.5066    5.5075   30.6302 H   0  0  0  0  0  0  0  0  0  0  0  0  # atno 11396 bound_to 11358
   10.3335    3.0873   29.2526 H   0  0  0  0  0  0  0  0  0  0  0  0  # atno 11450 bound_to 11416
    9.5345    1.3002   31.1779 H   0  0  0  0  0  0  0  0  0  0  0  0  # atno 11504 bound_to 11466
   -3.0822   10.2149   12.4900 H   0  0  0  0  0  0  0  0  0  0  0  0  # atno 11559 bound_to 11526
    9.6627    3.0425   32.7480 H   0  0  0  0  0  0  0  0  0  0  0  0  # atno 11569 bound_to 11527
   12.3998    8.9548   34.6485 H   0  0  0  0  0  0  0  0  0  0  0  0  # atno 11577 bound_to 11538
    6.8335    2.5196   33.9940 H   0  0  0  0  0  0  0  0  0  0  0  0  # atno 11617 bound_to 11587
   -8.0067    8.5827   25.4724 H   0  0  0  0  0  0  0  0  0  0  0  0  # atno 11660 bound_to 11631
   -8.4576    9.2764   26.9081 H   0  0  0  0  0  0  0  0  0  0  0  0  # atno 11661 bound_to 11631
   -9.3760    8.0644   26.2501 H   0  0  0  0  0  0  0  0  0  0  0  0  # atno 11662 bound_to 11631
    7.2005   -0.1586   34.2220 H   0  0  0  0  0  0  0  0  0  0  0  0  # atno 11676 bound_to 11632
    6.7927   -1.0191   35.9356 H   0  0  0  0  0  0  0  0  0  0  0  0  # atno 11735 bound_to 11697
    6.2264    0.8733   37.7107 H   0  0  0  0  0  0  0  0  0  0  0  0  # atno 11785 bound_to 11753
    2.9843   -0.5598   37.0948 H   0  0  0  0  0  0  0  0  0  0  0  0  # atno 11822 bound_to 11800
   15.2244    8.8942   17.2226 H   0  0  0  0  0  0  0  0  0  0  0  0  # atno 15483 bound_to 15454
    1.6883    9.6376   41.7267 LP  0  0  0  0  0  0  0  0  0  0  0  0  # atno 16458 bound_to 9819
    1.8768   10.8215   40.4766 LP  0  0  0  0  0  0  0  0  0  0  0  0  # atno 16459 bound_to 9819
   -2.9472   15.4529   33.1811 LP  0  0  0  0  0  0  0  0  0  0  0  0  # atno 16460 bound_to 10935
   -2.2838   14.4634   34.2980 LP  0  0  0  0  0  0  0  0  0  0  0  0  # atno 16461 bound_to 10935
    5.6993    8.4916   40.4108 LP  0  0  0  0  0  0  0  0  0  0  0  0  # atno 16462 bound_to 9816
    3.9387   10.1687   40.5131 LP  0  0  0  0  0  0  0  0  0  0  0  0  # atno 16463 bound_to 9871
    2.9646   13.1495   44.2534 LP  0  0  0  0  0  0  0  0  0  0  0  0  # atno 16464 bound_to 9874
    1.7619   12.7154   43.0850 LP  0  0  0  0  0  0  0  0  0  0  0  0  # atno 16465 bound_to 9874
    2.7061   10.4444   43.0080 LP  0  0  0  0  0  0  0  0  0  0  0  0  # atno 16466 bound_to 9907
    6.3877    9.2775   37.6757 LP  0  0  0  0  0  0  0  0  0  0  0  0  # atno 16467 bound_to 9762
    4.9218    9.7595   38.4625 LP  0  0  0  0  0  0  0  0  0  0  0  0  # atno 16468 bound_to 9762
    5.7043   13.4762   40.4722 LP  0  0  0  0  0  0  0  0  0  0  0  0  # atno 16469 bound_to 9876
    4.5679   13.2923   39.3140 LP  0  0  0  0  0  0  0  0  0  0  0  0  # atno 16470 bound_to 9876
   -3.9909   16.0830   30.2132 LP  0  0  0  0  0  0  0  0  0  0  0  0  # atno 16477 bound_to 10695
   -5.1808   17.1917   30.0666 LP  0  0  0  0  0  0  0  0  0  0  0  0  # atno 16478 bound_to 10695
    4.6433    5.8982   41.9854 LP  0  0  0  0  0  0  0  0  0  0  0  0  # atno 16495 bound_to 9617
    5.7618    5.3385   40.7872 LP  0  0  0  0  0  0  0  0  0  0  0  0  # atno 16496 bound_to 9617
    8.1716   10.2942   40.9696 LP  0  0  0  0  0  0  0  0  0  0  0  0  # atno 16497 bound_to 9705
    6.4991    9.9547   41.2655 LP  0  0  0  0  0  0  0  0  0  0  0  0  # atno 16498 bound_to 9705
    7.0485    7.7005   41.5561 LP  0  0  0  0  0  0  0  0  0  0  0  0  # atno 16499 bound_to 9759
    5.7600    1.4714   35.4975 LP  0  0  0  0  0  0  0  0  0  0  0  0  # atno 16500 bound_to 11530
    6.9244    2.3797   36.4025 LP  0  0  0  0  0  0  0  0  0  0  0  0  # atno 16501 bound_to 11530
    7.0013    4.1065   31.0041 LP  0  0  0  0  0  0  0  0  0  0  0  0  # atno 16504 bound_to 11361
    7.7546    2.6472   31.5543 LP  0  0  0  0  0  0  0  0  0  0  0  0  # atno 16505 bound_to 11361
    7.6528    1.5669   32.7751 LP  0  0  0  0  0  0  0  0  0  0  0  0  # atno 16508 bound_to 11587
   13.2433    7.8804   33.7645 LP  0  0  0  0  0  0  0  0  0  0  0  0  # atno 16509 bound_to 11538
   13.2380    7.7765   35.3941 LP  0  0  0  0  0  0  0  0  0  0  0  0  # atno 16510 bound_to 11538
   10.4235    4.5219   32.5431 LP  0  0  0  0  0  0  0  0  0  0  0  0  # atno 16511 bound_to 11318
   11.6768    3.3363   32.3894 LP  0  0  0  0  0  0  0  0  0  0  0  0  # atno 16512 bound_to 11318
   11.0651    4.5455   29.2511 LP  0  0  0  0  0  0  0  0  0  0  0  0  # atno 16513 bound_to 11358
    8.8704    3.5665   30.0769 LP  0  0  0  0  0  0  0  0  0  0  0  0  # atno 16514 bound_to 11416
   10.1110    1.8261   33.9138 LP  0  0  0  0  0  0  0  0  0  0  0  0  # atno 16515 bound_to 11527
    4.1943   -1.4692   34.1834 LP  0  0  0  0  0  0  0  0  0  0  0  0  # atno 16520 bound_to 11590
    4.7785   -0.5587   35.5361 LP  0  0  0  0  0  0  0  0  0  0  0  0  # atno 16521 bound_to 11590
    4.3493   -1.6468   37.1960 LP  0  0  0  0  0  0  0  0  0  0  0  0  # atno 16522 bound_to 11800
    1.8428   -0.4024   39.3982 LP  0  0  0  0  0  0  0  0  0  0  0  0  # atno 16523 bound_to 11756
    2.5521   -1.9777   39.5218 LP  0  0  0  0  0  0  0  0  0  0  0  0  # atno 16524 bound_to 11756
    8.5323   -0.1107   32.3618 LP  0  0  0  0  0  0  0  0  0  0  0  0  # atno 16543 bound_to 11419
    8.0907   -0.6665   30.7819 LP  0  0  0  0  0  0  0  0  0  0  0  0  # atno 16544 bound_to 11419
    6.5054   -0.9364   32.8225 LP  0  0  0  0  0  0  0  0  0  0  0  0  # atno 16545 bound_to 11632
   11.1967    1.3183   30.6259 LP  0  0  0  0  0  0  0  0  0  0  0  0  # atno 16546 bound_to 11466
    9.7326   -0.3827   34.5964 LP  0  0  0  0  0  0  0  0  0  0  0  0  # atno 16547 bound_to 11469
    8.4591    0.7556   34.8838 LP  0  0  0  0  0  0  0  0  0  0  0  0  # atno 16548 bound_to 11469
    5.7879   -0.7995   37.4587 LP  0  0  0  0  0  0  0  0  0  0  0  0  # atno 16549 bound_to 11753
    8.5079   -1.3822   35.8488 LP  0  0  0  0  0  0  0  0  0  0  0  0  # atno 16550 bound_to 11697
   -2.8298   11.8208   12.4135 LP  0  0  0  0  0  0  0  0  0  0  0  0  # atno 16565 bound_to 11526
   -3.6287   11.0588   11.2103 LP  0  0  0  0  0  0  0  0  0  0  0  0  # atno 16566 bound_to 11526
    4.1034   15.3601   13.2225 LP  0  0  0  0  0  0  0  0  0  0  0  0  # atno 16567 bound_to 9334
    4.5970   13.8197   13.4468 LP  0  0  0  0  0  0  0  0  0  0  0  0  # atno 16568 bound_to 9334
   12.5295    1.8763   28.9138 LP  0  0  0  0  0  0  0  0  0  0  0  0  # atno 16571 bound_to 11269
   11.7837    3.0968   29.8906 LP  0  0  0  0  0  0  0  0  0  0  0  0  # atno 16572 bound_to 11269
   16.3010    8.9170   18.4422 LP  0  0  0  0  0  0  0  0  0  0  0  0  # atno 16581 bound_to 15454
   15.0419    7.8779   18.4800 LP  0  0  0  0  0  0  0  0  0  0  0  0  # atno 16582 bound_to 15454
   16.0394   13.3029   25.1356 LP  0  0  0  0  0  0  0  0  0  0  0  0  # atno 16589 bound_to 5760
   16.4818   12.5793   23.7401 LP  0  0  0  0  0  0  0  0  0  0  0  0  # atno 16590 bound_to 5760
   15.3354    6.5715   10.3396 LP  0  0  0  0  0  0  0  0  0  0  0  0  # atno 16601 bound_to 1810
   14.8571    5.1642   11.0159 LP  0  0  0  0  0  0  0  0  0  0  0  0  # atno 16602 bound_to 1810
   14.1973   19.3181   14.8693 LP  0  0  0  0  0  0  0  0  0  0  0  0  # atno 16609 bound_to 8455
   15.6301   18.6896   15.3368 LP  0  0  0  0  0  0  0  0  0  0  0  0  # atno 16610 bound_to 8455
    6.6473    7.7231    9.0791 LP  0  0  0  0  0  0  0  0  0  0  0  0  # atno 16611 bound_to 1872
    5.8291    9.1096    8.8057 LP  0  0  0  0  0  0  0  0  0  0  0  0  # atno 16612 bound_to 1872
    3.4329   17.5942   23.1942 LP  0  0  0  0  0  0  0  0  0  0  0  0  # atno 16621 bound_to 9468
    4.6115   18.5717   22.6268 LP  0  0  0  0  0  0  0  0  0  0  0  0  # atno 16622 bound_to 9468

> <Gold.Score>
     Fitness  S(hb_ext) S(vdw_ext)  S(hb_int)    S(int)      intcor
     37.29       2.24      26.07       0.00      -0.81      -0.76

> <Gold.Goldscore.Fitness>
37.2875

> <Gold.Goldscore.Internal.Vdw>
-1.1967

> <Gold.Goldscore.Internal.Torsion>
-0.3674

> <Gold.Goldscore.External.Vdw>
26.0721

> <Gold.Goldscore.Internal.HBond>
0.0000

> <Gold.Goldscore.External.HBond>
2.2439

> <Gold.Goldscore.Internal.Correction>
-0.7585

> <Gold.Goldscore.Hbonds>
donor molecule, donor type, donor heavy atom, donor atom, acceptor molecule, acceptor atom, score
      P1  H  1867  1899       L1     9  0.42
      L1  H    10    23       P1  7865  0.71

> <Gold.Goldscore.Internal.Vdw.Weighted>
-1.1967

> <Gold.Goldscore.Internal.Torsion.Weighted>
-0.3674

> <Gold.Goldscore.External.Vdw.Weighted>
35.8492

> <Gold.Goldscore.Internal.HBond.Weighted>
0.0000

> <Gold.Goldscore.External.HBond.Weighted>
2.2439

> <Gold.Goldscore.Internal.Correction.Weighted>
-0.7585

> <Gold.Rescore>
     Score     S(PLP)   S(hbond)     S(cho)   S(metal)  DE(clash)   DE(tors)     intcor
     29.00     -23.97       1.75       0.00       0.00       0.00       0.11       ----

> <Gold.PLP.Fitness>
28.9982

> <Gold.PLP.PLP>
-23.9684

> <Gold.PLP.part.hbond>
-2.0916

> <Gold.PLP.part.metal>
0.0000

> <Gold.PLP.part.buried>
0.2459

> <Gold.PLP.part.nonpolar>
-26.9742

> <Gold.PLP.part.repulsive>
5.4661

> <Gold.PLP.ligand.clash>
0.0000

> <Gold.PLP.ligand.torsion>
0.1060

> <Gold.PLP.Chemscore.Hbond>
1.7472

> <Gold.PLP.Chemscore.CHOScore>
0.0000

> <Gold.PLP.Chemscore.Metal>
0.0000

> <Gold.Chemscore.Hbonds>
donor molecule, donor type, donor heavy atom, donor atom, acceptor molecule, acceptor atom, score
      L1  H    10    23       P1  7865  1.00
      P1  H  1867  1899       L1     9  1.00

> <Gold.PLP.Chemscore.Internal.Correction>
   9.000000E+99

