#       Name:                CT1002167954
#       Creating user name   hitesit
#       Creation time:       Sun Apr 16 20:15:52 2023


#       File generated by GOLD software.
#

@<TRIPOS>MOLECULE
CT1002167954|ligand_prepared|mol2|1|dock4
    29    30     1
SMALL
NO_CHARGES


@<TRIPOS>ATOM
      1 C1           9.8717  12.9116  11.4026 C.3            1 RES1               0.0000
      2 C2          11.0687  12.7430  10.4447 C.ar           1 RES1               0.0000
      3 C3           9.8168  11.6420  12.2473 C.2            1 RES1               0.0000
      4 C4          10.1416  14.1805  12.2035 C.2            1 RES1               0.0000
      5 C5           8.5139  13.0812  10.6820 C.3            1 RES1               0.0000
      6 C6          12.3613  12.6091  10.9427 C.ar           1 RES1               0.0000
      7 C7          10.8961  12.7169   9.0634 C.ar           1 RES1               0.0000
      8 N8          10.2223  11.7295  13.5465 N.am           1 RES1               0.0000
      9 O9           9.4607  10.5717  11.7699 O.2            1 RES1               0.0000
     10 N10         10.3549  14.0559  13.5514 N.am           1 RES1               0.0000
     11 O11         10.1880  15.2854  11.6769 O.2            1 RES1               0.0000
     12 C12          7.3487  13.3427  11.6233 C.3            1 RES1               0.0000
     13 C13         13.4419  12.4518  10.0907 C.ar           1 RES1               0.0000
     14 C14         11.9782  12.5597   8.2132 C.ar           1 RES1               0.0000
     15 C15         10.4379  12.8847  14.2540 C.2            1 RES1               0.0000
     16 C16         13.2511  12.4266   8.7256 C.ar           1 RES1               0.0000
     17 O17         10.6870  12.8510  15.4557 O.2            1 RES1               0.0000
     18 H18          8.5912  13.9165   9.9752 H              1 RES1               0.0000
     19 H19          8.3044  12.1720  10.1050 H              1 RES1               0.0000
     20 H20         12.5312  12.6291  12.0140 H              1 RES1               0.0000
     21 H21          9.9038  12.8209   8.6378 H              1 RES1               0.0000
     22 H22         10.3800  10.8551  14.0373 H              1 RES1               0.0000
     23 H23         10.4614  14.9159  14.0800 H              1 RES1               0.0000
     24 H24          6.4205  13.4538  11.0666 H              1 RES1               0.0000
     25 H25          7.2269  12.5195  12.3244 H              1 RES1               0.0000
     26 H26          7.5119  14.2537  12.1954 H              1 RES1               0.0000
     27 H27         14.4419  12.3489  10.4990 H              1 RES1               0.0000
     28 H28         11.8234  12.5410   7.1394 H              1 RES1               0.0000
     29 H29         14.0978  12.3029   8.0584 H              1 RES1               0.0000
@<TRIPOS>BOND
    1    1    2 1     
    2    1    3 1     
    3    1    4 1     
    4    1    5 1     
    5    2    6 ar    
    6    2    7 ar    
    7    3    8 1     
    8    3    9 2     
    9    4   10 1     
   10    4   11 2     
   11    5   12 1     
   12    5   18 1     
   13    5   19 1     
   14    6   13 ar    
   15    6   20 1     
   16    7   14 ar    
   17    7   21 1     
   18    8   15 1     
   19    8   22 1     
   20   10   15 1     
   21   10   23 1     
   22   12   24 1     
   23   12   25 1     
   24   12   26 1     
   25   13   16 ar    
   26   13   27 1     
   27   14   16 ar    
   28   14   28 1     
   29   15   17 2     
   30   16   29 1     
@<TRIPOS>SUBSTRUCTURE
      1 RES1           1
@<TRIPOS>SET
DONOR_HYDROGENS      STATIC     ATOMS    <user>   **** ""
2 22 23
ATOM$RED        STATIC     ATOMS    COLORGROUP SYSTEM
2 22 23
@<TRIPOS>COMMENT
> <Gold.Version>
2022.3.0

> <Gold.Id.Protein>
unknown|3mvj_clean|pdb

> <Gold.Protein.RotatedTorsions>
[ 8483 8455 8453 8450 ] final  -94.60 input   60.02 | X-H torsion
[ 15483 15454 15453 15451 ] final  -15.51 input   59.98 | X-H torsion
[ 5446 5415 5414 5412 ] final   89.65 input   60.02 | X-H torsion
[ 7755 7713 7712 7711 ] final    1.36 input   60.03 | X-H torsion
[ 7530 7488 7487 7485 ] final  130.31 input   60.03 | X-H torsion

> <Gold.Protein.ActiveResidues>
 THR48   LEU49   GLY50   THR51   GLY52   ARG56   VAL57   MET58   LEU59   TYR69  
 ALA70   MET71   LYS72   GLU91   LEU95   VAL104  LYS105  LEU106  MET118  VAL119 
 MET120  GLU121  TYR122  VAL123  PRO124  GLY125  GLY126  GLU127  PHE129  TYR164 
 LYS168  PRO169  GLU170  ASN171  LEU172  LEU173  ILE174  GLN181  VAL182  THR183 
 ASP184  PHE185  THR324  PHE327  ASP328  TYR330 

> <Gold.Protein.RotatedAtoms>
   26.4619   13.9236   18.8253 H   0  0  0  0  0  0  0  0  0  0  0  0  # atno 5446 bound_to 5415
   10.2332   21.3512   14.4114 H   0  0  0  0  0  0  0  0  0  0  0  0  # atno 7530 bound_to 7488
    6.5147   12.9380   15.7112 H   0  0  0  0  0  0  0  0  0  0  0  0  # atno 7755 bound_to 7713
    6.4991   13.4407   14.1320 H   0  0  0  0  0  0  0  0  0  0  0  0  # atno 7756 bound_to 7713
    7.8706   12.7665   14.7738 H   0  0  0  0  0  0  0  0  0  0  0  0  # atno 7757 bound_to 7713
   15.1908   19.1531   15.5078 H   0  0  0  0  0  0  0  0  0  0  0  0  # atno 8483 bound_to 8455
   16.2672    8.8058   18.5576 H   0  0  0  0  0  0  0  0  0  0  0  0  # atno 15483 bound_to 15454
   15.4254   18.0125   14.3712 LP  0  0  0  0  0  0  0  0  0  0  0  0  # atno 16480 bound_to 8455
   14.0838   18.9426   14.3339 LP  0  0  0  0  0  0  0  0  0  0  0  0  # atno 16481 bound_to 8455
   14.9409    7.8865   18.3508 LP  0  0  0  0  0  0  0  0  0  0  0  0  # atno 16486 bound_to 15454
   15.3515    8.9975   17.2266 LP  0  0  0  0  0  0  0  0  0  0  0  0  # atno 16487 bound_to 15454
   25.0600   14.5470   19.3687 LP  0  0  0  0  0  0  0  0  0  0  0  0  # atno 16508 bound_to 5415
   26.4795   15.0509   19.9993 LP  0  0  0  0  0  0  0  0  0  0  0  0  # atno 16509 bound_to 5415

> <Gold.Score>
     Fitness  S(hb_ext) S(vdw_ext)  S(hb_int)    S(int)      intcor
     36.30       1.90      25.17       0.00      -0.20      -0.77

> <Gold.Goldscore.Fitness>
36.2972

> <Gold.Goldscore.Internal.Vdw>
-0.5811

> <Gold.Goldscore.Internal.Torsion>
-0.3910

> <Gold.Goldscore.External.Vdw>
25.1660

> <Gold.Goldscore.Internal.HBond>
0.0000

> <Gold.Goldscore.External.HBond>
1.8975

> <Gold.Goldscore.Internal.Correction>
-0.7686

> <Gold.Goldscore.Hbonds>
donor molecule, donor type, donor heavy atom, donor atom, acceptor molecule, acceptor atom, score
      L1  H    10    23       P1  7865  0.95

> <Gold.Goldscore.Internal.Vdw.Weighted>
-0.5811

> <Gold.Goldscore.Internal.Torsion.Weighted>
-0.3910

> <Gold.Goldscore.External.Vdw.Weighted>
34.6032

> <Gold.Goldscore.Internal.HBond.Weighted>
0.0000

> <Gold.Goldscore.External.HBond.Weighted>
1.8975

> <Gold.Goldscore.Internal.Correction.Weighted>
-0.7686

> <Gold.Rescore>
     Score     S(PLP)   S(hbond)     S(cho)   S(metal)  DE(clash)   DE(tors)     intcor
     23.82     -22.81       0.39       0.00       0.00       0.00       0.08       ----

> <Gold.PLP.Fitness>
23.8203

> <Gold.PLP.PLP>
-22.8084

> <Gold.PLP.part.hbond>
-1.4104

> <Gold.PLP.part.metal>
0.0000

> <Gold.PLP.part.buried>
-0.8961

> <Gold.PLP.part.nonpolar>
-26.7272

> <Gold.PLP.part.repulsive>
5.0645

> <Gold.PLP.ligand.clash>
0.0000

> <Gold.PLP.ligand.torsion>
0.0790

> <Gold.PLP.Chemscore.Hbond>
0.3900

> <Gold.PLP.Chemscore.CHOScore>
0.0000

> <Gold.PLP.Chemscore.Metal>
0.0000

> <Gold.Chemscore.Hbonds>
donor molecule, donor type, donor heavy atom, donor atom, acceptor molecule, acceptor atom, score
      L1  H    10    23       P1  7865  1.00

> <Gold.PLP.Chemscore.Internal.Correction>
   9.000000E+99

