#       Name:                CT1002167954
#       Creating user name   hitesit
#       Creation time:       Sun Apr 16 20:15:56 2023


#       File generated by GOLD software.
#

@<TRIPOS>MOLECULE
CT1002167954|ligand_prepared|mol2|1|dock7
    29    30     1
SMALL
NO_CHARGES


@<TRIPOS>ATOM
      1 C1          15.5712  14.4973  14.1999 C.3            1 RES1               0.0000
      2 C2          17.0347  14.5702  14.6813 C.ar           1 RES1               0.0000
      3 C3          15.0817  15.9389  14.0971 C.2            1 RES1               0.0000
      4 C4          15.5963  13.7524  12.8698 C.2            1 RES1               0.0000
      5 C5          14.6350  13.7280  15.1608 C.3            1 RES1               0.0000
      6 C6          17.8182  15.6857  14.4009 C.ar           1 RES1               0.0000
      7 C7          17.6134  13.5329  15.4077 C.ar           1 RES1               0.0000
      8 N8          14.9371  16.4695  12.8491 N.am           1 RES1               0.0000
      9 O9          14.8638  16.6125  15.0965 O.2            1 RES1               0.0000
     10 N10         15.2398  14.4423  11.7407 N.am           1 RES1               0.0000
     11 O11         15.9374  12.5789  12.7871 O.2            1 RES1               0.0000
     12 C12         13.1566  13.9254  14.8652 C.3            1 RES1               0.0000
     13 C13         19.1316  15.7628  14.8335 C.ar           1 RES1               0.0000
     14 C14         18.9272  13.6119  15.8392 C.ar           1 RES1               0.0000
     15 C15         14.9410  15.7754  11.6659 C.2            1 RES1               0.0000
     16 C16         19.6869  14.7263  15.5533 C.ar           1 RES1               0.0000
     17 O17         14.6831  16.3365  10.6048 O.2            1 RES1               0.0000
     18 H18         14.8677  12.6578  15.0989 H              1 RES1               0.0000
     19 H19         14.8365  14.0560  16.1880 H              1 RES1               0.0000
     20 H20         17.3991  16.5101  13.8336 H              1 RES1               0.0000
     21 H21         17.0350  12.6460  15.6433 H              1 RES1               0.0000
     22 H22         14.8147  17.4754  12.7901 H              1 RES1               0.0000
     23 H23         15.1928  13.9129  10.8759 H              1 RES1               0.0000
     24 H24         12.5444  13.3643  15.5681 H              1 RES1               0.0000
     25 H25         12.8847  14.9761  14.9425 H              1 RES1               0.0000
     26 H26         12.9156  13.5861  13.8598 H              1 RES1               0.0000
     27 H27         19.7257  16.6414  14.6047 H              1 RES1               0.0000
     28 H28         19.3603  12.7936  16.4048 H              1 RES1               0.0000
     29 H29         20.7157  14.7871  15.8924 H              1 RES1               0.0000
@<TRIPOS>BOND
    1    1    2 1     
    2    1    3 1     
    3    1    4 1     
    4    1    5 1     
    5    2    6 ar    
    6    2    7 ar    
    7    3    8 1     
    8    3    9 2     
    9    4   10 1     
   10    4   11 2     
   11    5   12 1     
   12    5   18 1     
   13    5   19 1     
   14    6   13 ar    
   15    6   20 1     
   16    7   14 ar    
   17    7   21 1     
   18    8   15 1     
   19    8   22 1     
   20   10   15 1     
   21   10   23 1     
   22   12   24 1     
   23   12   25 1     
   24   12   26 1     
   25   13   16 ar    
   26   13   27 1     
   27   14   16 ar    
   28   14   28 1     
   29   15   17 2     
   30   16   29 1     
@<TRIPOS>SUBSTRUCTURE
      1 RES1           1
@<TRIPOS>SET
DONOR_HYDROGENS      STATIC     ATOMS    <user>   **** ""
2 22 23
ATOM$RED        STATIC     ATOMS    COLORGROUP SYSTEM
2 22 23
@<TRIPOS>COMMENT
> <Gold.Version>
2022.3.0

> <Gold.Id.Protein>
unknown|3mvj_clean|pdb

> <Gold.Protein.RotatedTorsions>
[ 8483 8455 8453 8450 ] final   34.81 input   60.02 | X-H torsion
[ 15483 15454 15453 15451 ] final   -8.01 input   59.98 | X-H torsion
[ 5446 5415 5414 5412 ] final   48.68 input   60.02 | X-H torsion
[ 7755 7713 7712 7711 ] final   39.85 input   60.03 | X-H torsion
[ 7530 7488 7487 7485 ] final   16.85 input   60.03 | X-H torsion

> <Gold.Protein.ActiveResidues>
 THR48   LEU49   GLY50   THR51   GLY52   ARG56   VAL57   MET58   LEU59   TYR69  
 ALA70   MET71   LYS72   GLU91   LEU95   VAL104  LYS105  LEU106  MET118  VAL119 
 MET120  GLU121  TYR122  VAL123  PRO124  GLY125  GLY126  GLU127  PHE129  TYR164 
 LYS168  PRO169  GLU170  ASN171  LEU172  LEU173  ILE174  GLN181  VAL182  THR183 
 ASP184  PHE185  THR324  PHE327  ASP328  TYR330 

> <Gold.Protein.RotatedAtoms>
   25.8153   13.8770   18.7278 H   0  0  0  0  0  0  0  0  0  0  0  0  # atno 5446 bound_to 5415
   10.8915   21.4584   12.9962 H   0  0  0  0  0  0  0  0  0  0  0  0  # atno 7530 bound_to 7488
    6.1191   13.2040   15.2982 H   0  0  0  0  0  0  0  0  0  0  0  0  # atno 7755 bound_to 7713
    7.0870   13.2939   13.9559 H   0  0  0  0  0  0  0  0  0  0  0  0  # atno 7756 bound_to 7713
    7.6787   12.6472   15.3628 H   0  0  0  0  0  0  0  0  0  0  0  0  # atno 7757 bound_to 7713
   14.1233   18.8318   14.2342 H   0  0  0  0  0  0  0  0  0  0  0  0  # atno 8483 bound_to 8455
   16.2916    8.8868   18.4693 H   0  0  0  0  0  0  0  0  0  0  0  0  # atno 15483 bound_to 15454
   15.0615   19.2369   15.5004 LP  0  0  0  0  0  0  0  0  0  0  0  0  # atno 16480 bound_to 8455
   15.5231   18.0419   14.4878 LP  0  0  0  0  0  0  0  0  0  0  0  0  # atno 16481 bound_to 8455
   15.0151    7.8781   18.4487 LP  0  0  0  0  0  0  0  0  0  0  0  0  # atno 16486 bound_to 15454
   15.2528    8.9243   17.2176 LP  0  0  0  0  0  0  0  0  0  0  0  0  # atno 16487 bound_to 15454
   25.2962   14.9657   19.8208 LP  0  0  0  0  0  0  0  0  0  0  0  0  # atno 16508 bound_to 5415
   26.8942   14.6792   19.6453 LP  0  0  0  0  0  0  0  0  0  0  0  0  # atno 16509 bound_to 5415

> <Gold.Score>
     Fitness  S(hb_ext) S(vdw_ext)  S(hb_int)    S(int)      intcor
     42.61       5.72      27.42       0.00      -0.82      -0.76

> <Gold.Goldscore.Fitness>
42.6085

> <Gold.Goldscore.Internal.Vdw>
-0.9273

> <Gold.Goldscore.Internal.Torsion>
-0.6509

> <Gold.Goldscore.External.Vdw>
27.4239

> <Gold.Goldscore.Internal.HBond>
0.0000

> <Gold.Goldscore.External.HBond>
5.7204

> <Gold.Goldscore.Internal.Correction>
-0.7585

> <Gold.Goldscore.Hbonds>
donor molecule, donor type, donor heavy atom, donor atom, acceptor molecule, acceptor atom, score
      P1  H  2793  2846       L1    17  0.95

> <Gold.Goldscore.Internal.Vdw.Weighted>
-0.9273

> <Gold.Goldscore.Internal.Torsion.Weighted>
-0.6509

> <Gold.Goldscore.External.Vdw.Weighted>
37.7079

> <Gold.Goldscore.Internal.HBond.Weighted>
0.0000

> <Gold.Goldscore.External.HBond.Weighted>
5.7204

> <Gold.Goldscore.Internal.Correction.Weighted>
-0.7585

> <Gold.Rescore>
     Score     S(PLP)   S(hbond)     S(cho)   S(metal)  DE(clash)   DE(tors)     intcor
     31.25     -30.26       1.00       0.00       0.00       0.00       1.01       ----

> <Gold.PLP.Fitness>
31.2483

> <Gold.PLP.PLP>
-30.2626

> <Gold.PLP.part.hbond>
-0.8715

> <Gold.PLP.part.metal>
0.0000

> <Gold.PLP.part.buried>
1.0870

> <Gold.PLP.part.nonpolar>
-33.9548

> <Gold.PLP.part.repulsive>
2.0566

> <Gold.PLP.ligand.clash>
0.0018

> <Gold.PLP.ligand.torsion>
1.0063

> <Gold.PLP.Chemscore.Hbond>
1.0000

> <Gold.PLP.Chemscore.CHOScore>
0.0000

> <Gold.PLP.Chemscore.Metal>
0.0000

> <Gold.Chemscore.Hbonds>
donor molecule, donor type, donor heavy atom, donor atom, acceptor molecule, acceptor atom, score
      P1  H  2793  2846       L1    17  0.54

> <Gold.PLP.Chemscore.Internal.Correction>
   9.000000E+99

