#       Name:                CT1002167954
#       Creating user name   hitesit
#       Creation time:       Sun Apr 16 20:15:50 2023


#       File generated by GOLD software.
#

@<TRIPOS>MOLECULE
CT1002167954|ligand_prepared|mol2|1|dock3
    29    30     1
SMALL
NO_CHARGES


@<TRIPOS>ATOM
      1 C1          16.0309  15.0126  13.7859 C.3            1 RES1               0.0000
      2 C2          17.1182  15.9967  13.3084 C.ar           1 RES1               0.0000
      3 C3          14.7501  15.4004  13.0528 C.2            1 RES1               0.0000
      4 C4          16.5419  13.6161  13.4493 C.2            1 RES1               0.0000
      5 C5          15.7620  15.0689  15.3078 C.3            1 RES1               0.0000
      6 C6          18.2864  16.1734  14.0438 C.ar           1 RES1               0.0000
      7 C7          16.9687  16.7316  12.1353 C.ar           1 RES1               0.0000
      8 N8          14.3301  14.5875  12.0415 N.am           1 RES1               0.0000
      9 O9          14.1395  16.4250  13.3315 O.2            1 RES1               0.0000
     10 N10         15.8548  12.8894  12.5124 N.am           1 RES1               0.0000
     11 O11         17.5430  13.1449  13.9747 O.2            1 RES1               0.0000
     12 C12         14.6082  14.1875  15.7596 C.3            1 RES1               0.0000
     13 C13         19.2709  17.0507  13.6203 C.ar           1 RES1               0.0000
     14 C14         17.9544  17.6086  11.7137 C.ar           1 RES1               0.0000
     15 C15         14.7900  13.3238  11.7709 C.2            1 RES1               0.0000
     16 C16         19.1058  17.7685  12.4549 C.ar           1 RES1               0.0000
     17 O17         14.2590  12.6308  10.9078 O.2            1 RES1               0.0000
     18 H18         16.6710  14.7602  15.8386 H              1 RES1               0.0000
     19 H19         15.5450  16.1066  15.5899 H              1 RES1               0.0000
     20 H20         18.4328  15.6190  14.9648 H              1 RES1               0.0000
     21 H21         16.0707  16.6227  11.5367 H              1 RES1               0.0000
     22 H22         13.6073  14.9531  11.4298 H              1 RES1               0.0000
     23 H23         16.1658  11.9364  12.3531 H              1 RES1               0.0000
     24 H24         14.4623  14.2643  16.8350 H              1 RES1               0.0000
     25 H25         13.6825  14.4830  15.2701 H              1 RES1               0.0000
     26 H26         14.8018  13.1446  15.5174 H              1 RES1               0.0000
     27 H27         20.1746  17.1740  14.2080 H              1 RES1               0.0000
     28 H28         17.8200  18.1719  10.7962 H              1 RES1               0.0000
     29 H29         19.8774  18.4555  12.1232 H              1 RES1               0.0000
@<TRIPOS>BOND
    1    1    2 1     
    2    1    3 1     
    3    1    4 1     
    4    1    5 1     
    5    2    6 ar    
    6    2    7 ar    
    7    3    8 1     
    8    3    9 2     
    9    4   10 1     
   10    4   11 2     
   11    5   12 1     
   12    5   18 1     
   13    5   19 1     
   14    6   13 ar    
   15    6   20 1     
   16    7   14 ar    
   17    7   21 1     
   18    8   15 1     
   19    8   22 1     
   20   10   15 1     
   21   10   23 1     
   22   12   24 1     
   23   12   25 1     
   24   12   26 1     
   25   13   16 ar    
   26   13   27 1     
   27   14   16 ar    
   28   14   28 1     
   29   15   17 2     
   30   16   29 1     
@<TRIPOS>SUBSTRUCTURE
      1 RES1           1
@<TRIPOS>SET
DONOR_HYDROGENS      STATIC     ATOMS    <user>   **** ""
2 22 23
ATOM$RED        STATIC     ATOMS    COLORGROUP SYSTEM
2 22 23
@<TRIPOS>COMMENT
> <Gold.Version>
2022.3.0

> <Gold.Id.Protein>
unknown|3mvj_clean|pdb

> <Gold.Protein.RotatedTorsions>
[ 8483 8455 8453 8450 ] final   97.95 input   60.02 | X-H torsion
[ 15483 15454 15453 15451 ] final -143.22 input   59.98 | X-H torsion
[ 5446 5415 5414 5412 ] final   17.89 input   60.02 | X-H torsion
[ 7755 7713 7712 7711 ] final   -5.90 input   60.03 | X-H torsion
[ 7530 7488 7487 7485 ] final   23.43 input   60.03 | X-H torsion

> <Gold.Protein.ActiveResidues>
 THR48   LEU49   GLY50   THR51   GLY52   ARG56   VAL57   MET58   LEU59   TYR69  
 ALA70   MET71   LYS72   GLU91   LEU95   VAL104  LYS105  LEU106  MET118  VAL119 
 MET120  GLU121  TYR122  VAL123  PRO124  GLY125  GLY126  GLU127  PHE129  TYR164 
 LYS168  PRO169  GLU170  ASN171  LEU172  LEU173  ILE174  GLN181  VAL182  THR183 
 ASP184  PHE185  THR324  PHE327  ASP328  TYR330 

> <Gold.Protein.RotatedAtoms>
   25.3722   14.0500   18.8734 H   0  0  0  0  0  0  0  0  0  0  0  0  # atno 5446 bound_to 5415
   10.9180   21.5150   13.0835 H   0  0  0  0  0  0  0  0  0  0  0  0  # atno 7530 bound_to 7488
    6.6183   12.8898   15.7513 H   0  0  0  0  0  0  0  0  0  0  0  0  # atno 7755 bound_to 7713
    6.4039   13.4500   14.2063 H   0  0  0  0  0  0  0  0  0  0  0  0  # atno 7756 bound_to 7713
    7.8622   12.8054   14.6594 H   0  0  0  0  0  0  0  0  0  0  0  0  # atno 7757 bound_to 7713
   14.7857   18.1510   13.9929 H   0  0  0  0  0  0  0  0  0  0  0  0  # atno 8483 bound_to 8455
   14.8811    7.9102   18.2418 H   0  0  0  0  0  0  0  0  0  0  0  0  # atno 15483 bound_to 15454
   14.2490   19.3513   14.9517 LP  0  0  0  0  0  0  0  0  0  0  0  0  # atno 16480 bound_to 8455
   15.6683   18.6133   15.2795 LP  0  0  0  0  0  0  0  0  0  0  0  0  # atno 16481 bound_to 8455
   15.4560    9.0650   17.2504 LP  0  0  0  0  0  0  0  0  0  0  0  0  # atno 16486 bound_to 15454
   16.2327    8.7212   18.6451 LP  0  0  0  0  0  0  0  0  0  0  0  0  # atno 16487 bound_to 15454
   25.7148   15.1396   20.0330 LP  0  0  0  0  0  0  0  0  0  0  0  0  # atno 16508 bound_to 5415
   26.9214   14.3312   19.2865 LP  0  0  0  0  0  0  0  0  0  0  0  0  # atno 16509 bound_to 5415

> <Gold.Score>
     Fitness  S(hb_ext) S(vdw_ext)  S(hb_int)    S(int)      intcor
     42.42       7.94      26.01       0.00      -1.29      -0.77

> <Gold.Goldscore.Fitness>
42.4154

> <Gold.Goldscore.Internal.Vdw>
-1.6466

> <Gold.Goldscore.Internal.Torsion>
-0.4111

> <Gold.Goldscore.External.Vdw>
26.0111

> <Gold.Goldscore.Internal.HBond>
0.0000

> <Gold.Goldscore.External.HBond>
7.9392

> <Gold.Goldscore.Internal.Correction>
-0.7686

> <Gold.Goldscore.Hbonds>
donor molecule, donor type, donor heavy atom, donor atom, acceptor molecule, acceptor atom, score
      P1  H  8455  8483       L1     9  1.00
      L1  H     8    22       P1  8498  0.98
      L1  H    10    23       P1  1786  0.02

> <Gold.Goldscore.Internal.Vdw.Weighted>
-1.6466

> <Gold.Goldscore.Internal.Torsion.Weighted>
-0.4111

> <Gold.Goldscore.External.Vdw.Weighted>
35.7653

> <Gold.Goldscore.Internal.HBond.Weighted>
0.0000

> <Gold.Goldscore.External.HBond.Weighted>
7.9392

> <Gold.Goldscore.Internal.Correction.Weighted>
-0.7686

> <Gold.Rescore>
     Score     S(PLP)   S(hbond)     S(cho)   S(metal)  DE(clash)   DE(tors)     intcor
     38.54     -34.18       2.00       0.00       0.00       1.01       0.31       ----

> <Gold.PLP.Fitness>
38.5405

> <Gold.PLP.PLP>
-34.1784

> <Gold.PLP.part.hbond>
-2.0000

> <Gold.PLP.part.metal>
0.0000

> <Gold.PLP.part.buried>
0.8995

> <Gold.PLP.part.nonpolar>
-34.0316

> <Gold.PLP.part.repulsive>
0.5553

> <Gold.PLP.ligand.clash>
1.0104

> <Gold.PLP.ligand.torsion>
0.3138

> <Gold.PLP.Chemscore.Hbond>
2.0000

> <Gold.PLP.Chemscore.CHOScore>
0.0000

> <Gold.PLP.Chemscore.Metal>
0.0000

> <Gold.Chemscore.Hbonds>
donor molecule, donor type, donor heavy atom, donor atom, acceptor molecule, acceptor atom, score
      L1  H     8    22       P1  8498  1.00
      P1  H  8455  8483       L1     9  1.00

> <Gold.PLP.Chemscore.Internal.Correction>
   9.000000E+99

