#       Name:                CT1002167954
#       Creating user name   hitesit
#       Creation time:       Sun Apr 16 20:15:53 2023


#       File generated by GOLD software.
#

@<TRIPOS>MOLECULE
CT1002167954|ligand_prepared|mol2|1|dock5
    29    30     1
SMALL
NO_CHARGES


@<TRIPOS>ATOM
      1 C1          15.2332  13.9644  14.1146 C.3            1 RES1               0.0000
      2 C2          14.0104  13.1756  14.6256 C.ar           1 RES1               0.0000
      3 C3          15.5081  13.4602  12.7009 C.2            1 RES1               0.0000
      4 C4          14.8502  15.4385  14.1859 C.2            1 RES1               0.0000
      5 C5          16.5084  13.7604  14.9654 C.3            1 RES1               0.0000
      6 C6          14.1493  11.8657  15.0747 C.ar           1 RES1               0.0000
      7 C7          12.7398  13.7442  14.6565 C.ar           1 RES1               0.0000
      8 N8          15.1779  14.2801  11.6623 N.am           1 RES1               0.0000
      9 O9          15.9708  12.3442  12.4992 O.2            1 RES1               0.0000
     10 N10         14.7412  16.1312  13.0087 N.am           1 RES1               0.0000
     11 O11         14.6256  16.0021  15.2500 O.2            1 RES1               0.0000
     12 C12         17.6575  14.6777  14.5775 C.3            1 RES1               0.0000
     13 C13         13.0582  11.1510  15.5405 C.ar           1 RES1               0.0000
     14 C14         11.6499  13.0276  15.1226 C.ar           1 RES1               0.0000
     15 C15         14.8577  15.6112  11.7484 C.2            1 RES1               0.0000
     16 C16         11.8080  11.7316  15.5652 C.ar           1 RES1               0.0000
     17 O17         14.6920  16.2866  10.7367 O.2            1 RES1               0.0000
     18 H18         16.2603  13.9319  16.0201 H              1 RES1               0.0000
     19 H19         16.8381  12.7191  14.8635 H              1 RES1               0.0000
     20 H20         15.1249  11.3914  15.0605 H              1 RES1               0.0000
     21 H21         12.5916  14.7621  14.3122 H              1 RES1               0.0000
     22 H22         15.1680  13.8652  10.7360 H              1 RES1               0.0000
     23 H23         14.5563  17.1269  13.0782 H              1 RES1               0.0000
     24 H24         18.5269  14.4933  15.2051 H              1 RES1               0.0000
     25 H25         17.9472  14.5161  13.5413 H              1 RES1               0.0000
     26 H26         17.3728  15.7217  14.6911 H              1 RES1               0.0000
     27 H27         13.1876  10.1309  15.8865 H              1 RES1               0.0000
     28 H28         10.6677  13.4883  15.1396 H              1 RES1               0.0000
     29 H29         10.9534  11.1717  15.9305 H              1 RES1               0.0000
@<TRIPOS>BOND
    1    1    2 1     
    2    1    3 1     
    3    1    4 1     
    4    1    5 1     
    5    2    6 ar    
    6    2    7 ar    
    7    3    8 1     
    8    3    9 2     
    9    4   10 1     
   10    4   11 2     
   11    5   12 1     
   12    5   18 1     
   13    5   19 1     
   14    6   13 ar    
   15    6   20 1     
   16    7   14 ar    
   17    7   21 1     
   18    8   15 1     
   19    8   22 1     
   20   10   15 1     
   21   10   23 1     
   22   12   24 1     
   23   12   25 1     
   24   12   26 1     
   25   13   16 ar    
   26   13   27 1     
   27   14   16 ar    
   28   14   28 1     
   29   15   17 2     
   30   16   29 1     
@<TRIPOS>SUBSTRUCTURE
      1 RES1           1
@<TRIPOS>SET
DONOR_HYDROGENS      STATIC     ATOMS    <user>   **** ""
2 22 23
ATOM$RED        STATIC     ATOMS    COLORGROUP SYSTEM
2 22 23
@<TRIPOS>COMMENT
> <Gold.Version>
2022.3.0

> <Gold.Id.Protein>
unknown|3mvj_clean|pdb

> <Gold.Protein.RotatedTorsions>
[ 8483 8455 8453 8450 ] final   -6.67 input   60.02 | X-H torsion
[ 15483 15454 15453 15451 ] final   45.51 input   59.98 | X-H torsion
[ 5446 5415 5414 5412 ] final -153.58 input   60.02 | X-H torsion
[ 7755 7713 7712 7711 ] final  164.71 input   60.03 | X-H torsion
[ 7530 7488 7487 7485 ] final   35.00 input   60.03 | X-H torsion

> <Gold.Protein.ActiveResidues>
 THR48   LEU49   GLY50   THR51   GLY52   ARG56   VAL57   MET58   LEU59   TYR69  
 ALA70   MET71   LYS72   GLU91   LEU95   VAL104  LYS105  LEU106  MET118  VAL119 
 MET120  GLU121  TYR122  VAL123  PRO124  GLY125  GLY126  GLU127  PHE129  TYR164 
 LYS168  PRO169  GLU170  ASN171  LEU172  LEU173  ILE174  GLN181  VAL182  THR183 
 ASP184  PHE185  THR324  PHE327  ASP328  TYR330 

> <Gold.Protein.RotatedAtoms>
   26.5213   15.0280   19.9751 H   0  0  0  0  0  0  0  0  0  0  0  0  # atno 5446 bound_to 5415
   10.9430   21.5990   13.2505 H   0  0  0  0  0  0  0  0  0  0  0  0  # atno 7530 bound_to 7488
    7.1628   13.2652   13.9628 H   0  0  0  0  0  0  0  0  0  0  0  0  # atno 7755 bound_to 7713
    7.6293   12.6447   15.4270 H   0  0  0  0  0  0  0  0  0  0  0  0  # atno 7756 bound_to 7713
    6.0931   13.2347   15.2282 H   0  0  0  0  0  0  0  0  0  0  0  0  # atno 7757 bound_to 7713
   14.1432   19.2537   14.7453 H   0  0  0  0  0  0  0  0  0  0  0  0  # atno 8483 bound_to 8455
   16.0893    9.2375   17.7300 H   0  0  0  0  0  0  0  0  0  0  0  0  # atno 15483 bound_to 15454
   15.5589   18.8010   15.4076 LP  0  0  0  0  0  0  0  0  0  0  0  0  # atno 16480 bound_to 8455
   15.0057   18.0528   14.0657 LP  0  0  0  0  0  0  0  0  0  0  0  0  # atno 16481 bound_to 8455
   15.7046    8.1410   18.8688 LP  0  0  0  0  0  0  0  0  0  0  0  0  # atno 16486 bound_to 15454
   14.7671    8.3081   17.5422 LP  0  0  0  0  0  0  0  0  0  0  0  0  # atno 16487 bound_to 15454
   26.4178   13.9026   18.8037 LP  0  0  0  0  0  0  0  0  0  0  0  0  # atno 16508 bound_to 5415
   25.0620   14.5839   19.4071 LP  0  0  0  0  0  0  0  0  0  0  0  0  # atno 16509 bound_to 5415

> <Gold.Score>
     Fitness  S(hb_ext) S(vdw_ext)  S(hb_int)    S(int)      intcor
     35.07       5.42      22.36       0.00      -1.09      -0.77

> <Gold.Goldscore.Fitness>
35.0697

> <Gold.Goldscore.Internal.Vdw>
-1.3985

> <Gold.Goldscore.Internal.Torsion>
-0.4606

> <Gold.Goldscore.External.Vdw>
22.3592

> <Gold.Goldscore.Internal.HBond>
0.0000

> <Gold.Goldscore.External.HBond>
5.4162

> <Gold.Goldscore.Internal.Correction>
-0.7686

> <Gold.Goldscore.Hbonds>
donor molecule, donor type, donor heavy atom, donor atom, acceptor molecule, acceptor atom, score
      P1  H  2793  2846       L1    17  0.88
      L1  H    10    23       P1  8455  0.07

> <Gold.Goldscore.Internal.Vdw.Weighted>
-1.3985

> <Gold.Goldscore.Internal.Torsion.Weighted>
-0.4606

> <Gold.Goldscore.External.Vdw.Weighted>
30.7439

> <Gold.Goldscore.Internal.HBond.Weighted>
0.0000

> <Gold.Goldscore.External.HBond.Weighted>
5.4162

> <Gold.Goldscore.Internal.Correction.Weighted>
-0.7686

> <Gold.Rescore>
     Score     S(PLP)   S(hbond)     S(cho)   S(metal)  DE(clash)   DE(tors)     intcor
     31.47     -30.65       1.00       0.00       0.00       0.00       1.09       ----

> <Gold.PLP.Fitness>
31.4736

> <Gold.PLP.PLP>
-30.6467

> <Gold.PLP.part.hbond>
-1.0000

> <Gold.PLP.part.metal>
0.0000

> <Gold.PLP.part.buried>
-4.9851

> <Gold.PLP.part.nonpolar>
-26.1453

> <Gold.PLP.part.repulsive>
0.4241

> <Gold.PLP.ligand.clash>
0.0000

> <Gold.PLP.ligand.torsion>
1.0866

> <Gold.PLP.Chemscore.Hbond>
1.0000

> <Gold.PLP.Chemscore.CHOScore>
0.0000

> <Gold.PLP.Chemscore.Metal>
0.0000

> <Gold.Chemscore.Hbonds>
donor molecule, donor type, donor heavy atom, donor atom, acceptor molecule, acceptor atom, score
      L1  H    10    23       P1  8455  0.24
      P1  H  2793  2846       L1    17  0.23

> <Gold.PLP.Chemscore.Internal.Correction>
   9.000000E+99

