#       Name:                CT1002167954
#       Creating user name   hitesit
#       Creation time:       Sun Apr 16 20:16:00 2023


#       File generated by GOLD software.
#

@<TRIPOS>MOLECULE
CT1002167954|ligand_prepared|mol2|1|dock10
    29    30     1
SMALL
NO_CHARGES


@<TRIPOS>ATOM
      1 C1          13.3665  13.1176  13.7957 C.3            1 RES1               0.0000
      2 C2          13.8739  12.6324  12.4224 C.ar           1 RES1               0.0000
      3 C3          12.0715  13.8793  13.5294 C.2            1 RES1               0.0000
      4 C4          13.1887  11.8679  14.6507 C.2            1 RES1               0.0000
      5 C5          14.3496  14.0610  14.5273 C.3            1 RES1               0.0000
      6 C6          15.0878  11.9609  12.3123 C.ar           1 RES1               0.0000
      7 C7          13.1391  12.8461  11.2592 C.ar           1 RES1               0.0000
      8 N8          10.8995  13.2730  13.8741 N.am           1 RES1               0.0000
      9 O9          12.0762  14.9784  12.9888 O.2            1 RES1               0.0000
     10 N10         11.9185  11.5312  15.0394 N.am           1 RES1               0.0000
     11 O11         14.1351  11.1623  14.9774 O.2            1 RES1               0.0000
     12 C12         13.8691  14.5015  15.9010 C.3            1 RES1               0.0000
     13 C13         15.5492  11.5165  11.0843 C.ar           1 RES1               0.0000
     14 C14         13.6024  12.4010  10.0322 C.ar           1 RES1               0.0000
     15 C15         10.7626  12.1600  14.6642 C.2            1 RES1               0.0000
     16 C16         14.8067  11.7358   9.9436 C.ar           1 RES1               0.0000
     17 O17          9.6529  11.7653  15.0107 O.2            1 RES1               0.0000
     18 H18         15.3138  13.5495  14.6376 H              1 RES1               0.0000
     19 H19         14.5116  14.9516  13.9076 H              1 RES1               0.0000
     20 H20         15.6870  11.7813  13.1988 H              1 RES1               0.0000
     21 H21         12.1893  13.3681  11.3048 H              1 RES1               0.0000
     22 H22         10.0461  13.6851  13.5108 H              1 RES1               0.0000
     23 H23         11.8261  10.7386  15.6667 H              1 RES1               0.0000
     24 H24         14.5956  15.1616  16.3704 H              1 RES1               0.0000
     25 H25         12.9244  15.0360  15.8262 H              1 RES1               0.0000
     26 H26         13.7218  13.6422  16.5520 H              1 RES1               0.0000
     27 H27         16.4983  10.9947  11.0198 H              1 RES1               0.0000
     28 H28         13.0151  12.5764   9.1369 H              1 RES1               0.0000
     29 H29         15.1682  11.3873   8.9818 H              1 RES1               0.0000
@<TRIPOS>BOND
    1    1    2 1     
    2    1    3 1     
    3    1    4 1     
    4    1    5 1     
    5    2    6 ar    
    6    2    7 ar    
    7    3    8 1     
    8    3    9 2     
    9    4   10 1     
   10    4   11 2     
   11    5   12 1     
   12    5   18 1     
   13    5   19 1     
   14    6   13 ar    
   15    6   20 1     
   16    7   14 ar    
   17    7   21 1     
   18    8   15 1     
   19    8   22 1     
   20   10   15 1     
   21   10   23 1     
   22   12   24 1     
   23   12   25 1     
   24   12   26 1     
   25   13   16 ar    
   26   13   27 1     
   27   14   16 ar    
   28   14   28 1     
   29   15   17 2     
   30   16   29 1     
@<TRIPOS>SUBSTRUCTURE
      1 RES1           1
@<TRIPOS>SET
DONOR_HYDROGENS      STATIC     ATOMS    <user>   **** ""
2 22 23
ATOM$RED        STATIC     ATOMS    COLORGROUP SYSTEM
2 22 23
@<TRIPOS>COMMENT
> <Gold.Version>
2022.3.0

> <Gold.Id.Protein>
unknown|3mvj_clean|pdb

> <Gold.Protein.RotatedTorsions>
[ 8483 8455 8453 8450 ] final  117.53 input   60.02 | X-H torsion
[ 15483 15454 15453 15451 ] final  -16.48 input   59.98 | X-H torsion
[ 5446 5415 5414 5412 ] final -178.88 input   60.02 | X-H torsion
[ 7755 7713 7712 7711 ] final -104.51 input   60.03 | X-H torsion
[ 7530 7488 7487 7485 ] final  158.10 input   60.03 | X-H torsion

> <Gold.Protein.ActiveResidues>
 THR48   LEU49   GLY50   THR51   GLY52   ARG56   VAL57   MET58   LEU59   TYR69  
 ALA70   MET71   LYS72   GLU91   LEU95   VAL104  LYS105  LEU106  MET118  VAL119 
 MET120  GLU121  TYR122  VAL123  PRO124  GLY125  GLY126  GLU127  PHE129  TYR164 
 LYS168  PRO169  GLU170  ASN171  LEU172  LEU173  ILE174  GLN181  VAL182  THR183 
 ASP184  PHE185  THR324  PHE327  ASP328  TYR330 

> <Gold.Protein.RotatedAtoms>
   26.8038   14.8110   19.7715 H   0  0  0  0  0  0  0  0  0  0  0  0  # atno 5446 bound_to 5415
    9.9078   21.0413   14.4014 H   0  0  0  0  0  0  0  0  0  0  0  0  # atno 7530 bound_to 7488
    7.8451   12.7044   14.9997 H   0  0  0  0  0  0  0  0  0  0  0  0  # atno 7755 bound_to 7713
    6.3349   13.0366   15.5960 H   0  0  0  0  0  0  0  0  0  0  0  0  # atno 7756 bound_to 7713
    6.7041   13.4039   14.0224 H   0  0  0  0  0  0  0  0  0  0  0  0  # atno 7757 bound_to 7713
   15.0651   18.0413   14.0991 H   0  0  0  0  0  0  0  0  0  0  0  0  # atno 8483 bound_to 8455
   16.2631    8.7950   18.5685 H   0  0  0  0  0  0  0  0  0  0  0  0  # atno 15483 bound_to 15454
   14.1155   19.2234   14.6896 LP  0  0  0  0  0  0  0  0  0  0  0  0  # atno 16480 bound_to 8455
   15.5203   18.8518   15.4346 LP  0  0  0  0  0  0  0  0  0  0  0  0  # atno 16481 bound_to 8455
   14.9320    7.8884   18.3376 LP  0  0  0  0  0  0  0  0  0  0  0  0  # atno 16486 bound_to 15454
   15.3645    9.0064   17.2288 LP  0  0  0  0  0  0  0  0  0  0  0  0  # atno 16487 bound_to 15454
   26.0170   13.8504   18.7191 LP  0  0  0  0  0  0  0  0  0  0  0  0  # atno 16508 bound_to 5415
   25.1784   14.8544   19.6965 LP  0  0  0  0  0  0  0  0  0  0  0  0  # atno 16509 bound_to 5415

> <Gold.Score>
     Fitness  S(hb_ext) S(vdw_ext)  S(hb_int)    S(int)      intcor
     37.61       6.00      24.80       0.00      -2.48      -0.76

> <Gold.Goldscore.Fitness>
37.6149

> <Gold.Goldscore.Internal.Vdw>
-2.8673

> <Gold.Goldscore.Internal.Torsion>
-0.3726

> <Gold.Goldscore.External.Vdw>
24.7972

> <Gold.Goldscore.Internal.HBond>
0.0000

> <Gold.Goldscore.External.HBond>
6.0000

> <Gold.Goldscore.Internal.Correction>
-0.7585

> <Gold.Goldscore.Hbonds>
donor molecule, donor type, donor heavy atom, donor atom, acceptor molecule, acceptor atom, score
      P1  H  7713  7755       L1    17  1.00

> <Gold.Goldscore.Internal.Vdw.Weighted>
-2.8673

> <Gold.Goldscore.Internal.Torsion.Weighted>
-0.3726

> <Gold.Goldscore.External.Vdw.Weighted>
34.0962

> <Gold.Goldscore.Internal.HBond.Weighted>
0.0000

> <Gold.Goldscore.External.HBond.Weighted>
6.0000

> <Gold.Goldscore.Internal.Correction.Weighted>
-0.7585

> <Gold.Rescore>
     Score     S(PLP)   S(hbond)     S(cho)   S(metal)  DE(clash)   DE(tors)     intcor
     27.07     -26.24       1.20       0.00       0.00       0.62       1.08       ----

> <Gold.PLP.Fitness>
27.0672

> <Gold.PLP.PLP>
-26.2378

> <Gold.PLP.part.hbond>
-1.8705

> <Gold.PLP.part.metal>
0.0000

> <Gold.PLP.part.buried>
2.3239

> <Gold.PLP.part.nonpolar>
-30.2637

> <Gold.PLP.part.repulsive>
2.0161

> <Gold.PLP.ligand.clash>
0.6233

> <Gold.PLP.ligand.torsion>
1.0755

> <Gold.PLP.Chemscore.Hbond>
1.2012

> <Gold.PLP.Chemscore.CHOScore>
0.0000

> <Gold.PLP.Chemscore.Metal>
0.0000

> <Gold.Chemscore.Hbonds>
donor molecule, donor type, donor heavy atom, donor atom, acceptor molecule, acceptor atom, score
      P1  H  7713  7755       L1    17  1.00

> <Gold.PLP.Chemscore.Internal.Correction>
   9.000000E+99

