#       Name:                CT1002167954
#       Creating user name   hitesit
#       Creation time:       Sun Apr 16 20:15:48 2023


#       File generated by GOLD software.
#

@<TRIPOS>MOLECULE
CT1002167954|ligand_prepared|mol2|1|dock1
    29    30     1
SMALL
NO_CHARGES


@<TRIPOS>ATOM
      1 C1          16.0274  14.5230  13.8437 C.3            1 RES1               0.0000
      2 C2          15.6272  13.7566  12.5665 C.ar           1 RES1               0.0000
      3 C3          16.4923  13.4711  14.8466 C.2            1 RES1               0.0000
      4 C4          17.1137  15.5084  13.4272 C.2            1 RES1               0.0000
      5 C5          14.8694  15.3283  14.4778 C.3            1 RES1               0.0000
      6 C6          14.8824  14.3802  11.5700 C.ar           1 RES1               0.0000
      7 C7          15.9971  12.4288  12.3697 C.ar           1 RES1               0.0000
      8 N8          17.8311  13.3774  15.0891 N.am           1 RES1               0.0000
      9 O9          15.7000  12.7089  15.3867 O.2            1 RES1               0.0000
     10 N10         18.3735  15.3279  13.9353 N.am           1 RES1               0.0000
     11 O11         16.8940  16.4297  12.6505 O.2            1 RES1               0.0000
     12 C12         15.2126  15.9350  15.8292 C.3            1 RES1               0.0000
     13 C13         14.5229  13.7020  10.4171 C.ar           1 RES1               0.0000
     14 C14         15.6363  11.7523  11.2161 C.ar           1 RES1               0.0000
     15 C15         18.7885  14.2891  14.7232 C.2            1 RES1               0.0000
     16 C16         14.8999  12.3879  10.2392 C.ar           1 RES1               0.0000
     17 O17         19.9517  14.1659  15.0960 O.2            1 RES1               0.0000
     18 H18         14.5826  16.1344  13.7914 H              1 RES1               0.0000
     19 H19         14.0031  14.6661  14.5979 H              1 RES1               0.0000
     20 H20         14.5746  15.4132  11.6935 H              1 RES1               0.0000
     21 H21         16.5757  11.9083  13.1253 H              1 RES1               0.0000
     22 H22         18.1498  12.5533  15.5887 H              1 RES1               0.0000
     23 H23         19.0659  16.0335  13.7050 H              1 RES1               0.0000
     24 H24         14.3660  16.4890  16.2295 H              1 RES1               0.0000
     25 H25         15.4784  15.1591  16.5441 H              1 RES1               0.0000
     26 H26         16.0545  16.6188  15.7424 H              1 RES1               0.0000
     27 H27         13.9421  14.2064   9.6519 H              1 RES1               0.0000
     28 H28         15.9347  10.7180  11.0806 H              1 RES1               0.0000
     29 H29         14.6185  11.8570   9.3358 H              1 RES1               0.0000
@<TRIPOS>BOND
    1    1    2 1     
    2    1    3 1     
    3    1    4 1     
    4    1    5 1     
    5    2    6 ar    
    6    2    7 ar    
    7    3    8 1     
    8    3    9 2     
    9    4   10 1     
   10    4   11 2     
   11    5   12 1     
   12    5   18 1     
   13    5   19 1     
   14    6   13 ar    
   15    6   20 1     
   16    7   14 ar    
   17    7   21 1     
   18    8   15 1     
   19    8   22 1     
   20   10   15 1     
   21   10   23 1     
   22   12   24 1     
   23   12   25 1     
   24   12   26 1     
   25   13   16 ar    
   26   13   27 1     
   27   14   16 ar    
   28   14   28 1     
   29   15   17 2     
   30   16   29 1     
@<TRIPOS>SUBSTRUCTURE
      1 RES1           1
@<TRIPOS>SET
DONOR_HYDROGENS      STATIC     ATOMS    <user>   **** ""
2 22 23
ATOM$RED        STATIC     ATOMS    COLORGROUP SYSTEM
2 22 23
@<TRIPOS>COMMENT
> <Gold.Version>
2022.3.0

> <Gold.Id.Protein>
unknown|3mvj_clean|pdb

> <Gold.Protein.RotatedTorsions>
[ 8483 8455 8453 8450 ] final   -2.76 input   60.02 | X-H torsion
[ 15483 15454 15453 15451 ] final   78.80 input   59.98 | X-H torsion
[ 5446 5415 5414 5412 ] final   63.08 input   60.02 | X-H torsion
[ 7755 7713 7712 7711 ] final   10.34 input   60.03 | X-H torsion
[ 7530 7488 7487 7485 ] final   58.61 input   60.03 | X-H torsion

> <Gold.Protein.ActiveResidues>
 THR48   LEU49   GLY50   THR51   GLY52   ARG56   VAL57   MET58   LEU59   TYR69  
 ALA70   MET71   LYS72   GLU91   LEU95   VAL104  LYS105  LEU106  MET118  VAL119 
 MET120  GLU121  TYR122  VAL123  PRO124  GLY125  GLY126  GLU127  PHE129  TYR164 
 LYS168  PRO169  GLU170  ASN171  LEU172  LEU173  ILE174  GLN181  VAL182  THR183 
 ASP184  PHE185  THR324  PHE327  ASP328  TYR330 

> <Gold.Protein.RotatedAtoms>
   26.0489   13.8559   18.7237 H   0  0  0  0  0  0  0  0  0  0  0  0  # atno 5446 bound_to 5415
   10.9059   21.6975   13.6187 H   0  0  0  0  0  0  0  0  0  0  0  0  # atno 7530 bound_to 7488
    6.3965   13.0001   15.6430 H   0  0  0  0  0  0  0  0  0  0  0  0  # atno 7755 bound_to 7713
    6.6270   13.4204   14.0565 H   0  0  0  0  0  0  0  0  0  0  0  0  # atno 7756 bound_to 7713
    7.8609   12.7247   14.9174 H   0  0  0  0  0  0  0  0  0  0  0  0  # atno 7757 bound_to 7713
   14.1233   19.2232   14.6928 H   0  0  0  0  0  0  0  0  0  0  0  0  # atno 8483 bound_to 8455
   15.7014    9.1793   17.3645 H   0  0  0  0  0  0  0  0  0  0  0  0  # atno 15483 bound_to 15454
   15.5232   18.8482   15.4328 LP  0  0  0  0  0  0  0  0  0  0  0  0  # atno 16480 bound_to 8455
   15.0614   18.0364   14.0933 LP  0  0  0  0  0  0  0  0  0  0  0  0  # atno 16481 bound_to 8455
   16.0943    8.5071   18.7931 LP  0  0  0  0  0  0  0  0  0  0  0  0  # atno 16486 bound_to 15454
   14.7681    8.0006   17.9862 LP  0  0  0  0  0  0  0  0  0  0  0  0  # atno 16487 bound_to 15454
   25.1633   14.8353   19.6755 LP  0  0  0  0  0  0  0  0  0  0  0  0  # atno 16508 bound_to 5415
   26.7919   14.8308   19.7947 LP  0  0  0  0  0  0  0  0  0  0  0  0  # atno 16509 bound_to 5415

> <Gold.Score>
     Fitness  S(hb_ext) S(vdw_ext)  S(hb_int)    S(int)      intcor
     39.06       0.20      29.18       0.00      -1.27      -0.77

> <Gold.Goldscore.Fitness>
39.0571

> <Gold.Goldscore.Internal.Vdw>
-1.5768

> <Gold.Goldscore.Internal.Torsion>
-0.4614

> <Gold.Goldscore.External.Vdw>
29.1796

> <Gold.Goldscore.Internal.HBond>
0.0000

> <Gold.Goldscore.External.HBond>
0.2047

> <Gold.Goldscore.Internal.Correction>
-0.7686

> <Gold.Goldscore.Hbonds>
donor molecule, donor type, donor heavy atom, donor atom, acceptor molecule, acceptor atom, score
      L1  H     8    22       P1  1729  0.10

> <Gold.Goldscore.Internal.Vdw.Weighted>
-1.5768

> <Gold.Goldscore.Internal.Torsion.Weighted>
-0.4614

> <Gold.Goldscore.External.Vdw.Weighted>
40.1219

> <Gold.Goldscore.Internal.HBond.Weighted>
0.0000

> <Gold.Goldscore.External.HBond.Weighted>
0.2047

> <Gold.Goldscore.Internal.Correction.Weighted>
-0.7686

> <Gold.Rescore>
     Score     S(PLP)   S(hbond)     S(cho)   S(metal)  DE(clash)   DE(tors)     intcor
     34.47     -34.12       0.58       0.00       0.00       1.31       0.05       ----

> <Gold.PLP.Fitness>
34.4697

> <Gold.PLP.PLP>
-34.1205

> <Gold.PLP.part.hbond>
-0.5416

> <Gold.PLP.part.metal>
0.0000

> <Gold.PLP.part.buried>
-2.0910

> <Gold.PLP.part.nonpolar>
-34.4703

> <Gold.PLP.part.repulsive>
1.9873

> <Gold.PLP.ligand.clash>
1.3088

> <Gold.PLP.ligand.torsion>
0.0485

> <Gold.PLP.Chemscore.Hbond>
0.5850

> <Gold.PLP.Chemscore.CHOScore>
0.0000

> <Gold.PLP.Chemscore.Metal>
0.0000

> <Gold.Chemscore.Hbonds>
donor molecule, donor type, donor heavy atom, donor atom, acceptor molecule, acceptor atom, score
      L1  H     8    22       P1  1729  0.20

> <Gold.PLP.Chemscore.Internal.Correction>
   9.000000E+99

