#       Name:                GA Fitting Points
#       Creating user name   hitesit
#       Creation time:       Sun Apr 16 02:21:56 2023


#       Fitting Points Used by GA Software.
#

@<TRIPOS>MOLECULE
GA Fitting Points
  3283    0    0
SMALL
NO_CHARGES


@<TRIPOS>ATOM
      1 ****        21.0000  25.2500  11.0000 Du        
      2 ****        21.0000  25.2500  11.2500 Du        
      3 ****        21.0000  25.2500  11.5000 Du        
      4 ****        21.0000  25.2500  11.7500 Du        
      5 ****        21.0000  25.5000  10.7500 Du        
      6 ****        21.0000  25.5000  11.0000 Du        
      7 ****        21.0000  25.5000  11.2500 Du        
      8 ****        21.0000  25.5000  11.5000 Du        
      9 ****        21.2500  25.2500  11.0000 Du        
     10 ****        21.2500  25.2500  11.2500 Du        
     11 ****        21.2500  25.2500  11.5000 Du        
     12 ****        21.2500  25.2500  11.7500 Du        
     13 ****        21.2500  25.5000  10.7500 Du        
     14 ****        21.2500  25.5000  11.0000 Du        
     15 ****        21.2500  25.5000  11.2500 Du        
     16 ****        21.2500  25.5000  11.5000 Du        
     17 ****        21.5000  25.0000  11.7500 Du        
     18 ****        21.5000  25.2500  10.7500 Du        
     19 ****        21.5000  25.2500  11.0000 Du        
     20 ****        21.5000  25.2500  11.2500 Du        
     21 ****        21.5000  25.2500  11.5000 Du        
     22 ****        21.5000  25.2500  11.7500 Du        
     23 ****        21.7500  25.0000  11.7500 Du        
     24 ****        21.7500  25.2500  10.5000 Du        
     25 ****        21.7500  25.2500  10.7500 Du        
     26 ****        21.7500  25.2500  11.0000 Du        
     27 ****        21.7500  25.2500  11.2500 Du        
     28 ****        21.7500  25.2500  11.5000 Du        
     29 ****        21.7500  25.2500  11.7500 Du        
     30 ****        21.7500  25.2500  12.0000 Du        
     31 ****        21.7500  25.5000  10.7500 Du        
     32 ****        21.7500  25.5000  11.0000 Du        
     33 ****        22.0000  25.0000  10.7500 Du        
     34 ****        22.0000  25.0000  11.0000 Du        
     35 ****        22.0000  25.2500  10.5000 Du        
     36 ****        22.0000  25.2500  10.7500 Du        
     37 ****        22.0000  25.2500  11.0000 Du        
     38 ****        22.0000  25.2500  11.2500 Du        
     39 ****        22.0000  25.2500  12.0000 Du        
     40 ****        22.0000  25.5000  10.7500 Du        
     41 ****        22.0000  25.5000  11.0000 Du        
     42 ****        22.2500  25.0000  10.7500 Du        
     43 ****        22.2500  25.0000  11.0000 Du        
     44 ****        22.2500  25.0000  11.2500 Du        
     45 ****        22.2500  25.2500  10.7500 Du        
     46 ****        22.2500  25.2500  11.0000 Du        
     47 ****        22.2500  25.2500  11.2500 Du        
     48 ****        22.5000  25.0000  10.5000 Du        
     49 ****        22.5000  25.0000  10.7500 Du        
     50 ****        22.5000  25.0000  11.0000 Du        
     51 ****        22.5000  25.2500  10.7500 Du        
     52 ****        22.5000  25.2500  11.0000 Du        
     53 ****        22.7500  24.7500  10.7500 Du        
     54 ****        22.7500  24.7500  11.0000 Du        
     55 ****        22.7500  25.0000  10.7500 Du        
     56 ****        22.7500  25.0000  11.0000 Du        
     57 ****        23.0000  24.7500  11.0000 Du        
     58 ****        23.2500  24.2500  10.2500 Du        
     59 ****        23.5000  23.7500  10.0000 Du        
     60 ****        23.5000  24.0000  10.2500 Du        
     61 ****        23.5000  24.2500  10.7500 Du        
     62 ****        23.7500  22.7500   9.5000 Du        
     63 ****        23.7500  22.7500   9.7500 Du        
     64 ****        23.7500  23.0000   9.5000 Du        
     65 ****        23.7500  23.0000   9.7500 Du        
     66 ****        23.7500  23.0000  10.0000 Du        
     67 ****        23.7500  23.2500   9.5000 Du        
     68 ****        23.7500  23.2500   9.7500 Du        
     69 ****        23.7500  23.2500  10.0000 Du        
     70 ****        23.7500  23.2500  10.2500 Du        
     71 ****        23.7500  23.5000   9.7500 Du        
     72 ****        23.7500  23.5000  10.0000 Du        
     73 ****        23.7500  23.5000  10.2500 Du        
     74 ****        23.7500  23.7500   9.7500 Du        
     75 ****        23.7500  23.7500  10.0000 Du        
     76 ****        23.7500  23.7500  10.2500 Du        
     77 ****        23.7500  23.7500  10.5000 Du        
     78 ****        23.7500  24.0000  10.0000 Du        
     79 ****        23.7500  24.0000  10.2500 Du        
     80 ****        23.7500  24.0000  10.5000 Du        
     81 ****        23.7500  24.0000  10.7500 Du        
     82 ****        23.7500  24.0000  11.0000 Du        
     83 ****        23.7500  24.2500  11.0000 Du        
     84 ****        23.7500  25.0000  -6.0000 Du        
     85 ****        24.0000  22.7500   9.5000 Du        
     86 ****        24.0000  22.7500   9.7500 Du        
     87 ****        24.0000  22.7500  10.0000 Du        
     88 ****        24.0000  22.7500  10.2500 Du        
     89 ****        24.0000  23.0000   9.5000 Du        
     90 ****        24.0000  23.0000   9.7500 Du        
     91 ****        24.0000  23.0000  10.0000 Du        
     92 ****        24.0000  23.0000  10.2500 Du        
     93 ****        24.0000  23.2500   9.5000 Du        
     94 ****        24.0000  23.2500   9.7500 Du        
     95 ****        24.0000  23.2500  10.0000 Du        
     96 ****        24.0000  23.2500  10.2500 Du        
     97 ****        24.0000  23.2500  10.5000 Du        
     98 ****        24.0000  23.2500  10.7500 Du        
     99 ****        24.0000  23.5000   9.5000 Du        
    100 ****        24.0000  23.5000   9.7500 Du        
    101 ****        24.0000  23.5000  10.0000 Du        
    102 ****        24.0000  23.5000  10.2500 Du        
    103 ****        24.0000  23.5000  10.5000 Du        
    104 ****        24.0000  23.5000  10.7500 Du        
    105 ****        24.0000  23.5000  11.0000 Du        
    106 ****        24.0000  23.7500   9.7500 Du        
    107 ****        24.0000  23.7500  10.0000 Du        
    108 ****        24.0000  23.7500  10.2500 Du        
    109 ****        24.0000  23.7500  10.5000 Du        
    110 ****        24.0000  23.7500  10.7500 Du        
    111 ****        24.0000  23.7500  11.0000 Du        
    112 ****        24.0000  23.7500  11.2500 Du        
    113 ****        24.0000  24.0000  -6.5000 Du        
    114 ****        24.0000  24.0000  -6.2500 Du        
    115 ****        24.0000  24.0000  10.7500 Du        
    116 ****        24.0000  24.0000  11.0000 Du        
    117 ****        24.0000  24.0000  11.2500 Du        
    118 ****        24.0000  24.2500  -6.5000 Du        
    119 ****        24.0000  24.2500  -6.2500 Du        
    120 ****        24.0000  24.2500  -6.0000 Du        
    121 ****        24.0000  24.5000  -6.5000 Du        
    122 ****        24.0000  24.5000  -6.2500 Du        
    123 ****        24.0000  24.5000  -6.0000 Du        
    124 ****        24.0000  24.7500  -6.0000 Du        
    125 ****        24.0000  25.0000  -6.0000 Du        
    126 ****        24.0000  25.0000  -5.7500 Du        
    127 ****        24.2500  22.7500   9.7500 Du        
    128 ****        24.2500  22.7500  10.0000 Du        
    129 ****        24.2500  22.7500  10.2500 Du        
    130 ****        24.2500  22.7500  10.5000 Du        
    131 ****        24.2500  22.7500  10.7500 Du        
    132 ****        24.2500  23.0000   9.5000 Du        
    133 ****        24.2500  23.0000   9.7500 Du        
    134 ****        24.2500  23.0000  10.0000 Du        
    135 ****        24.2500  23.0000  10.2500 Du        
    136 ****        24.2500  23.0000  10.5000 Du        
    137 ****        24.2500  23.0000  10.7500 Du        
    138 ****        24.2500  23.0000  11.0000 Du        
    139 ****        24.2500  23.0000  11.2500 Du        
    140 ****        24.2500  23.0000  12.0000 Du        
    141 ****        24.2500  23.0000  12.2500 Du        
    142 ****        24.2500  23.2500   9.5000 Du        
    143 ****        24.2500  23.2500   9.7500 Du        
    144 ****        24.2500  23.2500  10.0000 Du        
    145 ****        24.2500  23.2500  10.2500 Du        
    146 ****        24.2500  23.2500  10.5000 Du        
    147 ****        24.2500  23.2500  10.7500 Du        
    148 ****        24.2500  23.2500  11.0000 Du        
    149 ****        24.2500  23.2500  11.2500 Du        
    150 ****        24.2500  23.2500  11.7500 Du        
    151 ****        24.2500  23.2500  12.0000 Du        
    152 ****        24.2500  23.2500  12.2500 Du        
    153 ****        24.2500  23.5000   9.5000 Du        
    154 ****        24.2500  23.5000   9.7500 Du        
    155 ****        24.2500  23.5000  10.0000 Du        
    156 ****        24.2500  23.5000  10.2500 Du        
    157 ****        24.2500  23.5000  10.5000 Du        
    158 ****        24.2500  23.5000  10.7500 Du        
    159 ****        24.2500  23.5000  11.0000 Du        
    160 ****        24.2500  23.5000  11.2500 Du        
    161 ****        24.2500  23.5000  11.7500 Du        
    162 ****        24.2500  23.7500  -6.2500 Du        
    163 ****        24.2500  23.7500   9.7500 Du        
    164 ****        24.2500  23.7500  10.0000 Du        
    165 ****        24.2500  23.7500  10.2500 Du        
    166 ****        24.2500  23.7500  10.5000 Du        
    167 ****        24.2500  23.7500  10.7500 Du        
    168 ****        24.2500  23.7500  11.0000 Du        
    169 ****        24.2500  23.7500  11.2500 Du        
    170 ****        24.2500  23.7500  11.5000 Du        
    171 ****        24.2500  23.7500  11.7500 Du        
    172 ****        24.2500  24.0000  -6.5000 Du        
    173 ****        24.2500  24.0000  -6.2500 Du        
    174 ****        24.2500  24.0000  -6.0000 Du        
    175 ****        24.2500  24.0000  10.7500 Du        
    176 ****        24.2500  24.0000  11.0000 Du        
    177 ****        24.2500  24.0000  11.2500 Du        
    178 ****        24.2500  24.2500  -6.5000 Du        
    179 ****        24.2500  24.2500  -6.2500 Du        
    180 ****        24.2500  24.2500  -6.0000 Du        
    181 ****        24.2500  24.5000  -6.5000 Du        
    182 ****        24.2500  24.5000  -6.2500 Du        
    183 ****        24.2500  24.5000  -6.0000 Du        
    184 ****        24.2500  24.7500  -6.0000 Du        
    185 ****        24.2500  24.7500  -5.7500 Du        
    186 ****        24.2500  25.0000  -6.0000 Du        
    187 ****        24.2500  25.0000  -5.7500 Du        
    188 ****        24.2500  25.2500  -5.5000 Du        
    189 ****        24.5000  22.2500  12.7500 Du        
    190 ****        24.5000  22.5000  12.0000 Du        
    191 ****        24.5000  22.5000  12.2500 Du        
    192 ****        24.5000  22.5000  12.7500 Du        
    193 ****        24.5000  22.7500   9.7500 Du        
    194 ****        24.5000  22.7500  10.0000 Du        
    195 ****        24.5000  22.7500  10.2500 Du        
    196 ****        24.5000  22.7500  10.5000 Du        
    197 ****        24.5000  22.7500  10.7500 Du        
    198 ****        24.5000  22.7500  11.0000 Du        
    199 ****        24.5000  22.7500  11.2500 Du        
    200 ****        24.5000  22.7500  11.5000 Du        
    201 ****        24.5000  22.7500  11.7500 Du        
    202 ****        24.5000  22.7500  12.0000 Du        
    203 ****        24.5000  22.7500  12.2500 Du        
    204 ****        24.5000  22.7500  12.5000 Du        
    205 ****        24.5000  22.7500  12.7500 Du        
    206 ****        24.5000  23.0000   9.7500 Du        
    207 ****        24.5000  23.0000  10.0000 Du        
    208 ****        24.5000  23.0000  10.2500 Du        
    209 ****        24.5000  23.0000  10.5000 Du        
    210 ****        24.5000  23.0000  10.7500 Du        
    211 ****        24.5000  23.0000  11.0000 Du        
    212 ****        24.5000  23.0000  11.2500 Du        
    213 ****        24.5000  23.0000  11.5000 Du        
    214 ****        24.5000  23.0000  11.7500 Du        
    215 ****        24.5000  23.0000  12.0000 Du        
    216 ****        24.5000  23.0000  12.2500 Du        
    217 ****        24.5000  23.0000  12.5000 Du        
    218 ****        24.5000  23.0000  12.7500 Du        
    219 ****        24.5000  23.2500   9.5000 Du        
    220 ****        24.5000  23.2500   9.7500 Du        
    221 ****        24.5000  23.2500  10.0000 Du        
    222 ****        24.5000  23.2500  10.2500 Du        
    223 ****        24.5000  23.2500  10.5000 Du        
    224 ****        24.5000  23.2500  10.7500 Du        
    225 ****        24.5000  23.2500  11.0000 Du        
    226 ****        24.5000  23.2500  11.2500 Du        
    227 ****        24.5000  23.2500  11.5000 Du        
    228 ****        24.5000  23.2500  11.7500 Du        
    229 ****        24.5000  23.2500  12.0000 Du        
    230 ****        24.5000  23.2500  12.2500 Du        
    231 ****        24.5000  23.5000   9.5000 Du        
    232 ****        24.5000  23.5000   9.7500 Du        
    233 ****        24.5000  23.5000  10.0000 Du        
    234 ****        24.5000  23.5000  10.2500 Du        
    235 ****        24.5000  23.5000  10.5000 Du        
    236 ****        24.5000  23.5000  10.7500 Du        
    237 ****        24.5000  23.5000  11.0000 Du        
    238 ****        24.5000  23.5000  11.2500 Du        
    239 ****        24.5000  23.5000  11.5000 Du        
    240 ****        24.5000  23.5000  11.7500 Du        
    241 ****        24.5000  23.5000  12.0000 Du        
    242 ****        24.5000  23.7500  -6.2500 Du        
    243 ****        24.5000  23.7500  -6.0000 Du        
    244 ****        24.5000  23.7500  10.0000 Du        
    245 ****        24.5000  23.7500  10.2500 Du        
    246 ****        24.5000  23.7500  10.5000 Du        
    247 ****        24.5000  23.7500  10.7500 Du        
    248 ****        24.5000  23.7500  11.0000 Du        
    249 ****        24.5000  23.7500  11.2500 Du        
    250 ****        24.5000  23.7500  11.5000 Du        
    251 ****        24.5000  23.7500  11.7500 Du        
    252 ****        24.5000  23.7500  12.0000 Du        
    253 ****        24.5000  24.0000  -6.5000 Du        
    254 ****        24.5000  24.0000  -6.2500 Du        
    255 ****        24.5000  24.0000  -6.0000 Du        
    256 ****        24.5000  24.0000  -5.7500 Du        
    257 ****        24.5000  24.2500  -6.5000 Du        
    258 ****        24.5000  24.2500  -6.2500 Du        
    259 ****        24.5000  24.2500  -6.0000 Du        
    260 ****        24.5000  24.2500  -5.7500 Du        
    261 ****        24.5000  24.5000  -6.5000 Du        
    262 ****        24.5000  24.5000  -6.2500 Du        
    263 ****        24.5000  24.5000  -6.0000 Du        
    264 ****        24.5000  24.5000  -5.7500 Du        
    265 ****        24.5000  24.7500  -6.0000 Du        
    266 ****        24.5000  24.7500  -5.7500 Du        
    267 ****        24.5000  25.0000  -6.0000 Du        
    268 ****        24.5000  25.0000  -5.7500 Du        
    269 ****        24.5000  25.0000  -5.5000 Du        
    270 ****        24.5000  25.2500  -6.0000 Du        
    271 ****        24.5000  25.2500  -5.7500 Du        
    272 ****        24.7500  22.2500  12.0000 Du        
    273 ****        24.7500  22.2500  12.2500 Du        
    274 ****        24.7500  22.2500  12.5000 Du        
    275 ****        24.7500  22.2500  12.7500 Du        
    276 ****        24.7500  22.5000  11.7500 Du        
    277 ****        24.7500  22.5000  12.0000 Du        
    278 ****        24.7500  22.5000  12.2500 Du        
    279 ****        24.7500  22.5000  12.5000 Du        
    280 ****        24.7500  22.5000  12.7500 Du        
    281 ****        24.7500  22.7500  10.0000 Du        
    282 ****        24.7500  22.7500  10.2500 Du        
    283 ****        24.7500  22.7500  10.5000 Du        
    284 ****        24.7500  22.7500  10.7500 Du        
    285 ****        24.7500  22.7500  11.0000 Du        
    286 ****        24.7500  22.7500  11.2500 Du        
    287 ****        24.7500  22.7500  11.5000 Du        
    288 ****        24.7500  22.7500  11.7500 Du        
    289 ****        24.7500  22.7500  12.0000 Du        
    290 ****        24.7500  22.7500  12.2500 Du        
    291 ****        24.7500  22.7500  12.5000 Du        
    292 ****        24.7500  22.7500  12.7500 Du        
    293 ****        24.7500  23.0000   9.7500 Du        
    294 ****        24.7500  23.0000  10.0000 Du        
    295 ****        24.7500  23.0000  10.2500 Du        
    296 ****        24.7500  23.0000  10.5000 Du        
    297 ****        24.7500  23.0000  10.7500 Du        
    298 ****        24.7500  23.0000  11.0000 Du        
    299 ****        24.7500  23.0000  11.2500 Du        
    300 ****        24.7500  23.0000  11.5000 Du        
    301 ****        24.7500  23.0000  11.7500 Du        
    302 ****        24.7500  23.0000  12.0000 Du        
    303 ****        24.7500  23.0000  12.2500 Du        
    304 ****        24.7500  23.0000  12.5000 Du        
    305 ****        24.7500  23.0000  12.7500 Du        
    306 ****        24.7500  23.2500  -6.0000 Du        
    307 ****        24.7500  23.2500  -5.7500 Du        
    308 ****        24.7500  23.2500   9.5000 Du        
    309 ****        24.7500  23.2500   9.7500 Du        
    310 ****        24.7500  23.2500  10.0000 Du        
    311 ****        24.7500  23.2500  10.2500 Du        
    312 ****        24.7500  23.2500  10.5000 Du        
    313 ****        24.7500  23.2500  10.7500 Du        
    314 ****        24.7500  23.2500  11.0000 Du        
    315 ****        24.7500  23.2500  11.2500 Du        
    316 ****        24.7500  23.2500  11.5000 Du        
    317 ****        24.7500  23.2500  11.7500 Du        
    318 ****        24.7500  23.2500  12.0000 Du        
    319 ****        24.7500  23.2500  12.2500 Du        
    320 ****        24.7500  23.2500  12.5000 Du        
    321 ****        24.7500  23.2500  12.7500 Du        
    322 ****        24.7500  23.5000  -6.2500 Du        
    323 ****        24.7500  23.5000  -6.0000 Du        
    324 ****        24.7500  23.5000  -5.7500 Du        
    325 ****        24.7500  23.5000   9.5000 Du        
    326 ****        24.7500  23.5000   9.7500 Du        
    327 ****        24.7500  23.5000  10.0000 Du        
    328 ****        24.7500  23.5000  10.2500 Du        
    329 ****        24.7500  23.5000  10.5000 Du        
    330 ****        24.7500  23.5000  10.7500 Du        
    331 ****        24.7500  23.5000  11.0000 Du        
    332 ****        24.7500  23.5000  11.2500 Du        
    333 ****        24.7500  23.5000  11.5000 Du        
    334 ****        24.7500  23.5000  11.7500 Du        
    335 ****        24.7500  23.5000  12.0000 Du        
    336 ****        24.7500  23.5000  12.2500 Du        
    337 ****        24.7500  23.7500  -6.5000 Du        
    338 ****        24.7500  23.7500  -6.2500 Du        
    339 ****        24.7500  23.7500  -6.0000 Du        
    340 ****        24.7500  23.7500  -5.7500 Du        
    341 ****        24.7500  23.7500  10.2500 Du        
    342 ****        24.7500  23.7500  10.5000 Du        
    343 ****        24.7500  23.7500  10.7500 Du        
    344 ****        24.7500  23.7500  11.0000 Du        
    345 ****        24.7500  23.7500  11.2500 Du        
    346 ****        24.7500  23.7500  11.5000 Du        
    347 ****        24.7500  23.7500  11.7500 Du        
    348 ****        24.7500  23.7500  12.0000 Du        
    349 ****        24.7500  23.7500  12.2500 Du        
    350 ****        24.7500  24.0000  -6.5000 Du        
    351 ****        24.7500  24.0000  -6.2500 Du        
    352 ****        24.7500  24.0000  -6.0000 Du        
    353 ****        24.7500  24.0000  -5.7500 Du        
    354 ****        24.7500  24.2500  -6.5000 Du        
    355 ****        24.7500  24.2500  -6.2500 Du        
    356 ****        24.7500  24.2500  -6.0000 Du        
    357 ****        24.7500  24.2500  -5.7500 Du        
    358 ****        24.7500  24.5000  -6.5000 Du        
    359 ****        24.7500  24.5000  -6.2500 Du        
    360 ****        24.7500  24.5000  -6.0000 Du        
    361 ****        24.7500  24.5000  -5.7500 Du        
    362 ****        24.7500  24.7500  -6.0000 Du        
    363 ****        24.7500  24.7500  -5.7500 Du        
    364 ****        24.7500  25.0000  -6.0000 Du        
    365 ****        24.7500  25.0000  -5.7500 Du        
    366 ****        24.7500  25.2500  -6.0000 Du        
    367 ****        24.7500  25.2500  -5.7500 Du        
    368 ****        25.0000  22.0000  12.5000 Du        
    369 ****        25.0000  22.0000  12.7500 Du        
    370 ****        25.0000  22.2500  12.0000 Du        
    371 ****        25.0000  22.2500  12.2500 Du        
    372 ****        25.0000  22.2500  12.5000 Du        
    373 ****        25.0000  22.2500  12.7500 Du        
    374 ****        25.0000  22.5000  11.7500 Du        
    375 ****        25.0000  22.5000  12.0000 Du        
    376 ****        25.0000  22.5000  12.2500 Du        
    377 ****        25.0000  22.5000  12.5000 Du        
    378 ****        25.0000  22.5000  12.7500 Du        
    379 ****        25.0000  22.7500  -5.7500 Du        
    380 ****        25.0000  22.7500  10.7500 Du        
    381 ****        25.0000  22.7500  11.0000 Du        
    382 ****        25.0000  22.7500  11.2500 Du        
    383 ****        25.0000  22.7500  11.5000 Du        
    384 ****        25.0000  22.7500  11.7500 Du        
    385 ****        25.0000  22.7500  12.0000 Du        
    386 ****        25.0000  22.7500  12.2500 Du        
    387 ****        25.0000  22.7500  12.5000 Du        
    388 ****        25.0000  22.7500  12.7500 Du        
    389 ****        25.0000  23.0000  -6.0000 Du        
    390 ****        25.0000  23.0000  -5.7500 Du        
    391 ****        25.0000  23.0000   9.7500 Du        
    392 ****        25.0000  23.0000  10.0000 Du        
    393 ****        25.0000  23.0000  10.2500 Du        
    394 ****        25.0000  23.0000  10.5000 Du        
    395 ****        25.0000  23.0000  10.7500 Du        
    396 ****        25.0000  23.0000  11.0000 Du        
    397 ****        25.0000  23.0000  11.2500 Du        
    398 ****        25.0000  23.0000  11.5000 Du        
    399 ****        25.0000  23.0000  11.7500 Du        
    400 ****        25.0000  23.0000  12.0000 Du        
    401 ****        25.0000  23.0000  12.2500 Du        
    402 ****        25.0000  23.0000  12.5000 Du        
    403 ****        25.0000  23.0000  12.7500 Du        
    404 ****        25.0000  23.2500  -6.2500 Du        
    405 ****        25.0000  23.2500  -6.0000 Du        
    406 ****        25.0000  23.2500  -5.7500 Du        
    407 ****        25.0000  23.2500   9.7500 Du        
    408 ****        25.0000  23.2500  10.0000 Du        
    409 ****        25.0000  23.2500  10.2500 Du        
    410 ****        25.0000  23.2500  10.5000 Du        
    411 ****        25.0000  23.2500  10.7500 Du        
    412 ****        25.0000  23.2500  11.0000 Du        
    413 ****        25.0000  23.2500  11.2500 Du        
    414 ****        25.0000  23.2500  11.5000 Du        
    415 ****        25.0000  23.2500  11.7500 Du        
    416 ****        25.0000  23.2500  12.0000 Du        
    417 ****        25.0000  23.2500  12.2500 Du        
    418 ****        25.0000  23.2500  12.5000 Du        
    419 ****        25.0000  23.2500  12.7500 Du        
    420 ****        25.0000  23.5000  -6.5000 Du        
    421 ****        25.0000  23.5000  -6.2500 Du        
    422 ****        25.0000  23.5000  -6.0000 Du        
    423 ****        25.0000  23.5000  -5.7500 Du        
    424 ****        25.0000  23.5000   9.7500 Du        
    425 ****        25.0000  23.5000  10.0000 Du        
    426 ****        25.0000  23.5000  10.2500 Du        
    427 ****        25.0000  23.5000  10.5000 Du        
    428 ****        25.0000  23.5000  10.7500 Du        
    429 ****        25.0000  23.5000  11.0000 Du        
    430 ****        25.0000  23.5000  11.2500 Du        
    431 ****        25.0000  23.5000  11.5000 Du        
    432 ****        25.0000  23.5000  11.7500 Du        
    433 ****        25.0000  23.5000  12.0000 Du        
    434 ****        25.0000  23.5000  12.2500 Du        
    435 ****        25.0000  23.7500  -6.7500 Du        
    436 ****        25.0000  23.7500  -6.5000 Du        
    437 ****        25.0000  23.7500  -6.2500 Du        
    438 ****        25.0000  23.7500  -6.0000 Du        
    439 ****        25.0000  23.7500  -5.7500 Du        
    440 ****        25.0000  23.7500  10.2500 Du        
    441 ****        25.0000  23.7500  10.7500 Du        
    442 ****        25.0000  23.7500  11.0000 Du        
    443 ****        25.0000  23.7500  11.2500 Du        
    444 ****        25.0000  23.7500  11.5000 Du        
    445 ****        25.0000  23.7500  11.7500 Du        
    446 ****        25.0000  23.7500  12.0000 Du        
    447 ****        25.0000  24.0000  -7.0000 Du        
    448 ****        25.0000  24.0000  -6.7500 Du        
    449 ****        25.0000  24.0000  -6.5000 Du        
    450 ****        25.0000  24.0000  -6.2500 Du        
    451 ****        25.0000  24.0000  -6.0000 Du        
    452 ****        25.0000  24.0000  -5.7500 Du        
    453 ****        25.0000  24.2500  -6.5000 Du        
    454 ****        25.0000  24.2500  -6.2500 Du        
    455 ****        25.0000  24.2500  -6.0000 Du        
    456 ****        25.0000  24.2500  -5.7500 Du        
    457 ****        25.0000  24.5000  -6.5000 Du        
    458 ****        25.0000  24.5000  -6.2500 Du        
    459 ****        25.0000  24.5000  -6.0000 Du        
    460 ****        25.0000  24.5000  -5.7500 Du        
    461 ****        25.0000  24.7500  -6.5000 Du        
    462 ****        25.0000  24.7500  -6.2500 Du        
    463 ****        25.0000  24.7500  -6.0000 Du        
    464 ****        25.0000  24.7500  -5.7500 Du        
    465 ****        25.0000  25.0000  -6.5000 Du        
    466 ****        25.0000  25.0000  -6.2500 Du        
    467 ****        25.0000  25.0000  -6.0000 Du        
    468 ****        25.0000  25.0000  -5.7500 Du        
    469 ****        25.0000  25.2500  -6.0000 Du        
    470 ****        25.2500  22.0000  12.5000 Du        
    471 ****        25.2500  22.0000  12.7500 Du        
    472 ****        25.2500  22.2500  12.0000 Du        
    473 ****        25.2500  22.2500  12.2500 Du        
    474 ****        25.2500  22.2500  12.5000 Du        
    475 ****        25.2500  22.2500  12.7500 Du        
    476 ****        25.2500  22.5000  11.7500 Du        
    477 ****        25.2500  22.5000  12.0000 Du        
    478 ****        25.2500  22.5000  12.2500 Du        
    479 ****        25.2500  22.5000  12.5000 Du        
    480 ****        25.2500  22.5000  12.7500 Du        
    481 ****        25.2500  22.7500  -6.0000 Du        
    482 ****        25.2500  22.7500  -5.7500 Du        
    483 ****        25.2500  22.7500  11.0000 Du        
    484 ****        25.2500  22.7500  11.2500 Du        
    485 ****        25.2500  22.7500  11.5000 Du        
    486 ****        25.2500  22.7500  11.7500 Du        
    487 ****        25.2500  22.7500  12.0000 Du        
    488 ****        25.2500  22.7500  12.2500 Du        
    489 ****        25.2500  22.7500  12.5000 Du        
    490 ****        25.2500  22.7500  12.7500 Du        
    491 ****        25.2500  23.0000  -6.2500 Du        
    492 ****        25.2500  23.0000  -6.0000 Du        
    493 ****        25.2500  23.0000  -5.7500 Du        
    494 ****        25.2500  23.0000  10.0000 Du        
    495 ****        25.2500  23.0000  10.2500 Du        
    496 ****        25.2500  23.0000  10.5000 Du        
    497 ****        25.2500  23.0000  10.7500 Du        
    498 ****        25.2500  23.0000  11.0000 Du        
    499 ****        25.2500  23.0000  11.2500 Du        
    500 ****        25.2500  23.0000  11.5000 Du        
    501 ****        25.2500  23.0000  11.7500 Du        
    502 ****        25.2500  23.0000  12.0000 Du        
    503 ****        25.2500  23.0000  12.2500 Du        
    504 ****        25.2500  23.0000  12.5000 Du        
    505 ****        25.2500  23.0000  12.7500 Du        
    506 ****        25.2500  23.2500  -6.5000 Du        
    507 ****        25.2500  23.2500  -6.2500 Du        
    508 ****        25.2500  23.2500  -6.0000 Du        
    509 ****        25.2500  23.2500  -5.7500 Du        
    510 ****        25.2500  23.2500   9.7500 Du        
    511 ****        25.2500  23.2500  10.0000 Du        
    512 ****        25.2500  23.2500  10.2500 Du        
    513 ****        25.2500  23.2500  10.5000 Du        
    514 ****        25.2500  23.2500  10.7500 Du        
    515 ****        25.2500  23.2500  11.0000 Du        
    516 ****        25.2500  23.2500  11.2500 Du        
    517 ****        25.2500  23.2500  11.5000 Du        
    518 ****        25.2500  23.2500  11.7500 Du        
    519 ****        25.2500  23.2500  12.0000 Du        
    520 ****        25.2500  23.2500  12.2500 Du        
    521 ****        25.2500  23.2500  12.5000 Du        
    522 ****        25.2500  23.2500  12.7500 Du        
    523 ****        25.2500  23.5000  -6.7500 Du        
    524 ****        25.2500  23.5000  -6.5000 Du        
    525 ****        25.2500  23.5000  -6.2500 Du        
    526 ****        25.2500  23.5000  -6.0000 Du        
    527 ****        25.2500  23.5000  -5.7500 Du        
    528 ****        25.2500  23.5000   9.7500 Du        
    529 ****        25.2500  23.5000  10.0000 Du        
    530 ****        25.2500  23.5000  10.2500 Du        
    531 ****        25.2500  23.5000  10.5000 Du        
    532 ****        25.2500  23.5000  10.7500 Du        
    533 ****        25.2500  23.5000  11.0000 Du        
    534 ****        25.2500  23.5000  11.2500 Du        
    535 ****        25.2500  23.5000  11.5000 Du        
    536 ****        25.2500  23.5000  11.7500 Du        
    537 ****        25.2500  23.5000  12.0000 Du        
    538 ****        25.2500  23.7500  -7.0000 Du        
    539 ****        25.2500  23.7500  -6.7500 Du        
    540 ****        25.2500  23.7500  -6.5000 Du        
    541 ****        25.2500  23.7500  -6.2500 Du        
    542 ****        25.2500  23.7500  -6.0000 Du        
    543 ****        25.2500  23.7500  -5.7500 Du        
    544 ****        25.2500  23.7500  10.2500 Du        
    545 ****        25.2500  23.7500  10.7500 Du        
    546 ****        25.2500  23.7500  11.0000 Du        
    547 ****        25.2500  23.7500  11.2500 Du        
    548 ****        25.2500  23.7500  11.5000 Du        
    549 ****        25.2500  23.7500  11.7500 Du        
    550 ****        25.2500  23.7500  12.0000 Du        
    551 ****        25.2500  24.0000  -7.0000 Du        
    552 ****        25.2500  24.0000  -6.7500 Du        
    553 ****        25.2500  24.0000  -6.5000 Du        
    554 ****        25.2500  24.0000  -6.2500 Du        
    555 ****        25.2500  24.0000  -6.0000 Du        
    556 ****        25.2500  24.0000  -5.7500 Du        
    557 ****        25.2500  24.2500  -6.5000 Du        
    558 ****        25.2500  24.2500  -6.2500 Du        
    559 ****        25.2500  24.2500  -6.0000 Du        
    560 ****        25.2500  24.2500  -5.7500 Du        
    561 ****        25.2500  24.5000  -6.5000 Du        
    562 ****        25.2500  24.5000  -6.2500 Du        
    563 ****        25.2500  24.5000  -6.0000 Du        
    564 ****        25.2500  24.7500  -6.5000 Du        
    565 ****        25.2500  24.7500  -6.2500 Du        
    566 ****        25.2500  24.7500  -6.0000 Du        
    567 ****        25.5000  22.2500  12.2500 Du        
    568 ****        25.5000  22.2500  12.5000 Du        
    569 ****        25.5000  22.2500  12.7500 Du        
    570 ****        25.5000  22.5000  12.0000 Du        
    571 ****        25.5000  22.5000  12.2500 Du        
    572 ****        25.5000  22.5000  12.5000 Du        
    573 ****        25.5000  22.5000  12.7500 Du        
    574 ****        25.5000  22.7500  -6.0000 Du        
    575 ****        25.5000  22.7500  11.0000 Du        
    576 ****        25.5000  22.7500  11.2500 Du        
    577 ****        25.5000  22.7500  11.5000 Du        
    578 ****        25.5000  22.7500  11.7500 Du        
    579 ****        25.5000  22.7500  12.0000 Du        
    580 ****        25.5000  22.7500  12.2500 Du        
    581 ****        25.5000  22.7500  12.5000 Du        
    582 ****        25.5000  22.7500  12.7500 Du        
    583 ****        25.5000  23.0000  -6.2500 Du        
    584 ****        25.5000  23.0000  -6.0000 Du        
    585 ****        25.5000  23.0000  10.0000 Du        
    586 ****        25.5000  23.0000  10.2500 Du        
    587 ****        25.5000  23.0000  10.5000 Du        
    588 ****        25.5000  23.0000  10.7500 Du        
    589 ****        25.5000  23.0000  11.0000 Du        
    590 ****        25.5000  23.0000  11.2500 Du        
    591 ****        25.5000  23.0000  11.5000 Du        
    592 ****        25.5000  23.0000  11.7500 Du        
    593 ****        25.5000  23.0000  12.0000 Du        
    594 ****        25.5000  23.0000  12.2500 Du        
    595 ****        25.5000  23.0000  12.5000 Du        
    596 ****        25.5000  23.0000  12.7500 Du        
    597 ****        25.5000  23.2500  -6.5000 Du        
    598 ****        25.5000  23.2500  -6.2500 Du        
    599 ****        25.5000  23.2500  -6.0000 Du        
    600 ****        25.5000  23.2500   9.7500 Du        
    601 ****        25.5000  23.2500  10.0000 Du        
    602 ****        25.5000  23.2500  10.2500 Du        
    603 ****        25.5000  23.2500  10.5000 Du        
    604 ****        25.5000  23.2500  10.7500 Du        
    605 ****        25.5000  23.2500  11.0000 Du        
    606 ****        25.5000  23.2500  11.2500 Du        
    607 ****        25.5000  23.2500  11.5000 Du        
    608 ****        25.5000  23.2500  11.7500 Du        
    609 ****        25.5000  23.2500  12.0000 Du        
    610 ****        25.5000  23.2500  12.2500 Du        
    611 ****        25.5000  23.2500  12.5000 Du        
    612 ****        25.5000  23.2500  12.7500 Du        
    613 ****        25.5000  23.5000  -6.7500 Du        
    614 ****        25.5000  23.5000  -6.5000 Du        
    615 ****        25.5000  23.5000  -6.2500 Du        
    616 ****        25.5000  23.5000  -6.0000 Du        
    617 ****        25.5000  23.5000   9.7500 Du        
    618 ****        25.5000  23.5000  10.0000 Du        
    619 ****        25.5000  23.5000  10.2500 Du        
    620 ****        25.5000  23.5000  10.5000 Du        
    621 ****        25.5000  23.5000  10.7500 Du        
    622 ****        25.5000  23.5000  11.0000 Du        
    623 ****        25.5000  23.5000  11.2500 Du        
    624 ****        25.5000  23.5000  11.5000 Du        
    625 ****        25.5000  23.5000  11.7500 Du        
    626 ****        25.5000  23.5000  12.0000 Du        
    627 ****        25.5000  23.5000  12.2500 Du        
    628 ****        25.5000  23.7500  -6.7500 Du        
    629 ****        25.5000  23.7500  -6.5000 Du        
    630 ****        25.5000  23.7500  -6.2500 Du        
    631 ****        25.5000  23.7500  -6.0000 Du        
    632 ****        25.5000  23.7500  10.7500 Du        
    633 ****        25.5000  23.7500  11.0000 Du        
    634 ****        25.5000  23.7500  11.2500 Du        
    635 ****        25.5000  23.7500  11.5000 Du        
    636 ****        25.5000  23.7500  11.7500 Du        
    637 ****        25.5000  23.7500  12.0000 Du        
    638 ****        25.5000  24.0000  -6.7500 Du        
    639 ****        25.5000  24.0000  -6.5000 Du        
    640 ****        25.5000  24.0000  -6.2500 Du        
    641 ****        25.5000  24.0000  -6.0000 Du        
    642 ****        25.5000  24.2500  -6.5000 Du        
    643 ****        25.5000  24.2500  -6.2500 Du        
    644 ****        25.5000  24.2500  -6.0000 Du        
    645 ****        25.7500  22.2500  12.2500 Du        
    646 ****        25.7500  22.2500  12.5000 Du        
    647 ****        25.7500  22.5000  12.0000 Du        
    648 ****        25.7500  22.5000  12.2500 Du        
    649 ****        25.7500  22.5000  12.5000 Du        
    650 ****        25.7500  22.7500  11.0000 Du        
    651 ****        25.7500  22.7500  11.2500 Du        
    652 ****        25.7500  22.7500  11.5000 Du        
    653 ****        25.7500  22.7500  11.7500 Du        
    654 ****        25.7500  22.7500  12.0000 Du        
    655 ****        25.7500  22.7500  12.2500 Du        
    656 ****        25.7500  22.7500  12.5000 Du        
    657 ****        25.7500  22.7500  12.7500 Du        
    658 ****        25.7500  23.0000  -6.2500 Du        
    659 ****        25.7500  23.0000  10.0000 Du        
    660 ****        25.7500  23.0000  10.2500 Du        
    661 ****        25.7500  23.0000  10.5000 Du        
    662 ****        25.7500  23.0000  10.7500 Du        
    663 ****        25.7500  23.0000  11.0000 Du        
    664 ****        25.7500  23.0000  11.2500 Du        
    665 ****        25.7500  23.0000  11.5000 Du        
    666 ****        25.7500  23.0000  11.7500 Du        
    667 ****        25.7500  23.0000  12.0000 Du        
    668 ****        25.7500  23.0000  12.2500 Du        
    669 ****        25.7500  23.0000  12.5000 Du        
    670 ****        25.7500  23.0000  12.7500 Du        
    671 ****        25.7500  23.2500  -6.5000 Du        
    672 ****        25.7500  23.2500  -6.2500 Du        
    673 ****        25.7500  23.2500   9.7500 Du        
    674 ****        25.7500  23.2500  10.0000 Du        
    675 ****        25.7500  23.2500  10.2500 Du        
    676 ****        25.7500  23.2500  10.5000 Du        
    677 ****        25.7500  23.2500  10.7500 Du        
    678 ****        25.7500  23.2500  11.0000 Du        
    679 ****        25.7500  23.2500  11.2500 Du        
    680 ****        25.7500  23.2500  11.5000 Du        
    681 ****        25.7500  23.2500  11.7500 Du        
    682 ****        25.7500  23.2500  12.0000 Du        
    683 ****        25.7500  23.2500  12.2500 Du        
    684 ****        25.7500  23.2500  12.5000 Du        
    685 ****        25.7500  23.2500  12.7500 Du        
    686 ****        25.7500  23.5000  -6.7500 Du        
    687 ****        25.7500  23.5000  -6.5000 Du        
    688 ****        25.7500  23.5000  -6.2500 Du        
    689 ****        25.7500  23.5000   9.7500 Du        
    690 ****        25.7500  23.5000  10.0000 Du        
    691 ****        25.7500  23.5000  10.2500 Du        
    692 ****        25.7500  23.5000  10.5000 Du        
    693 ****        25.7500  23.5000  10.7500 Du        
    694 ****        25.7500  23.5000  11.0000 Du        
    695 ****        25.7500  23.5000  11.2500 Du        
    696 ****        25.7500  23.5000  11.5000 Du        
    697 ****        25.7500  23.5000  11.7500 Du        
    698 ****        25.7500  23.5000  12.0000 Du        
    699 ****        25.7500  23.5000  12.2500 Du        
    700 ****        25.7500  23.7500  -6.7500 Du        
    701 ****        25.7500  23.7500  -6.5000 Du        
    702 ****        25.7500  23.7500  -6.2500 Du        
    703 ****        25.7500  23.7500  10.2500 Du        
    704 ****        25.7500  23.7500  10.7500 Du        
    705 ****        25.7500  23.7500  11.0000 Du        
    706 ****        25.7500  23.7500  11.2500 Du        
    707 ****        25.7500  23.7500  11.5000 Du        
    708 ****        25.7500  23.7500  11.7500 Du        
    709 ****        25.7500  23.7500  12.0000 Du        
    710 ****        25.7500  24.0000  -6.7500 Du        
    711 ****        25.7500  24.0000  -6.5000 Du        
    712 ****        25.7500  24.0000  -6.2500 Du        
    713 ****        26.0000  22.5000  12.0000 Du        
    714 ****        26.0000  22.5000  12.2500 Du        
    715 ****        26.0000  22.7500  11.0000 Du        
    716 ****        26.0000  22.7500  11.2500 Du        
    717 ****        26.0000  22.7500  11.5000 Du        
    718 ****        26.0000  22.7500  11.7500 Du        
    719 ****        26.0000  22.7500  12.0000 Du        
    720 ****        26.0000  22.7500  12.2500 Du        
    721 ****        26.0000  22.7500  12.5000 Du        
    722 ****        26.0000  23.0000  10.0000 Du        
    723 ****        26.0000  23.0000  10.2500 Du        
    724 ****        26.0000  23.0000  10.5000 Du        
    725 ****        26.0000  23.0000  10.7500 Du        
    726 ****        26.0000  23.0000  11.0000 Du        
    727 ****        26.0000  23.0000  11.2500 Du        
    728 ****        26.0000  23.0000  11.5000 Du        
    729 ****        26.0000  23.0000  11.7500 Du        
    730 ****        26.0000  23.0000  12.0000 Du        
    731 ****        26.0000  23.0000  12.2500 Du        
    732 ****        26.0000  23.0000  12.5000 Du        
    733 ****        26.0000  23.0000  12.7500 Du        
    734 ****        26.0000  23.2500   9.7500 Du        
    735 ****        26.0000  23.2500  10.0000 Du        
    736 ****        26.0000  23.2500  10.2500 Du        
    737 ****        26.0000  23.2500  10.5000 Du        
    738 ****        26.0000  23.2500  10.7500 Du        
    739 ****        26.0000  23.2500  11.0000 Du        
    740 ****        26.0000  23.2500  11.2500 Du        
    741 ****        26.0000  23.2500  11.5000 Du        
    742 ****        26.0000  23.2500  11.7500 Du        
    743 ****        26.0000  23.2500  12.0000 Du        
    744 ****        26.0000  23.2500  12.2500 Du        
    745 ****        26.0000  23.2500  12.5000 Du        
    746 ****        26.0000  23.5000   9.7500 Du        
    747 ****        26.0000  23.5000  10.0000 Du        
    748 ****        26.0000  23.5000  10.2500 Du        
    749 ****        26.0000  23.5000  10.5000 Du        
    750 ****        26.0000  23.5000  10.7500 Du        
    751 ****        26.0000  23.5000  11.0000 Du        
    752 ****        26.0000  23.5000  11.2500 Du        
    753 ****        26.0000  23.5000  11.5000 Du        
    754 ****        26.0000  23.5000  11.7500 Du        
    755 ****        26.0000  23.5000  12.0000 Du        
    756 ****        26.0000  23.5000  12.2500 Du        
    757 ****        26.0000  23.7500  10.2500 Du        
    758 ****        26.0000  23.7500  10.5000 Du        
    759 ****        26.0000  23.7500  10.7500 Du        
    760 ****        26.0000  23.7500  11.0000 Du        
    761 ****        26.0000  23.7500  11.2500 Du        
    762 ****        26.0000  23.7500  11.5000 Du        
    763 ****        26.0000  23.7500  11.7500 Du        
    764 ****        26.0000  23.7500  12.0000 Du        
    765 ****        26.0000  24.0000  11.2500 Du        
    766 ****        26.2500  22.5000  12.0000 Du        
    767 ****        26.2500  22.5000  12.2500 Du        
    768 ****        26.2500  22.7500  11.0000 Du        
    769 ****        26.2500  22.7500  11.2500 Du        
    770 ****        26.2500  22.7500  11.5000 Du        
    771 ****        26.2500  22.7500  11.7500 Du        
    772 ****        26.2500  22.7500  12.0000 Du        
    773 ****        26.2500  22.7500  12.2500 Du        
    774 ****        26.2500  23.0000  10.0000 Du        
    775 ****        26.2500  23.0000  10.2500 Du        
    776 ****        26.2500  23.0000  10.5000 Du        
    777 ****        26.2500  23.0000  10.7500 Du        
    778 ****        26.2500  23.0000  11.0000 Du        
    779 ****        26.2500  23.0000  11.2500 Du        
    780 ****        26.2500  23.0000  11.5000 Du        
    781 ****        26.2500  23.0000  11.7500 Du        
    782 ****        26.2500  23.0000  12.0000 Du        
    783 ****        26.2500  23.0000  12.2500 Du        
    784 ****        26.2500  23.0000  12.5000 Du        
    785 ****        26.2500  23.2500   9.7500 Du        
    786 ****        26.2500  23.2500  10.0000 Du        
    787 ****        26.2500  23.2500  10.2500 Du        
    788 ****        26.2500  23.2500  10.5000 Du        
    789 ****        26.2500  23.2500  10.7500 Du        
    790 ****        26.2500  23.2500  11.0000 Du        
    791 ****        26.2500  23.2500  11.2500 Du        
    792 ****        26.2500  23.2500  11.5000 Du        
    793 ****        26.2500  23.2500  11.7500 Du        
    794 ****        26.2500  23.2500  12.0000 Du        
    795 ****        26.2500  23.2500  12.2500 Du        
    796 ****        26.2500  23.2500  12.5000 Du        
    797 ****        26.2500  23.5000   9.7500 Du        
    798 ****        26.2500  23.5000  10.0000 Du        
    799 ****        26.2500  23.5000  10.2500 Du        
    800 ****        26.2500  23.5000  10.5000 Du        
    801 ****        26.2500  23.5000  10.7500 Du        
    802 ****        26.2500  23.5000  11.0000 Du        
    803 ****        26.2500  23.5000  11.2500 Du        
    804 ****        26.2500  23.5000  11.5000 Du        
    805 ****        26.2500  23.5000  11.7500 Du        
    806 ****        26.2500  23.5000  12.0000 Du        
    807 ****        26.2500  23.5000  12.2500 Du        
    808 ****        26.2500  23.7500  10.0000 Du        
    809 ****        26.2500  23.7500  10.2500 Du        
    810 ****        26.2500  23.7500  10.5000 Du        
    811 ****        26.2500  23.7500  10.7500 Du        
    812 ****        26.2500  23.7500  11.0000 Du        
    813 ****        26.2500  23.7500  11.2500 Du        
    814 ****        26.2500  23.7500  11.5000 Du        
    815 ****        26.2500  23.7500  11.7500 Du        
    816 ****        26.2500  23.7500  12.0000 Du        
    817 ****        26.2500  24.0000  11.0000 Du        
    818 ****        26.2500  24.0000  11.2500 Du        
    819 ****        26.5000  22.7500  11.2500 Du        
    820 ****        26.5000  22.7500  11.5000 Du        
    821 ****        26.5000  22.7500  11.7500 Du        
    822 ****        26.5000  22.7500  12.0000 Du        
    823 ****        26.5000  22.7500  12.2500 Du        
    824 ****        26.5000  23.0000  10.0000 Du        
    825 ****        26.5000  23.0000  10.2500 Du        
    826 ****        26.5000  23.0000  10.5000 Du        
    827 ****        26.5000  23.0000  10.7500 Du        
    828 ****        26.5000  23.0000  11.0000 Du        
    829 ****        26.5000  23.0000  11.2500 Du        
    830 ****        26.5000  23.0000  11.5000 Du        
    831 ****        26.5000  23.0000  11.7500 Du        
    832 ****        26.5000  23.0000  12.0000 Du        
    833 ****        26.5000  23.0000  12.2500 Du        
    834 ****        26.5000  23.2500   9.7500 Du        
    835 ****        26.5000  23.2500  10.0000 Du        
    836 ****        26.5000  23.2500  10.2500 Du        
    837 ****        26.5000  23.2500  10.5000 Du        
    838 ****        26.5000  23.2500  10.7500 Du        
    839 ****        26.5000  23.2500  11.0000 Du        
    840 ****        26.5000  23.2500  11.2500 Du        
    841 ****        26.5000  23.2500  11.5000 Du        
    842 ****        26.5000  23.2500  11.7500 Du        
    843 ****        26.5000  23.2500  12.0000 Du        
    844 ****        26.5000  23.2500  12.2500 Du        
    845 ****        26.5000  23.5000   9.7500 Du        
    846 ****        26.5000  23.5000  10.0000 Du        
    847 ****        26.5000  23.5000  10.2500 Du        
    848 ****        26.5000  23.5000  10.5000 Du        
    849 ****        26.5000  23.5000  10.7500 Du        
    850 ****        26.5000  23.5000  11.0000 Du        
    851 ****        26.5000  23.5000  11.2500 Du        
    852 ****        26.5000  23.5000  11.5000 Du        
    853 ****        26.5000  23.5000  11.7500 Du        
    854 ****        26.5000  23.5000  12.0000 Du        
    855 ****        26.5000  23.5000  12.2500 Du        
    856 ****        26.5000  23.7500  10.2500 Du        
    857 ****        26.5000  23.7500  10.5000 Du        
    858 ****        26.5000  23.7500  10.7500 Du        
    859 ****        26.5000  23.7500  11.0000 Du        
    860 ****        26.5000  23.7500  11.2500 Du        
    861 ****        26.5000  23.7500  11.5000 Du        
    862 ****        26.5000  23.7500  11.7500 Du        
    863 ****        26.5000  24.0000  11.0000 Du        
    864 ****        26.5000  24.0000  11.2500 Du        
    865 ****        26.7500  22.7500  11.7500 Du        
    866 ****        26.7500  22.7500  12.0000 Du        
    867 ****        26.7500  22.7500  12.2500 Du        
    868 ****        26.7500  23.0000  10.0000 Du        
    869 ****        26.7500  23.0000  10.2500 Du        
    870 ****        26.7500  23.0000  10.5000 Du        
    871 ****        26.7500  23.0000  10.7500 Du        
    872 ****        26.7500  23.0000  11.0000 Du        
    873 ****        26.7500  23.0000  11.2500 Du        
    874 ****        26.7500  23.0000  11.5000 Du        
    875 ****        26.7500  23.0000  11.7500 Du        
    876 ****        26.7500  23.0000  12.0000 Du        
    877 ****        26.7500  23.0000  12.2500 Du        
    878 ****        26.7500  23.2500   9.7500 Du        
    879 ****        26.7500  23.2500  10.0000 Du        
    880 ****        26.7500  23.2500  10.2500 Du        
    881 ****        26.7500  23.2500  10.5000 Du        
    882 ****        26.7500  23.2500  10.7500 Du        
    883 ****        26.7500  23.2500  11.0000 Du        
    884 ****        26.7500  23.2500  11.2500 Du        
    885 ****        26.7500  23.2500  11.5000 Du        
    886 ****        26.7500  23.2500  11.7500 Du        
    887 ****        26.7500  23.2500  12.0000 Du        
    888 ****        26.7500  23.2500  12.2500 Du        
    889 ****        26.7500  23.5000   9.7500 Du        
    890 ****        26.7500  23.5000  10.0000 Du        
    891 ****        26.7500  23.5000  10.2500 Du        
    892 ****        26.7500  23.5000  10.5000 Du        
    893 ****        26.7500  23.5000  10.7500 Du        
    894 ****        26.7500  23.5000  11.0000 Du        
    895 ****        26.7500  23.5000  11.2500 Du        
    896 ****        26.7500  23.5000  11.5000 Du        
    897 ****        26.7500  23.5000  11.7500 Du        
    898 ****        26.7500  23.5000  12.0000 Du        
    899 ****        26.7500  23.5000  12.2500 Du        
    900 ****        26.7500  23.7500  10.0000 Du        
    901 ****        26.7500  23.7500  10.2500 Du        
    902 ****        26.7500  23.7500  10.5000 Du        
    903 ****        26.7500  23.7500  10.7500 Du        
    904 ****        26.7500  23.7500  11.0000 Du        
    905 ****        26.7500  23.7500  11.2500 Du        
    906 ****        26.7500  23.7500  11.5000 Du        
    907 ****        26.7500  23.7500  11.7500 Du        
    908 ****        26.7500  24.0000  10.7500 Du        
    909 ****        26.7500  24.0000  11.0000 Du        
    910 ****        26.7500  24.0000  11.2500 Du        
    911 ****        27.0000  22.7500  12.0000 Du        
    912 ****        27.0000  23.0000  10.0000 Du        
    913 ****        27.0000  23.0000  10.2500 Du        
    914 ****        27.0000  23.0000  10.5000 Du        
    915 ****        27.0000  23.0000  10.7500 Du        
    916 ****        27.0000  23.0000  11.0000 Du        
    917 ****        27.0000  23.0000  11.2500 Du        
    918 ****        27.0000  23.0000  11.5000 Du        
    919 ****        27.0000  23.0000  11.7500 Du        
    920 ****        27.0000  23.0000  12.0000 Du        
    921 ****        27.0000  23.0000  12.2500 Du        
    922 ****        27.0000  23.2500   9.7500 Du        
    923 ****        27.0000  23.2500  10.0000 Du        
    924 ****        27.0000  23.2500  10.2500 Du        
    925 ****        27.0000  23.2500  10.5000 Du        
    926 ****        27.0000  23.2500  10.7500 Du        
    927 ****        27.0000  23.2500  11.0000 Du        
    928 ****        27.0000  23.2500  11.2500 Du        
    929 ****        27.0000  23.2500  11.5000 Du        
    930 ****        27.0000  23.2500  11.7500 Du        
    931 ****        27.0000  23.2500  12.0000 Du        
    932 ****        27.0000  23.2500  12.2500 Du        
    933 ****        27.0000  23.5000   9.7500 Du        
    934 ****        27.0000  23.5000  10.0000 Du        
    935 ****        27.0000  23.5000  10.2500 Du        
    936 ****        27.0000  23.5000  10.5000 Du        
    937 ****        27.0000  23.5000  10.7500 Du        
    938 ****        27.0000  23.5000  11.0000 Du        
    939 ****        27.0000  23.5000  11.2500 Du        
    940 ****        27.0000  23.5000  11.5000 Du        
    941 ****        27.0000  23.5000  11.7500 Du        
    942 ****        27.0000  23.5000  12.0000 Du        
    943 ****        27.0000  23.5000  12.2500 Du        
    944 ****        27.0000  23.7500   9.7500 Du        
    945 ****        27.0000  23.7500  10.0000 Du        
    946 ****        27.0000  23.7500  10.2500 Du        
    947 ****        27.0000  23.7500  10.5000 Du        
    948 ****        27.0000  23.7500  10.7500 Du        
    949 ****        27.0000  23.7500  11.0000 Du        
    950 ****        27.0000  23.7500  11.2500 Du        
    951 ****        27.0000  23.7500  11.5000 Du        
    952 ****        27.0000  23.7500  11.7500 Du        
    953 ****        27.0000  23.7500  12.0000 Du        
    954 ****        27.0000  24.0000  10.2500 Du        
    955 ****        27.0000  24.0000  10.5000 Du        
    956 ****        27.0000  24.0000  10.7500 Du        
    957 ****        27.0000  24.0000  11.0000 Du        
    958 ****        27.0000  24.0000  11.2500 Du        
    959 ****        27.2500  23.0000  11.0000 Du        
    960 ****        27.2500  23.0000  11.2500 Du        
    961 ****        27.2500  23.0000  11.5000 Du        
    962 ****        27.2500  23.0000  11.7500 Du        
    963 ****        27.2500  23.0000  12.0000 Du        
    964 ****        27.2500  23.0000  12.2500 Du        
    965 ****        27.2500  23.2500   9.7500 Du        
    966 ****        27.2500  23.2500  10.0000 Du        
    967 ****        27.2500  23.2500  10.2500 Du        
    968 ****        27.2500  23.2500  10.5000 Du        
    969 ****        27.2500  23.2500  10.7500 Du        
    970 ****        27.2500  23.2500  11.0000 Du        
    971 ****        27.2500  23.2500  11.2500 Du        
    972 ****        27.2500  23.2500  11.5000 Du        
    973 ****        27.2500  23.2500  11.7500 Du        
    974 ****        27.2500  23.2500  12.0000 Du        
    975 ****        27.2500  23.2500  12.2500 Du        
    976 ****        27.2500  23.5000   9.7500 Du        
    977 ****        27.2500  23.5000  10.0000 Du        
    978 ****        27.2500  23.5000  10.2500 Du        
    979 ****        27.2500  23.5000  10.5000 Du        
    980 ****        27.2500  23.5000  10.7500 Du        
    981 ****        27.2500  23.5000  11.0000 Du        
    982 ****        27.2500  23.5000  11.2500 Du        
    983 ****        27.2500  23.5000  11.5000 Du        
    984 ****        27.2500  23.5000  11.7500 Du        
    985 ****        27.2500  23.5000  12.0000 Du        
    986 ****        27.2500  23.5000  12.2500 Du        
    987 ****        27.2500  23.7500   9.7500 Du        
    988 ****        27.2500  23.7500  10.0000 Du        
    989 ****        27.2500  23.7500  10.2500 Du        
    990 ****        27.2500  23.7500  10.5000 Du        
    991 ****        27.2500  23.7500  10.7500 Du        
    992 ****        27.2500  23.7500  11.0000 Du        
    993 ****        27.2500  23.7500  11.2500 Du        
    994 ****        27.2500  23.7500  11.5000 Du        
    995 ****        27.2500  23.7500  11.7500 Du        
    996 ****        27.2500  23.7500  12.0000 Du        
    997 ****        27.2500  24.0000  10.0000 Du        
    998 ****        27.2500  24.0000  10.2500 Du        
    999 ****        27.2500  24.0000  10.5000 Du        
   1000 ****        27.2500  24.0000  10.7500 Du        
   1001 ****        27.2500  24.0000  11.0000 Du        
   1002 ****        27.2500  24.0000  11.2500 Du        
   1003 ****        27.2500  24.2500  11.0000 Du        
   1004 ****        27.2500  24.2500  11.2500 Du        
   1005 ****        27.5000  23.0000  12.0000 Du        
   1006 ****        27.5000  23.2500  10.5000 Du        
   1007 ****        27.5000  23.2500  10.7500 Du        
   1008 ****        27.5000  23.2500  11.0000 Du        
   1009 ****        27.5000  23.2500  11.2500 Du        
   1010 ****        27.5000  23.2500  11.5000 Du        
   1011 ****        27.5000  23.2500  11.7500 Du        
   1012 ****        27.5000  23.2500  12.0000 Du        
   1013 ****        27.5000  23.2500  12.2500 Du        
   1014 ****        27.5000  23.5000  10.0000 Du        
   1015 ****        27.5000  23.5000  10.2500 Du        
   1016 ****        27.5000  23.5000  10.5000 Du        
   1017 ****        27.5000  23.5000  10.7500 Du        
   1018 ****        27.5000  23.5000  11.0000 Du        
   1019 ****        27.5000  23.5000  11.2500 Du        
   1020 ****        27.5000  23.7500  10.0000 Du        
   1021 ****        27.5000  23.7500  10.2500 Du        
   1022 ****        27.5000  23.7500  10.5000 Du        
   1023 ****        27.5000  23.7500  10.7500 Du        
   1024 ****        27.5000  23.7500  11.0000 Du        
   1025 ****        27.5000  23.7500  11.2500 Du        
   1026 ****        27.5000  24.0000  10.0000 Du        
   1027 ****        27.5000  24.0000  10.2500 Du        
   1028 ****        27.5000  24.0000  10.5000 Du        
   1029 ****        27.5000  24.0000  10.7500 Du        
   1030 ****        27.5000  24.0000  11.0000 Du        
   1031 ****        27.5000  24.0000  11.2500 Du        
   1032 ****        27.5000  24.2500  10.2500 Du        
   1033 ****        27.5000  24.2500  10.5000 Du        
   1034 ****        27.5000  24.2500  10.7500 Du        
   1035 ****        27.5000  24.2500  11.0000 Du        
   1036 ****        27.5000  24.2500  11.2500 Du        
   1037 ****        27.7500  23.2500  11.2500 Du        
   1038 ****        27.7500  23.2500  11.7500 Du        
   1039 ****        27.7500  23.2500  12.0000 Du        
   1040 ****        27.7500  23.2500  12.2500 Du        
   1041 ****        27.7500  23.5000  10.2500 Du        
   1042 ****        27.7500  23.5000  10.5000 Du        
   1043 ****        27.7500  23.5000  10.7500 Du        
   1044 ****        27.7500  23.5000  11.0000 Du        
   1045 ****        27.7500  23.5000  11.2500 Du        
   1046 ****        27.7500  23.7500  10.0000 Du        
   1047 ****        27.7500  23.7500  10.2500 Du        
   1048 ****        27.7500  23.7500  10.5000 Du        
   1049 ****        27.7500  23.7500  10.7500 Du        
   1050 ****        27.7500  23.7500  11.0000 Du        
   1051 ****        27.7500  23.7500  11.2500 Du        
   1052 ****        27.7500  24.0000  10.0000 Du        
   1053 ****        27.7500  24.0000  10.2500 Du        
   1054 ****        27.7500  24.0000  10.5000 Du        
   1055 ****        27.7500  24.0000  10.7500 Du        
   1056 ****        27.7500  24.0000  11.0000 Du        
   1057 ****        27.7500  24.0000  11.2500 Du        
   1058 ****        27.7500  24.2500  10.2500 Du        
   1059 ****        27.7500  24.2500  10.5000 Du        
   1060 ****        27.7500  24.2500  10.7500 Du        
   1061 ****        27.7500  24.2500  11.0000 Du        
   1062 ****        27.7500  24.2500  11.2500 Du        
   1063 ****        28.0000  23.2500  12.0000 Du        
   1064 ****        28.0000  23.2500  12.2500 Du        
   1065 ****        28.0000  23.5000  11.2500 Du        
   1066 ****        28.0000  23.7500  10.0000 Du        
   1067 ****        28.0000  23.7500  10.2500 Du        
   1068 ****        28.0000  23.7500  10.5000 Du        
   1069 ****        28.0000  23.7500  10.7500 Du        
   1070 ****        28.0000  23.7500  11.0000 Du        
   1071 ****        28.0000  23.7500  11.2500 Du        
   1072 ****        28.0000  24.0000  10.0000 Du        
   1073 ****        28.0000  24.0000  10.2500 Du        
   1074 ****        28.0000  24.0000  10.5000 Du        
   1075 ****        28.0000  24.0000  10.7500 Du        
   1076 ****        28.0000  24.0000  11.0000 Du        
   1077 ****        28.0000  24.0000  11.2500 Du        
   1078 ****        28.0000  24.2500  10.0000 Du        
   1079 ****        28.0000  24.2500  10.2500 Du        
   1080 ****        28.0000  24.2500  10.5000 Du        
   1081 ****        28.0000  24.2500  10.7500 Du        
   1082 ****        28.0000  24.2500  11.0000 Du        
   1083 ****        28.0000  24.2500  11.2500 Du        
   1084 ****        28.2500  23.7500  10.2500 Du        
   1085 ****        28.2500  23.7500  10.7500 Du        
   1086 ****        28.2500  23.7500  11.0000 Du        
   1087 ****        28.2500  23.7500  11.2500 Du        
   1088 ****        28.2500  24.0000  10.0000 Du        
   1089 ****        28.2500  24.0000  10.2500 Du        
   1090 ****        28.2500  24.0000  10.5000 Du        
   1091 ****        28.2500  24.0000  10.7500 Du        
   1092 ****        28.2500  24.0000  11.0000 Du        
   1093 ****        28.2500  24.0000  11.2500 Du        
   1094 ****        28.2500  24.2500  10.0000 Du        
   1095 ****        28.2500  24.2500  10.2500 Du        
   1096 ****        28.2500  24.2500  10.5000 Du        
   1097 ****        28.2500  24.2500  10.7500 Du        
   1098 ****        28.2500  24.2500  11.0000 Du        
   1099 ****        28.2500  24.5000  10.2500 Du        
   1100 ****        28.5000  23.7500  10.7500 Du        
   1101 ****        28.5000  23.7500  11.0000 Du        
   1102 ****        28.5000  23.7500  11.2500 Du        
   1103 ****        28.5000  24.0000  10.2500 Du        
   1104 ****        28.5000  24.0000  10.5000 Du        
   1105 ****        28.5000  24.0000  10.7500 Du        
   1106 ****        28.5000  24.0000  11.0000 Du        
   1107 ****        28.5000  24.2500  10.0000 Du        
   1108 ****        28.5000  24.2500  10.2500 Du        
   1109 ****        28.5000  24.2500  10.5000 Du        
   1110 ****        28.5000  24.2500  10.7500 Du        
   1111 ****        28.5000  24.5000  10.2500 Du        
   1112 ****        28.7500  23.7500  10.7500 Du        
   1113 ****        28.7500  24.0000  10.5000 Du        
   1114 ****        28.7500  24.0000  10.7500 Du        
   1115 ****        28.7500  24.0000  11.0000 Du        
   1116 ****        28.7500  24.2500  10.2500 Du        
   1117 ****        28.7500  24.2500  10.5000 Du        
   1118 ****        28.7500  24.2500  10.7500 Du        
   1119 ****        28.7500  24.5000  10.2500 Du        
   1120 ****        29.0000  18.7500  -2.7500 Du        
   1121 ****        29.0000  18.7500  -2.5000 Du        
   1122 ****        29.0000  19.0000  -2.7500 Du        
   1123 ****        29.0000  19.0000  -2.5000 Du        
   1124 ****        29.0000  19.0000  -2.2500 Du        
   1125 ****        29.0000  19.2500  -2.7500 Du        
   1126 ****        29.0000  19.2500  -2.5000 Du        
   1127 ****        29.0000  19.2500  -2.2500 Du        
   1128 ****        29.0000  19.5000  -2.5000 Du        
   1129 ****        29.0000  19.5000  -2.2500 Du        
   1130 ****        29.0000  19.7500  -2.2500 Du        
   1131 ****        29.0000  24.0000  10.7500 Du        
   1132 ****        29.0000  24.0000  11.0000 Du        
   1133 ****        29.0000  24.2500  10.2500 Du        
   1134 ****        29.0000  24.2500  10.5000 Du        
   1135 ****        29.0000  24.2500  10.7500 Du        
   1136 ****        29.0000  24.5000  10.2500 Du        
   1137 ****        29.0000  24.7500  10.2500 Du        
   1138 ****        29.2500  15.5000   8.5000 Du        
   1139 ****        29.2500  15.5000   8.7500 Du        
   1140 ****        29.2500  15.5000   9.0000 Du        
   1141 ****        29.2500  18.2500   4.2500 Du        
   1142 ****        29.2500  18.5000   4.0000 Du        
   1143 ****        29.2500  18.5000   4.2500 Du        
   1144 ****        29.2500  18.7500  -2.7500 Du        
   1145 ****        29.2500  18.7500  -2.5000 Du        
   1146 ****        29.2500  18.7500  -2.2500 Du        
   1147 ****        29.2500  18.7500   3.7500 Du        
   1148 ****        29.2500  18.7500   4.0000 Du        
   1149 ****        29.2500  19.0000  -3.0000 Du        
   1150 ****        29.2500  19.0000  -2.7500 Du        
   1151 ****        29.2500  19.0000  -2.5000 Du        
   1152 ****        29.2500  19.0000  -2.2500 Du        
   1153 ****        29.2500  19.0000  -2.0000 Du        
   1154 ****        29.2500  19.2500  -3.0000 Du        
   1155 ****        29.2500  19.2500  -2.7500 Du        
   1156 ****        29.2500  19.2500  -2.5000 Du        
   1157 ****        29.2500  19.2500  -2.2500 Du        
   1158 ****        29.2500  19.2500  -2.0000 Du        
   1159 ****        29.2500  19.5000  -3.0000 Du        
   1160 ****        29.2500  19.5000  -2.7500 Du        
   1161 ****        29.2500  19.5000  -2.5000 Du        
   1162 ****        29.2500  19.5000  -2.2500 Du        
   1163 ****        29.2500  19.5000  -2.0000 Du        
   1164 ****        29.2500  19.5000  -1.7500 Du        
   1165 ****        29.2500  19.7500  -3.0000 Du        
   1166 ****        29.2500  19.7500  -2.7500 Du        
   1167 ****        29.2500  19.7500  -2.5000 Du        
   1168 ****        29.2500  19.7500  -2.2500 Du        
   1169 ****        29.2500  19.7500  -2.0000 Du        
   1170 ****        29.2500  19.7500  -1.7500 Du        
   1171 ****        29.2500  20.0000  -2.7500 Du        
   1172 ****        29.2500  20.0000  -2.5000 Du        
   1173 ****        29.2500  20.0000  -2.2500 Du        
   1174 ****        29.2500  20.0000  -2.0000 Du        
   1175 ****        29.5000  15.5000   8.0000 Du        
   1176 ****        29.5000  15.5000   8.2500 Du        
   1177 ****        29.5000  15.5000   8.5000 Du        
   1178 ****        29.5000  15.5000   8.7500 Du        
   1179 ****        29.5000  15.5000   9.0000 Du        
   1180 ****        29.5000  18.0000   4.2500 Du        
   1181 ****        29.5000  18.0000   4.5000 Du        
   1182 ****        29.5000  18.2500   4.0000 Du        
   1183 ****        29.5000  18.2500   4.2500 Du        
   1184 ****        29.5000  18.2500   4.5000 Du        
   1185 ****        29.5000  18.5000   3.7500 Du        
   1186 ****        29.5000  18.5000   4.0000 Du        
   1187 ****        29.5000  18.5000   4.2500 Du        
   1188 ****        29.5000  18.7500  -2.5000 Du        
   1189 ****        29.5000  18.7500  -2.2500 Du        
   1190 ****        29.5000  18.7500   3.7500 Du        
   1191 ****        29.5000  19.0000  -2.7500 Du        
   1192 ****        29.5000  19.0000  -2.5000 Du        
   1193 ****        29.5000  19.0000  -2.2500 Du        
   1194 ****        29.5000  19.0000  -2.0000 Du        
   1195 ****        29.5000  19.2500  -2.7500 Du        
   1196 ****        29.5000  19.2500  -2.5000 Du        
   1197 ****        29.5000  19.2500  -2.2500 Du        
   1198 ****        29.5000  19.2500  -2.0000 Du        
   1199 ****        29.5000  19.2500  -1.7500 Du        
   1200 ****        29.5000  19.5000  -3.0000 Du        
   1201 ****        29.5000  19.5000  -2.7500 Du        
   1202 ****        29.5000  19.5000  -2.5000 Du        
   1203 ****        29.5000  19.5000  -2.2500 Du        
   1204 ****        29.5000  19.5000  -2.0000 Du        
   1205 ****        29.5000  19.5000  -1.7500 Du        
   1206 ****        29.5000  19.7500  -3.0000 Du        
   1207 ****        29.5000  19.7500  -2.7500 Du        
   1208 ****        29.5000  19.7500  -2.5000 Du        
   1209 ****        29.5000  19.7500  -2.2500 Du        
   1210 ****        29.5000  19.7500  -2.0000 Du        
   1211 ****        29.5000  19.7500  -1.7500 Du        
   1212 ****        29.5000  19.7500  -1.5000 Du        
   1213 ****        29.5000  20.0000  -3.2500 Du        
   1214 ****        29.5000  20.0000  -3.0000 Du        
   1215 ****        29.5000  20.0000  -2.7500 Du        
   1216 ****        29.5000  20.0000  -2.5000 Du        
   1217 ****        29.5000  20.0000  -2.2500 Du        
   1218 ****        29.5000  20.0000  -2.0000 Du        
   1219 ****        29.5000  20.0000  -1.7500 Du        
   1220 ****        29.5000  20.0000  -1.5000 Du        
   1221 ****        29.5000  20.2500  -3.0000 Du        
   1222 ****        29.5000  20.2500  -2.7500 Du        
   1223 ****        29.5000  20.2500  -2.5000 Du        
   1224 ****        29.5000  20.2500  -2.2500 Du        
   1225 ****        29.5000  20.2500  -2.0000 Du        
   1226 ****        29.5000  20.2500  -1.7500 Du        
   1227 ****        29.5000  20.2500  -1.5000 Du        
   1228 ****        29.5000  21.5000   0.0000 Du        
   1229 ****        29.5000  21.7500   0.0000 Du        
   1230 ****        29.7500  15.2500   7.7500 Du        
   1231 ****        29.7500  15.2500   8.0000 Du        
   1232 ****        29.7500  15.2500   8.2500 Du        
   1233 ****        29.7500  15.2500   8.5000 Du        
   1234 ****        29.7500  15.2500   8.7500 Du        
   1235 ****        29.7500  15.2500   9.0000 Du        
   1236 ****        29.7500  15.5000   7.5000 Du        
   1237 ****        29.7500  15.5000   7.7500 Du        
   1238 ****        29.7500  15.5000   8.0000 Du        
   1239 ****        29.7500  15.5000   8.2500 Du        
   1240 ****        29.7500  15.5000   8.5000 Du        
   1241 ****        29.7500  15.5000   8.7500 Du        
   1242 ****        29.7500  15.5000   9.0000 Du        
   1243 ****        29.7500  15.7500   7.5000 Du        
   1244 ****        29.7500  15.7500   7.7500 Du        
   1245 ****        29.7500  15.7500   8.0000 Du        
   1246 ****        29.7500  15.7500   8.2500 Du        
   1247 ****        29.7500  15.7500   8.5000 Du        
   1248 ****        29.7500  17.2500   4.5000 Du        
   1249 ****        29.7500  17.2500   4.7500 Du        
   1250 ****        29.7500  17.2500   5.0000 Du        
   1251 ****        29.7500  17.2500   5.2500 Du        
   1252 ****        29.7500  17.5000   4.5000 Du        
   1253 ****        29.7500  17.5000   4.7500 Du        
   1254 ****        29.7500  17.5000   5.0000 Du        
   1255 ****        29.7500  17.5000   5.2500 Du        
   1256 ****        29.7500  17.7500   4.2500 Du        
   1257 ****        29.7500  17.7500   4.5000 Du        
   1258 ****        29.7500  17.7500   4.7500 Du        
   1259 ****        29.7500  17.7500   5.0000 Du        
   1260 ****        29.7500  18.0000   4.0000 Du        
   1261 ****        29.7500  18.0000   4.2500 Du        
   1262 ****        29.7500  18.0000   4.5000 Du        
   1263 ****        29.7500  18.0000   4.7500 Du        
   1264 ****        29.7500  18.2500   3.7500 Du        
   1265 ****        29.7500  18.2500   4.0000 Du        
   1266 ****        29.7500  18.2500   4.2500 Du        
   1267 ****        29.7500  18.2500   4.5000 Du        
   1268 ****        29.7500  18.5000   3.7500 Du        
   1269 ****        29.7500  18.5000   4.0000 Du        
   1270 ****        29.7500  18.5000   4.2500 Du        
   1271 ****        29.7500  18.7500  -2.5000 Du        
   1272 ****        29.7500  18.7500  -2.2500 Du        
   1273 ****        29.7500  18.7500  -2.0000 Du        
   1274 ****        29.7500  18.7500   3.5000 Du        
   1275 ****        29.7500  18.7500   3.7500 Du        
   1276 ****        29.7500  19.0000  -2.7500 Du        
   1277 ****        29.7500  19.0000  -2.5000 Du        
   1278 ****        29.7500  19.0000  -2.2500 Du        
   1279 ****        29.7500  19.0000  -2.0000 Du        
   1280 ****        29.7500  19.0000  -1.7500 Du        
   1281 ****        29.7500  19.2500  -2.7500 Du        
   1282 ****        29.7500  19.2500  -2.5000 Du        
   1283 ****        29.7500  19.2500  -2.2500 Du        
   1284 ****        29.7500  19.2500  -2.0000 Du        
   1285 ****        29.7500  19.2500  -1.7500 Du        
   1286 ****        29.7500  19.2500  -1.5000 Du        
   1287 ****        29.7500  19.5000  -3.0000 Du        
   1288 ****        29.7500  19.5000  -2.7500 Du        
   1289 ****        29.7500  19.5000  -2.5000 Du        
   1290 ****        29.7500  19.5000  -2.2500 Du        
   1291 ****        29.7500  19.5000  -2.0000 Du        
   1292 ****        29.7500  19.5000  -1.7500 Du        
   1293 ****        29.7500  19.5000  -1.5000 Du        
   1294 ****        29.7500  19.5000  -1.2500 Du        
   1295 ****        29.7500  19.5000  -1.0000 Du        
   1296 ****        29.7500  19.7500  -3.0000 Du        
   1297 ****        29.7500  19.7500  -2.7500 Du        
   1298 ****        29.7500  19.7500  -2.5000 Du        
   1299 ****        29.7500  19.7500  -2.2500 Du        
   1300 ****        29.7500  19.7500  -2.0000 Du        
   1301 ****        29.7500  19.7500  -1.7500 Du        
   1302 ****        29.7500  19.7500  -1.5000 Du        
   1303 ****        29.7500  19.7500  -1.2500 Du        
   1304 ****        29.7500  19.7500  -1.0000 Du        
   1305 ****        29.7500  19.7500  -0.7500 Du        
   1306 ****        29.7500  20.0000  -3.2500 Du        
   1307 ****        29.7500  20.0000  -3.0000 Du        
   1308 ****        29.7500  20.0000  -2.7500 Du        
   1309 ****        29.7500  20.0000  -2.5000 Du        
   1310 ****        29.7500  20.0000  -2.2500 Du        
   1311 ****        29.7500  20.0000  -2.0000 Du        
   1312 ****        29.7500  20.0000  -1.7500 Du        
   1313 ****        29.7500  20.0000  -1.5000 Du        
   1314 ****        29.7500  20.0000  -1.2500 Du        
   1315 ****        29.7500  20.0000  -1.0000 Du        
   1316 ****        29.7500  20.0000  -0.7500 Du        
   1317 ****        29.7500  20.0000  -0.5000 Du        
   1318 ****        29.7500  20.0000  -0.2500 Du        
   1319 ****        29.7500  20.0000   0.0000 Du        
   1320 ****        29.7500  20.0000   0.2500 Du        
   1321 ****        29.7500  20.2500  -3.2500 Du        
   1322 ****        29.7500  20.2500  -3.0000 Du        
   1323 ****        29.7500  20.2500  -2.7500 Du        
   1324 ****        29.7500  20.2500  -2.5000 Du        
   1325 ****        29.7500  20.2500  -2.2500 Du        
   1326 ****        29.7500  20.2500  -2.0000 Du        
   1327 ****        29.7500  20.2500  -1.7500 Du        
   1328 ****        29.7500  20.2500  -1.5000 Du        
   1329 ****        29.7500  20.2500  -1.2500 Du        
   1330 ****        29.7500  20.2500  -1.0000 Du        
   1331 ****        29.7500  20.2500  -0.7500 Du        
   1332 ****        29.7500  20.2500  -0.5000 Du        
   1333 ****        29.7500  20.2500  -0.2500 Du        
   1334 ****        29.7500  20.2500   0.0000 Du        
   1335 ****        29.7500  20.2500   0.2500 Du        
   1336 ****        29.7500  20.5000  -3.0000 Du        
   1337 ****        29.7500  20.5000  -2.7500 Du        
   1338 ****        29.7500  20.5000  -2.2500 Du        
   1339 ****        29.7500  20.5000  -2.0000 Du        
   1340 ****        29.7500  20.5000  -1.7500 Du        
   1341 ****        29.7500  20.5000  -1.5000 Du        
   1342 ****        29.7500  20.5000  -1.2500 Du        
   1343 ****        29.7500  20.5000  -1.0000 Du        
   1344 ****        29.7500  20.5000  -0.7500 Du        
   1345 ****        29.7500  20.5000  -0.2500 Du        
   1346 ****        29.7500  20.5000   0.0000 Du        
   1347 ****        29.7500  20.5000   0.2500 Du        
   1348 ****        29.7500  20.7500  -1.2500 Du        
   1349 ****        29.7500  20.7500  -1.0000 Du        
   1350 ****        29.7500  20.7500  -0.7500 Du        
   1351 ****        29.7500  20.7500  -0.5000 Du        
   1352 ****        29.7500  20.7500  -0.2500 Du        
   1353 ****        29.7500  20.7500   0.0000 Du        
   1354 ****        29.7500  20.7500   0.2500 Du        
   1355 ****        29.7500  21.0000  -1.0000 Du        
   1356 ****        29.7500  21.0000  -0.7500 Du        
   1357 ****        29.7500  21.0000  -0.5000 Du        
   1358 ****        29.7500  21.0000  -0.2500 Du        
   1359 ****        29.7500  21.0000   0.0000 Du        
   1360 ****        29.7500  21.0000   0.2500 Du        
   1361 ****        29.7500  21.2500  -0.5000 Du        
   1362 ****        29.7500  21.2500  -0.2500 Du        
   1363 ****        29.7500  21.2500   0.0000 Du        
   1364 ****        29.7500  21.2500   0.2500 Du        
   1365 ****        29.7500  21.5000  -0.5000 Du        
   1366 ****        29.7500  21.5000  -0.2500 Du        
   1367 ****        29.7500  21.5000   0.0000 Du        
   1368 ****        29.7500  21.7500  -0.2500 Du        
   1369 ****        29.7500  21.7500   0.0000 Du        
   1370 ****        29.7500  22.0000  -0.2500 Du        
   1371 ****        29.7500  22.0000   0.0000 Du        
   1372 ****        30.0000  14.7500   7.5000 Du        
   1373 ****        30.0000  15.0000   7.2500 Du        
   1374 ****        30.0000  15.0000   7.5000 Du        
   1375 ****        30.0000  15.0000   7.7500 Du        
   1376 ****        30.0000  15.0000   8.0000 Du        
   1377 ****        30.0000  15.0000   8.2500 Du        
   1378 ****        30.0000  15.2500   7.0000 Du        
   1379 ****        30.0000  15.2500   7.2500 Du        
   1380 ****        30.0000  15.2500   7.5000 Du        
   1381 ****        30.0000  15.2500   7.7500 Du        
   1382 ****        30.0000  15.2500   8.0000 Du        
   1383 ****        30.0000  15.2500   8.2500 Du        
   1384 ****        30.0000  15.2500   8.5000 Du        
   1385 ****        30.0000  15.2500   8.7500 Du        
   1386 ****        30.0000  15.2500   9.0000 Du        
   1387 ****        30.0000  15.2500   9.2500 Du        
   1388 ****        30.0000  15.5000   7.0000 Du        
   1389 ****        30.0000  15.5000   7.2500 Du        
   1390 ****        30.0000  15.5000   7.5000 Du        
   1391 ****        30.0000  15.5000   7.7500 Du        
   1392 ****        30.0000  15.5000   8.0000 Du        
   1393 ****        30.0000  15.5000   8.2500 Du        
   1394 ****        30.0000  15.5000   8.5000 Du        
   1395 ****        30.0000  15.5000   8.7500 Du        
   1396 ****        30.0000  15.5000   9.0000 Du        
   1397 ****        30.0000  15.5000   9.2500 Du        
   1398 ****        30.0000  15.7500   6.7500 Du        
   1399 ****        30.0000  15.7500   7.0000 Du        
   1400 ****        30.0000  15.7500   7.2500 Du        
   1401 ****        30.0000  15.7500   7.5000 Du        
   1402 ****        30.0000  15.7500   7.7500 Du        
   1403 ****        30.0000  15.7500   8.0000 Du        
   1404 ****        30.0000  15.7500   8.2500 Du        
   1405 ****        30.0000  15.7500   8.5000 Du        
   1406 ****        30.0000  15.7500   8.7500 Du        
   1407 ****        30.0000  16.0000   6.5000 Du        
   1408 ****        30.0000  16.0000   6.7500 Du        
   1409 ****        30.0000  16.0000   7.0000 Du        
   1410 ****        30.0000  16.0000   7.2500 Du        
   1411 ****        30.0000  16.0000   7.5000 Du        
   1412 ****        30.0000  16.0000   7.7500 Du        
   1413 ****        30.0000  16.0000   8.0000 Du        
   1414 ****        30.0000  16.2500   6.5000 Du        
   1415 ****        30.0000  16.2500   6.7500 Du        
   1416 ****        30.0000  16.2500   7.0000 Du        
   1417 ****        30.0000  16.2500   7.2500 Du        
   1418 ****        30.0000  16.5000   6.0000 Du        
   1419 ****        30.0000  16.5000   6.2500 Du        
   1420 ****        30.0000  16.5000   6.5000 Du        
   1421 ****        30.0000  16.5000   6.7500 Du        
   1422 ****        30.0000  16.7500   5.5000 Du        
   1423 ****        30.0000  16.7500   5.7500 Du        
   1424 ****        30.0000  16.7500   6.0000 Du        
   1425 ****        30.0000  16.7500   6.2500 Du        
   1426 ****        30.0000  16.7500   6.5000 Du        
   1427 ****        30.0000  17.0000   4.7500 Du        
   1428 ****        30.0000  17.0000   5.0000 Du        
   1429 ****        30.0000  17.0000   5.2500 Du        
   1430 ****        30.0000  17.0000   5.5000 Du        
   1431 ****        30.0000  17.0000   5.7500 Du        
   1432 ****        30.0000  17.0000   6.0000 Du        
   1433 ****        30.0000  17.0000   6.2500 Du        
   1434 ****        30.0000  17.2500   4.2500 Du        
   1435 ****        30.0000  17.2500   4.5000 Du        
   1436 ****        30.0000  17.2500   4.7500 Du        
   1437 ****        30.0000  17.2500   5.0000 Du        
   1438 ****        30.0000  17.2500   5.2500 Du        
   1439 ****        30.0000  17.2500   5.5000 Du        
   1440 ****        30.0000  17.2500   5.7500 Du        
   1441 ****        30.0000  17.5000   4.2500 Du        
   1442 ****        30.0000  17.5000   4.5000 Du        
   1443 ****        30.0000  17.5000   4.7500 Du        
   1444 ****        30.0000  17.5000   5.0000 Du        
   1445 ****        30.0000  17.5000   5.2500 Du        
   1446 ****        30.0000  17.5000   5.5000 Du        
   1447 ****        30.0000  17.7500   4.0000 Du        
   1448 ****        30.0000  17.7500   4.2500 Du        
   1449 ****        30.0000  17.7500   4.5000 Du        
   1450 ****        30.0000  17.7500   4.7500 Du        
   1451 ****        30.0000  17.7500   5.0000 Du        
   1452 ****        30.0000  17.7500   5.2500 Du        
   1453 ****        30.0000  18.0000   3.7500 Du        
   1454 ****        30.0000  18.0000   4.0000 Du        
   1455 ****        30.0000  18.0000   4.2500 Du        
   1456 ****        30.0000  18.0000   4.5000 Du        
   1457 ****        30.0000  18.0000   4.7500 Du        
   1458 ****        30.0000  18.0000   5.0000 Du        
   1459 ****        30.0000  18.2500   3.7500 Du        
   1460 ****        30.0000  18.2500   4.0000 Du        
   1461 ****        30.0000  18.2500   4.2500 Du        
   1462 ****        30.0000  18.2500   4.5000 Du        
   1463 ****        30.0000  18.2500   4.7500 Du        
   1464 ****        30.0000  18.5000   3.5000 Du        
   1465 ****        30.0000  18.5000   3.7500 Du        
   1466 ****        30.0000  18.5000   4.0000 Du        
   1467 ****        30.0000  18.5000   4.2500 Du        
   1468 ****        30.0000  18.7500  -2.2500 Du        
   1469 ****        30.0000  18.7500  -2.0000 Du        
   1470 ****        30.0000  18.7500  -1.7500 Du        
   1471 ****        30.0000  18.7500   3.5000 Du        
   1472 ****        30.0000  18.7500   3.7500 Du        
   1473 ****        30.0000  19.0000  -2.5000 Du        
   1474 ****        30.0000  19.0000  -2.2500 Du        
   1475 ****        30.0000  19.0000  -2.0000 Du        
   1476 ****        30.0000  19.0000  -1.7500 Du        
   1477 ****        30.0000  19.0000  -1.5000 Du        
   1478 ****        30.0000  19.2500  -2.7500 Du        
   1479 ****        30.0000  19.2500  -2.5000 Du        
   1480 ****        30.0000  19.2500  -2.2500 Du        
   1481 ****        30.0000  19.2500  -2.0000 Du        
   1482 ****        30.0000  19.2500  -1.7500 Du        
   1483 ****        30.0000  19.2500  -1.5000 Du        
   1484 ****        30.0000  19.2500  -1.2500 Du        
   1485 ****        30.0000  19.2500  -1.0000 Du        
   1486 ****        30.0000  19.5000  -3.0000 Du        
   1487 ****        30.0000  19.5000  -2.7500 Du        
   1488 ****        30.0000  19.5000  -2.5000 Du        
   1489 ****        30.0000  19.5000  -2.2500 Du        
   1490 ****        30.0000  19.5000  -2.0000 Du        
   1491 ****        30.0000  19.5000  -1.7500 Du        
   1492 ****        30.0000  19.5000  -1.5000 Du        
   1493 ****        30.0000  19.5000  -1.2500 Du        
   1494 ****        30.0000  19.5000  -1.0000 Du        
   1495 ****        30.0000  19.5000  -0.7500 Du        
   1496 ****        30.0000  19.5000  -0.5000 Du        
   1497 ****        30.0000  19.5000  -0.2500 Du        
   1498 ****        30.0000  19.5000   0.0000 Du        
   1499 ****        30.0000  19.5000   0.2500 Du        
   1500 ****        30.0000  19.7500  -3.0000 Du        
   1501 ****        30.0000  19.7500  -2.7500 Du        
   1502 ****        30.0000  19.7500  -2.5000 Du        
   1503 ****        30.0000  19.7500  -2.2500 Du        
   1504 ****        30.0000  19.7500  -2.0000 Du        
   1505 ****        30.0000  19.7500  -1.7500 Du        
   1506 ****        30.0000  19.7500  -1.5000 Du        
   1507 ****        30.0000  19.7500  -1.2500 Du        
   1508 ****        30.0000  19.7500  -1.0000 Du        
   1509 ****        30.0000  19.7500  -0.7500 Du        
   1510 ****        30.0000  19.7500  -0.5000 Du        
   1511 ****        30.0000  19.7500  -0.2500 Du        
   1512 ****        30.0000  19.7500   0.0000 Du        
   1513 ****        30.0000  19.7500   0.2500 Du        
   1514 ****        30.0000  19.7500   0.5000 Du        
   1515 ****        30.0000  20.0000  -3.2500 Du        
   1516 ****        30.0000  20.0000  -3.0000 Du        
   1517 ****        30.0000  20.0000  -2.7500 Du        
   1518 ****        30.0000  20.0000  -2.5000 Du        
   1519 ****        30.0000  20.0000  -2.2500 Du        
   1520 ****        30.0000  20.0000  -2.0000 Du        
   1521 ****        30.0000  20.0000  -1.7500 Du        
   1522 ****        30.0000  20.0000  -1.5000 Du        
   1523 ****        30.0000  20.0000  -1.2500 Du        
   1524 ****        30.0000  20.0000  -1.0000 Du        
   1525 ****        30.0000  20.0000  -0.7500 Du        
   1526 ****        30.0000  20.0000  -0.5000 Du        
   1527 ****        30.0000  20.0000  -0.2500 Du        
   1528 ****        30.0000  20.0000   0.0000 Du        
   1529 ****        30.0000  20.0000   0.2500 Du        
   1530 ****        30.0000  20.0000   0.5000 Du        
   1531 ****        30.0000  20.2500  -3.2500 Du        
   1532 ****        30.0000  20.2500  -3.0000 Du        
   1533 ****        30.0000  20.2500  -2.7500 Du        
   1534 ****        30.0000  20.2500  -2.5000 Du        
   1535 ****        30.0000  20.2500  -2.2500 Du        
   1536 ****        30.0000  20.2500  -2.0000 Du        
   1537 ****        30.0000  20.2500  -1.7500 Du        
   1538 ****        30.0000  20.2500  -1.5000 Du        
   1539 ****        30.0000  20.2500  -1.2500 Du        
   1540 ****        30.0000  20.2500  -1.0000 Du        
   1541 ****        30.0000  20.2500  -0.7500 Du        
   1542 ****        30.0000  20.2500  -0.5000 Du        
   1543 ****        30.0000  20.2500  -0.2500 Du        
   1544 ****        30.0000  20.2500   0.0000 Du        
   1545 ****        30.0000  20.2500   0.2500 Du        
   1546 ****        30.0000  20.5000  -3.2500 Du        
   1547 ****        30.0000  20.5000  -3.0000 Du        
   1548 ****        30.0000  20.5000  -2.7500 Du        
   1549 ****        30.0000  20.5000  -2.5000 Du        
   1550 ****        30.0000  20.5000  -2.2500 Du        
   1551 ****        30.0000  20.5000  -2.0000 Du        
   1552 ****        30.0000  20.5000  -1.7500 Du        
   1553 ****        30.0000  20.5000  -1.5000 Du        
   1554 ****        30.0000  20.5000  -1.2500 Du        
   1555 ****        30.0000  20.5000  -1.0000 Du        
   1556 ****        30.0000  20.5000  -0.7500 Du        
   1557 ****        30.0000  20.5000  -0.5000 Du        
   1558 ****        30.0000  20.5000  -0.2500 Du        
   1559 ****        30.0000  20.5000   0.0000 Du        
   1560 ****        30.0000  20.5000   0.2500 Du        
   1561 ****        30.0000  20.7500  -2.2500 Du        
   1562 ****        30.0000  20.7500  -2.0000 Du        
   1563 ****        30.0000  20.7500  -1.7500 Du        
   1564 ****        30.0000  20.7500  -1.5000 Du        
   1565 ****        30.0000  20.7500  -1.2500 Du        
   1566 ****        30.0000  20.7500  -1.0000 Du        
   1567 ****        30.0000  20.7500  -0.7500 Du        
   1568 ****        30.0000  20.7500  -0.5000 Du        
   1569 ****        30.0000  20.7500  -0.2500 Du        
   1570 ****        30.0000  20.7500   0.0000 Du        
   1571 ****        30.0000  20.7500   0.2500 Du        
   1572 ****        30.0000  21.0000  -1.2500 Du        
   1573 ****        30.0000  21.0000  -1.0000 Du        
   1574 ****        30.0000  21.0000  -0.7500 Du        
   1575 ****        30.0000  21.0000  -0.5000 Du        
   1576 ****        30.0000  21.0000  -0.2500 Du        
   1577 ****        30.0000  21.0000   0.0000 Du        
   1578 ****        30.0000  21.2500  -1.0000 Du        
   1579 ****        30.0000  21.2500  -0.7500 Du        
   1580 ****        30.0000  21.2500  -0.5000 Du        
   1581 ****        30.0000  21.2500  -0.2500 Du        
   1582 ****        30.0000  21.2500   0.0000 Du        
   1583 ****        30.0000  21.5000  -0.7500 Du        
   1584 ****        30.0000  21.5000  -0.5000 Du        
   1585 ****        30.0000  21.5000  -0.2500 Du        
   1586 ****        30.0000  21.5000   0.0000 Du        
   1587 ****        30.0000  21.7500  -0.5000 Du        
   1588 ****        30.0000  21.7500  -0.2500 Du        
   1589 ****        30.0000  21.7500   0.0000 Du        
   1590 ****        30.0000  22.0000  -0.5000 Du        
   1591 ****        30.0000  22.0000  -0.2500 Du        
   1592 ****        30.2500  14.5000   7.2500 Du        
   1593 ****        30.2500  14.7500   7.0000 Du        
   1594 ****        30.2500  14.7500   7.2500 Du        
   1595 ****        30.2500  14.7500   7.5000 Du        
   1596 ****        30.2500  14.7500   7.7500 Du        
   1597 ****        30.2500  14.7500   8.0000 Du        
   1598 ****        30.2500  15.0000   6.7500 Du        
   1599 ****        30.2500  15.0000   7.0000 Du        
   1600 ****        30.2500  15.0000   7.2500 Du        
   1601 ****        30.2500  15.0000   7.5000 Du        
   1602 ****        30.2500  15.0000   7.7500 Du        
   1603 ****        30.2500  15.0000   8.0000 Du        
   1604 ****        30.2500  15.0000   8.2500 Du        
   1605 ****        30.2500  15.0000   8.5000 Du        
   1606 ****        30.2500  15.0000   8.7500 Du        
   1607 ****        30.2500  15.0000   9.0000 Du        
   1608 ****        30.2500  15.2500   6.7500 Du        
   1609 ****        30.2500  15.2500   7.0000 Du        
   1610 ****        30.2500  15.2500   7.2500 Du        
   1611 ****        30.2500  15.2500   7.5000 Du        
   1612 ****        30.2500  15.2500   7.7500 Du        
   1613 ****        30.2500  15.2500   8.0000 Du        
   1614 ****        30.2500  15.2500   8.2500 Du        
   1615 ****        30.2500  15.2500   8.5000 Du        
   1616 ****        30.2500  15.2500   8.7500 Du        
   1617 ****        30.2500  15.2500   9.0000 Du        
   1618 ****        30.2500  15.2500   9.2500 Du        
   1619 ****        30.2500  15.5000   6.7500 Du        
   1620 ****        30.2500  15.5000   7.0000 Du        
   1621 ****        30.2500  15.5000   7.2500 Du        
   1622 ****        30.2500  15.5000   7.5000 Du        
   1623 ****        30.2500  15.5000   7.7500 Du        
   1624 ****        30.2500  15.5000   8.0000 Du        
   1625 ****        30.2500  15.5000   8.2500 Du        
   1626 ****        30.2500  15.5000   8.5000 Du        
   1627 ****        30.2500  15.5000   8.7500 Du        
   1628 ****        30.2500  15.5000   9.0000 Du        
   1629 ****        30.2500  15.5000   9.2500 Du        
   1630 ****        30.2500  15.7500   6.5000 Du        
   1631 ****        30.2500  15.7500   6.7500 Du        
   1632 ****        30.2500  15.7500   7.0000 Du        
   1633 ****        30.2500  15.7500   7.2500 Du        
   1634 ****        30.2500  15.7500   7.5000 Du        
   1635 ****        30.2500  15.7500   7.7500 Du        
   1636 ****        30.2500  15.7500   8.0000 Du        
   1637 ****        30.2500  15.7500   8.2500 Du        
   1638 ****        30.2500  15.7500   8.5000 Du        
   1639 ****        30.2500  15.7500   8.7500 Du        
   1640 ****        30.2500  15.7500   9.0000 Du        
   1641 ****        30.2500  16.0000   6.2500 Du        
   1642 ****        30.2500  16.0000   6.5000 Du        
   1643 ****        30.2500  16.0000   6.7500 Du        
   1644 ****        30.2500  16.0000   7.0000 Du        
   1645 ****        30.2500  16.0000   7.2500 Du        
   1646 ****        30.2500  16.0000   7.5000 Du        
   1647 ****        30.2500  16.0000   7.7500 Du        
   1648 ****        30.2500  16.0000   8.0000 Du        
   1649 ****        30.2500  16.0000   8.2500 Du        
   1650 ****        30.2500  16.2500   6.0000 Du        
   1651 ****        30.2500  16.2500   6.2500 Du        
   1652 ****        30.2500  16.2500   6.5000 Du        
   1653 ****        30.2500  16.2500   6.7500 Du        
   1654 ****        30.2500  16.2500   7.0000 Du        
   1655 ****        30.2500  16.2500   7.2500 Du        
   1656 ****        30.2500  16.2500   7.5000 Du        
   1657 ****        30.2500  16.5000   5.7500 Du        
   1658 ****        30.2500  16.5000   6.0000 Du        
   1659 ****        30.2500  16.5000   6.2500 Du        
   1660 ****        30.2500  16.5000   6.5000 Du        
   1661 ****        30.2500  16.5000   6.7500 Du        
   1662 ****        30.2500  16.5000   7.0000 Du        
   1663 ****        30.2500  16.7500   5.2500 Du        
   1664 ****        30.2500  16.7500   5.5000 Du        
   1665 ****        30.2500  16.7500   5.7500 Du        
   1666 ****        30.2500  16.7500   6.0000 Du        
   1667 ****        30.2500  16.7500   6.2500 Du        
   1668 ****        30.2500  16.7500   6.5000 Du        
   1669 ****        30.2500  16.7500   6.7500 Du        
   1670 ****        30.2500  17.0000   4.5000 Du        
   1671 ****        30.2500  17.0000   4.7500 Du        
   1672 ****        30.2500  17.0000   5.0000 Du        
   1673 ****        30.2500  17.0000   5.2500 Du        
   1674 ****        30.2500  17.0000   5.5000 Du        
   1675 ****        30.2500  17.0000   5.7500 Du        
   1676 ****        30.2500  17.0000   6.0000 Du        
   1677 ****        30.2500  17.0000   6.2500 Du        
   1678 ****        30.2500  17.0000   6.5000 Du        
   1679 ****        30.2500  17.2500   4.2500 Du        
   1680 ****        30.2500  17.2500   4.5000 Du        
   1681 ****        30.2500  17.2500   4.7500 Du        
   1682 ****        30.2500  17.2500   5.0000 Du        
   1683 ****        30.2500  17.2500   5.2500 Du        
   1684 ****        30.2500  17.2500   5.5000 Du        
   1685 ****        30.2500  17.2500   5.7500 Du        
   1686 ****        30.2500  17.2500   6.0000 Du        
   1687 ****        30.2500  17.5000   4.0000 Du        
   1688 ****        30.2500  17.5000   4.2500 Du        
   1689 ****        30.2500  17.5000   4.5000 Du        
   1690 ****        30.2500  17.5000   4.7500 Du        
   1691 ****        30.2500  17.5000   5.0000 Du        
   1692 ****        30.2500  17.5000   5.2500 Du        
   1693 ****        30.2500  17.5000   5.5000 Du        
   1694 ****        30.2500  17.7500   4.0000 Du        
   1695 ****        30.2500  17.7500   4.2500 Du        
   1696 ****        30.2500  17.7500   4.5000 Du        
   1697 ****        30.2500  17.7500   4.7500 Du        
   1698 ****        30.2500  17.7500   5.0000 Du        
   1699 ****        30.2500  17.7500   5.2500 Du        
   1700 ****        30.2500  18.0000   3.7500 Du        
   1701 ****        30.2500  18.0000   4.0000 Du        
   1702 ****        30.2500  18.0000   4.2500 Du        
   1703 ****        30.2500  18.0000   4.5000 Du        
   1704 ****        30.2500  18.0000   4.7500 Du        
   1705 ****        30.2500  18.0000   5.0000 Du        
   1706 ****        30.2500  18.2500   3.5000 Du        
   1707 ****        30.2500  18.2500   3.7500 Du        
   1708 ****        30.2500  18.2500   4.0000 Du        
   1709 ****        30.2500  18.2500   4.2500 Du        
   1710 ****        30.2500  18.2500   4.5000 Du        
   1711 ****        30.2500  18.2500   4.7500 Du        
   1712 ****        30.2500  18.5000   3.5000 Du        
   1713 ****        30.2500  18.5000   3.7500 Du        
   1714 ****        30.2500  18.5000   4.0000 Du        
   1715 ****        30.2500  18.5000   4.2500 Du        
   1716 ****        30.2500  18.7500  -2.2500 Du        
   1717 ****        30.2500  18.7500  -2.0000 Du        
   1718 ****        30.2500  18.7500  -1.7500 Du        
   1719 ****        30.2500  18.7500   3.5000 Du        
   1720 ****        30.2500  18.7500   3.7500 Du        
   1721 ****        30.2500  19.0000  -2.5000 Du        
   1722 ****        30.2500  19.0000  -2.2500 Du        
   1723 ****        30.2500  19.0000  -2.0000 Du        
   1724 ****        30.2500  19.0000  -1.7500 Du        
   1725 ****        30.2500  19.0000  -1.5000 Du        
   1726 ****        30.2500  19.0000  -1.2500 Du        
   1727 ****        30.2500  19.0000  -1.0000 Du        
   1728 ****        30.2500  19.2500  -2.5000 Du        
   1729 ****        30.2500  19.2500  -2.2500 Du        
   1730 ****        30.2500  19.2500  -2.0000 Du        
   1731 ****        30.2500  19.2500  -1.7500 Du        
   1732 ****        30.2500  19.2500  -1.5000 Du        
   1733 ****        30.2500  19.2500  -1.2500 Du        
   1734 ****        30.2500  19.2500  -1.0000 Du        
   1735 ****        30.2500  19.2500  -0.7500 Du        
   1736 ****        30.2500  19.2500  -0.5000 Du        
   1737 ****        30.2500  19.2500  -0.2500 Du        
   1738 ****        30.2500  19.2500   0.0000 Du        
   1739 ****        30.2500  19.2500   0.2500 Du        
   1740 ****        30.2500  19.2500   0.5000 Du        
   1741 ****        30.2500  19.2500   0.7500 Du        
   1742 ****        30.2500  19.5000  -2.7500 Du        
   1743 ****        30.2500  19.5000  -2.5000 Du        
   1744 ****        30.2500  19.5000  -2.2500 Du        
   1745 ****        30.2500  19.5000  -2.0000 Du        
   1746 ****        30.2500  19.5000  -1.7500 Du        
   1747 ****        30.2500  19.5000  -1.5000 Du        
   1748 ****        30.2500  19.5000  -1.2500 Du        
   1749 ****        30.2500  19.5000  -1.0000 Du        
   1750 ****        30.2500  19.5000  -0.7500 Du        
   1751 ****        30.2500  19.5000  -0.5000 Du        
   1752 ****        30.2500  19.5000  -0.2500 Du        
   1753 ****        30.2500  19.5000   0.0000 Du        
   1754 ****        30.2500  19.5000   0.2500 Du        
   1755 ****        30.2500  19.7500  -3.0000 Du        
   1756 ****        30.2500  19.7500  -2.7500 Du        
   1757 ****        30.2500  19.7500  -2.5000 Du        
   1758 ****        30.2500  19.7500  -2.2500 Du        
   1759 ****        30.2500  19.7500  -2.0000 Du        
   1760 ****        30.2500  19.7500  -1.7500 Du        
   1761 ****        30.2500  19.7500  -1.5000 Du        
   1762 ****        30.2500  19.7500  -1.2500 Du        
   1763 ****        30.2500  19.7500  -1.0000 Du        
   1764 ****        30.2500  19.7500  -0.7500 Du        
   1765 ****        30.2500  19.7500  -0.5000 Du        
   1766 ****        30.2500  19.7500  -0.2500 Du        
   1767 ****        30.2500  19.7500   0.0000 Du        
   1768 ****        30.2500  19.7500   0.2500 Du        
   1769 ****        30.2500  19.7500   0.5000 Du        
   1770 ****        30.2500  20.0000  -3.0000 Du        
   1771 ****        30.2500  20.0000  -2.7500 Du        
   1772 ****        30.2500  20.0000  -2.5000 Du        
   1773 ****        30.2500  20.0000  -2.2500 Du        
   1774 ****        30.2500  20.0000  -2.0000 Du        
   1775 ****        30.2500  20.0000  -1.7500 Du        
   1776 ****        30.2500  20.0000  -1.5000 Du        
   1777 ****        30.2500  20.0000  -1.2500 Du        
   1778 ****        30.2500  20.0000  -1.0000 Du        
   1779 ****        30.2500  20.0000  -0.7500 Du        
   1780 ****        30.2500  20.0000  -0.5000 Du        
   1781 ****        30.2500  20.0000  -0.2500 Du        
   1782 ****        30.2500  20.0000   0.0000 Du        
   1783 ****        30.2500  20.0000   0.2500 Du        
   1784 ****        30.2500  20.2500  -3.2500 Du        
   1785 ****        30.2500  20.2500  -3.0000 Du        
   1786 ****        30.2500  20.2500  -2.7500 Du        
   1787 ****        30.2500  20.2500  -2.5000 Du        
   1788 ****        30.2500  20.2500  -2.2500 Du        
   1789 ****        30.2500  20.2500  -2.0000 Du        
   1790 ****        30.2500  20.2500  -1.7500 Du        
   1791 ****        30.2500  20.2500  -1.5000 Du        
   1792 ****        30.2500  20.2500  -1.2500 Du        
   1793 ****        30.2500  20.2500  -1.0000 Du        
   1794 ****        30.2500  20.2500  -0.7500 Du        
   1795 ****        30.2500  20.2500  -0.5000 Du        
   1796 ****        30.2500  20.2500  -0.2500 Du        
   1797 ****        30.2500  20.2500   0.0000 Du        
   1798 ****        30.2500  20.2500   0.2500 Du        
   1799 ****        30.2500  20.5000  -3.0000 Du        
   1800 ****        30.2500  20.5000  -2.7500 Du        
   1801 ****        30.2500  20.5000  -2.5000 Du        
   1802 ****        30.2500  20.5000  -2.2500 Du        
   1803 ****        30.2500  20.5000  -2.0000 Du        
   1804 ****        30.2500  20.5000  -1.7500 Du        
   1805 ****        30.2500  20.5000  -1.5000 Du        
   1806 ****        30.2500  20.5000  -1.2500 Du        
   1807 ****        30.2500  20.5000  -1.0000 Du        
   1808 ****        30.2500  20.5000  -0.7500 Du        
   1809 ****        30.2500  20.5000  -0.5000 Du        
   1810 ****        30.2500  20.5000  -0.2500 Du        
   1811 ****        30.2500  20.5000   0.0000 Du        
   1812 ****        30.2500  20.7500  -3.0000 Du        
   1813 ****        30.2500  20.7500  -2.2500 Du        
   1814 ****        30.2500  20.7500  -2.0000 Du        
   1815 ****        30.2500  20.7500  -1.7500 Du        
   1816 ****        30.2500  20.7500  -1.5000 Du        
   1817 ****        30.2500  20.7500  -1.2500 Du        
   1818 ****        30.2500  20.7500  -1.0000 Du        
   1819 ****        30.2500  20.7500  -0.7500 Du        
   1820 ****        30.2500  20.7500  -0.5000 Du        
   1821 ****        30.2500  20.7500  -0.2500 Du        
   1822 ****        30.2500  20.7500   0.0000 Du        
   1823 ****        30.2500  21.0000  -1.7500 Du        
   1824 ****        30.2500  21.0000  -1.5000 Du        
   1825 ****        30.2500  21.0000  -1.2500 Du        
   1826 ****        30.2500  21.0000  -1.0000 Du        
   1827 ****        30.2500  21.0000  -0.7500 Du        
   1828 ****        30.2500  21.0000  -0.5000 Du        
   1829 ****        30.2500  21.0000  -0.2500 Du        
   1830 ****        30.2500  21.2500  -1.2500 Du        
   1831 ****        30.2500  21.2500  -1.0000 Du        
   1832 ****        30.2500  21.2500  -0.7500 Du        
   1833 ****        30.2500  21.2500  -0.5000 Du        
   1834 ****        30.2500  21.2500  -0.2500 Du        
   1835 ****        30.2500  21.5000  -0.7500 Du        
   1836 ****        30.2500  21.5000  -0.5000 Du        
   1837 ****        30.2500  21.7500  -0.5000 Du        
   1838 ****        30.5000  14.2500   7.2500 Du        
   1839 ****        30.5000  14.5000   7.0000 Du        
   1840 ****        30.5000  14.5000   7.2500 Du        
   1841 ****        30.5000  14.5000   7.5000 Du        
   1842 ****        30.5000  14.5000   7.7500 Du        
   1843 ****        30.5000  14.7500   7.0000 Du        
   1844 ****        30.5000  14.7500   7.2500 Du        
   1845 ****        30.5000  14.7500   7.5000 Du        
   1846 ****        30.5000  14.7500   7.7500 Du        
   1847 ****        30.5000  14.7500   8.0000 Du        
   1848 ****        30.5000  14.7500   8.2500 Du        
   1849 ****        30.5000  15.0000   6.7500 Du        
   1850 ****        30.5000  15.0000   7.0000 Du        
   1851 ****        30.5000  15.0000   7.2500 Du        
   1852 ****        30.5000  15.0000   7.5000 Du        
   1853 ****        30.5000  15.0000   7.7500 Du        
   1854 ****        30.5000  15.0000   8.0000 Du        
   1855 ****        30.5000  15.0000   8.2500 Du        
   1856 ****        30.5000  15.0000   8.5000 Du        
   1857 ****        30.5000  15.0000   8.7500 Du        
   1858 ****        30.5000  15.0000   9.0000 Du        
   1859 ****        30.5000  15.2500   6.7500 Du        
   1860 ****        30.5000  15.2500   7.0000 Du        
   1861 ****        30.5000  15.2500   7.2500 Du        
   1862 ****        30.5000  15.2500   7.5000 Du        
   1863 ****        30.5000  15.2500   7.7500 Du        
   1864 ****        30.5000  15.2500   8.0000 Du        
   1865 ****        30.5000  15.2500   8.2500 Du        
   1866 ****        30.5000  15.2500   8.5000 Du        
   1867 ****        30.5000  15.2500   8.7500 Du        
   1868 ****        30.5000  15.2500   9.0000 Du        
   1869 ****        30.5000  15.2500   9.2500 Du        
   1870 ****        30.5000  15.5000   6.7500 Du        
   1871 ****        30.5000  15.5000   7.0000 Du        
   1872 ****        30.5000  15.5000   7.2500 Du        
   1873 ****        30.5000  15.5000   7.5000 Du        
   1874 ****        30.5000  15.5000   7.7500 Du        
   1875 ****        30.5000  15.5000   8.0000 Du        
   1876 ****        30.5000  15.5000   8.2500 Du        
   1877 ****        30.5000  15.5000   8.5000 Du        
   1878 ****        30.5000  15.5000   8.7500 Du        
   1879 ****        30.5000  15.5000   9.0000 Du        
   1880 ****        30.5000  15.7500   6.5000 Du        
   1881 ****        30.5000  15.7500   6.7500 Du        
   1882 ****        30.5000  15.7500   7.0000 Du        
   1883 ****        30.5000  15.7500   7.2500 Du        
   1884 ****        30.5000  15.7500   7.5000 Du        
   1885 ****        30.5000  15.7500   7.7500 Du        
   1886 ****        30.5000  15.7500   8.0000 Du        
   1887 ****        30.5000  15.7500   8.2500 Du        
   1888 ****        30.5000  15.7500   8.5000 Du        
   1889 ****        30.5000  15.7500   8.7500 Du        
   1890 ****        30.5000  16.0000   6.5000 Du        
   1891 ****        30.5000  16.0000   6.7500 Du        
   1892 ****        30.5000  16.0000   7.0000 Du        
   1893 ****        30.5000  16.0000   7.2500 Du        
   1894 ****        30.5000  16.0000   7.5000 Du        
   1895 ****        30.5000  16.0000   7.7500 Du        
   1896 ****        30.5000  16.0000   8.0000 Du        
   1897 ****        30.5000  16.0000   8.2500 Du        
   1898 ****        30.5000  16.0000   8.5000 Du        
   1899 ****        30.5000  16.2500   6.2500 Du        
   1900 ****        30.5000  16.2500   6.5000 Du        
   1901 ****        30.5000  16.2500   6.7500 Du        
   1902 ****        30.5000  16.2500   7.0000 Du        
   1903 ****        30.5000  16.2500   7.2500 Du        
   1904 ****        30.5000  16.2500   7.5000 Du        
   1905 ****        30.5000  16.2500   7.7500 Du        
   1906 ****        30.5000  16.5000   6.0000 Du        
   1907 ****        30.5000  16.5000   6.2500 Du        
   1908 ****        30.5000  16.5000   6.5000 Du        
   1909 ****        30.5000  16.5000   6.7500 Du        
   1910 ****        30.5000  16.5000   7.0000 Du        
   1911 ****        30.5000  16.5000   7.2500 Du        
   1912 ****        30.5000  16.7500   5.5000 Du        
   1913 ****        30.5000  16.7500   5.7500 Du        
   1914 ****        30.5000  16.7500   6.0000 Du        
   1915 ****        30.5000  16.7500   6.2500 Du        
   1916 ****        30.5000  16.7500   6.5000 Du        
   1917 ****        30.5000  16.7500   6.7500 Du        
   1918 ****        30.5000  17.0000   4.7500 Du        
   1919 ****        30.5000  17.0000   5.0000 Du        
   1920 ****        30.5000  17.0000   5.2500 Du        
   1921 ****        30.5000  17.0000   5.5000 Du        
   1922 ****        30.5000  17.0000   5.7500 Du        
   1923 ****        30.5000  17.0000   6.0000 Du        
   1924 ****        30.5000  17.0000   6.2500 Du        
   1925 ****        30.5000  17.0000   6.5000 Du        
   1926 ****        30.5000  17.2500   4.2500 Du        
   1927 ****        30.5000  17.2500   4.5000 Du        
   1928 ****        30.5000  17.2500   4.7500 Du        
   1929 ****        30.5000  17.2500   5.0000 Du        
   1930 ****        30.5000  17.2500   5.2500 Du        
   1931 ****        30.5000  17.2500   5.5000 Du        
   1932 ****        30.5000  17.2500   5.7500 Du        
   1933 ****        30.5000  17.2500   6.0000 Du        
   1934 ****        30.5000  17.5000   4.0000 Du        
   1935 ****        30.5000  17.5000   4.2500 Du        
   1936 ****        30.5000  17.5000   4.5000 Du        
   1937 ****        30.5000  17.5000   4.7500 Du        
   1938 ****        30.5000  17.5000   5.0000 Du        
   1939 ****        30.5000  17.5000   5.2500 Du        
   1940 ****        30.5000  17.5000   5.5000 Du        
   1941 ****        30.5000  17.7500   3.7500 Du        
   1942 ****        30.5000  17.7500   4.0000 Du        
   1943 ****        30.5000  17.7500   4.2500 Du        
   1944 ****        30.5000  17.7500   4.5000 Du        
   1945 ****        30.5000  17.7500   4.7500 Du        
   1946 ****        30.5000  17.7500   5.0000 Du        
   1947 ****        30.5000  17.7500   5.2500 Du        
   1948 ****        30.5000  18.0000   3.7500 Du        
   1949 ****        30.5000  18.0000   4.0000 Du        
   1950 ****        30.5000  18.0000   4.2500 Du        
   1951 ****        30.5000  18.0000   4.5000 Du        
   1952 ****        30.5000  18.0000   4.7500 Du        
   1953 ****        30.5000  18.0000   5.0000 Du        
   1954 ****        30.5000  18.2500   3.5000 Du        
   1955 ****        30.5000  18.2500   3.7500 Du        
   1956 ****        30.5000  18.2500   4.0000 Du        
   1957 ****        30.5000  18.2500   4.2500 Du        
   1958 ****        30.5000  18.2500   4.5000 Du        
   1959 ****        30.5000  18.2500   4.7500 Du        
   1960 ****        30.5000  18.5000   3.5000 Du        
   1961 ****        30.5000  18.5000   3.7500 Du        
   1962 ****        30.5000  18.5000   4.0000 Du        
   1963 ****        30.5000  18.5000   4.2500 Du        
   1964 ****        30.5000  18.7500  -2.0000 Du        
   1965 ****        30.5000  18.7500  -1.7500 Du        
   1966 ****        30.5000  18.7500  -1.5000 Du        
   1967 ****        30.5000  19.0000  -2.2500 Du        
   1968 ****        30.5000  19.0000  -2.0000 Du        
   1969 ****        30.5000  19.0000  -1.7500 Du        
   1970 ****        30.5000  19.0000  -1.5000 Du        
   1971 ****        30.5000  19.0000  -1.2500 Du        
   1972 ****        30.5000  19.0000  -1.0000 Du        
   1973 ****        30.5000  19.0000  -0.7500 Du        
   1974 ****        30.5000  19.2500  -2.5000 Du        
   1975 ****        30.5000  19.2500  -2.2500 Du        
   1976 ****        30.5000  19.2500  -2.0000 Du        
   1977 ****        30.5000  19.2500  -1.7500 Du        
   1978 ****        30.5000  19.2500  -1.5000 Du        
   1979 ****        30.5000  19.2500  -1.2500 Du        
   1980 ****        30.5000  19.2500  -1.0000 Du        
   1981 ****        30.5000  19.2500  -0.7500 Du        
   1982 ****        30.5000  19.2500  -0.5000 Du        
   1983 ****        30.5000  19.2500  -0.2500 Du        
   1984 ****        30.5000  19.2500   0.0000 Du        
   1985 ****        30.5000  19.5000  -2.2500 Du        
   1986 ****        30.5000  19.5000  -2.0000 Du        
   1987 ****        30.5000  19.5000  -1.7500 Du        
   1988 ****        30.5000  19.5000  -1.5000 Du        
   1989 ****        30.5000  19.5000  -1.2500 Du        
   1990 ****        30.5000  19.5000  -1.0000 Du        
   1991 ****        30.5000  19.5000  -0.7500 Du        
   1992 ****        30.5000  19.5000   0.0000 Du        
   1993 ****        30.5000  19.7500  -2.5000 Du        
   1994 ****        30.5000  19.7500  -2.2500 Du        
   1995 ****        30.5000  19.7500  -2.0000 Du        
   1996 ****        30.5000  19.7500  -1.7500 Du        
   1997 ****        30.5000  19.7500  -1.5000 Du        
   1998 ****        30.5000  19.7500  -1.2500 Du        
   1999 ****        30.5000  19.7500  -1.0000 Du        
   2000 ****        30.5000  19.7500  -0.7500 Du        
   2001 ****        30.5000  19.7500  -0.5000 Du        
   2002 ****        30.5000  19.7500  -0.2500 Du        
   2003 ****        30.5000  19.7500   0.0000 Du        
   2004 ****        30.5000  20.0000  -2.7500 Du        
   2005 ****        30.5000  20.0000  -2.5000 Du        
   2006 ****        30.5000  20.0000  -2.2500 Du        
   2007 ****        30.5000  20.0000  -2.0000 Du        
   2008 ****        30.5000  20.0000  -1.7500 Du        
   2009 ****        30.5000  20.0000  -1.5000 Du        
   2010 ****        30.5000  20.0000  -1.2500 Du        
   2011 ****        30.5000  20.0000  -1.0000 Du        
   2012 ****        30.5000  20.0000  -0.7500 Du        
   2013 ****        30.5000  20.0000  -0.5000 Du        
   2014 ****        30.5000  20.0000  -0.2500 Du        
   2015 ****        30.5000  20.0000   0.0000 Du        
   2016 ****        30.5000  20.2500  -2.5000 Du        
   2017 ****        30.5000  20.2500  -2.2500 Du        
   2018 ****        30.5000  20.2500  -2.0000 Du        
   2019 ****        30.5000  20.2500  -1.7500 Du        
   2020 ****        30.5000  20.2500  -1.5000 Du        
   2021 ****        30.5000  20.2500  -1.2500 Du        
   2022 ****        30.5000  20.2500  -1.0000 Du        
   2023 ****        30.5000  20.2500  -0.7500 Du        
   2024 ****        30.5000  20.2500  -0.5000 Du        
   2025 ****        30.5000  20.2500  -0.2500 Du        
   2026 ****        30.5000  20.5000  -1.7500 Du        
   2027 ****        30.5000  20.5000  -1.5000 Du        
   2028 ****        30.5000  20.5000  -1.2500 Du        
   2029 ****        30.5000  20.5000  -1.0000 Du        
   2030 ****        30.5000  20.5000  -0.7500 Du        
   2031 ****        30.5000  20.7500  -1.7500 Du        
   2032 ****        30.5000  20.7500  -1.2500 Du        
   2033 ****        30.5000  20.7500  -1.0000 Du        
   2034 ****        30.5000  20.7500  -0.7500 Du        
   2035 ****        30.5000  21.0000  -1.0000 Du        
   2036 ****        30.5000  21.0000  -0.7500 Du        
   2037 ****        30.5000  21.2500  -1.0000 Du        
   2038 ****        30.7500  14.0000   7.2500 Du        
   2039 ****        30.7500  14.2500   7.0000 Du        
   2040 ****        30.7500  14.2500   7.2500 Du        
   2041 ****        30.7500  14.2500   7.5000 Du        
   2042 ****        30.7500  14.2500   7.7500 Du        
   2043 ****        30.7500  14.5000   7.0000 Du        
   2044 ****        30.7500  14.5000   7.2500 Du        
   2045 ****        30.7500  14.5000   7.5000 Du        
   2046 ****        30.7500  14.5000   7.7500 Du        
   2047 ****        30.7500  14.5000   8.0000 Du        
   2048 ****        30.7500  14.5000   8.2500 Du        
   2049 ****        30.7500  14.7500   7.0000 Du        
   2050 ****        30.7500  14.7500   7.2500 Du        
   2051 ****        30.7500  14.7500   7.5000 Du        
   2052 ****        30.7500  14.7500   7.7500 Du        
   2053 ****        30.7500  14.7500   8.0000 Du        
   2054 ****        30.7500  14.7500   8.2500 Du        
   2055 ****        30.7500  14.7500   8.5000 Du        
   2056 ****        30.7500  14.7500   8.7500 Du        
   2057 ****        30.7500  14.7500   9.0000 Du        
   2058 ****        30.7500  15.0000   6.7500 Du        
   2059 ****        30.7500  15.0000   7.0000 Du        
   2060 ****        30.7500  15.0000   7.2500 Du        
   2061 ****        30.7500  15.0000   7.5000 Du        
   2062 ****        30.7500  15.0000   7.7500 Du        
   2063 ****        30.7500  15.0000   8.0000 Du        
   2064 ****        30.7500  15.0000   8.2500 Du        
   2065 ****        30.7500  15.0000   8.5000 Du        
   2066 ****        30.7500  15.0000   8.7500 Du        
   2067 ****        30.7500  15.0000   9.0000 Du        
   2068 ****        30.7500  15.0000   9.2500 Du        
   2069 ****        30.7500  15.2500   6.7500 Du        
   2070 ****        30.7500  15.2500   7.0000 Du        
   2071 ****        30.7500  15.2500   7.2500 Du        
   2072 ****        30.7500  15.2500   7.5000 Du        
   2073 ****        30.7500  15.2500   7.7500 Du        
   2074 ****        30.7500  15.2500   8.0000 Du        
   2075 ****        30.7500  15.2500   8.2500 Du        
   2076 ****        30.7500  15.2500   8.5000 Du        
   2077 ****        30.7500  15.2500   8.7500 Du        
   2078 ****        30.7500  15.2500   9.0000 Du        
   2079 ****        30.7500  15.2500   9.2500 Du        
   2080 ****        30.7500  15.5000   6.7500 Du        
   2081 ****        30.7500  15.5000   7.0000 Du        
   2082 ****        30.7500  15.5000   7.2500 Du        
   2083 ****        30.7500  15.5000   7.5000 Du        
   2084 ****        30.7500  15.5000   7.7500 Du        
   2085 ****        30.7500  15.5000   8.0000 Du        
   2086 ****        30.7500  15.5000   8.2500 Du        
   2087 ****        30.7500  15.5000   8.5000 Du        
   2088 ****        30.7500  15.5000   8.7500 Du        
   2089 ****        30.7500  15.5000   9.0000 Du        
   2090 ****        30.7500  15.7500   6.5000 Du        
   2091 ****        30.7500  15.7500   6.7500 Du        
   2092 ****        30.7500  15.7500   7.0000 Du        
   2093 ****        30.7500  15.7500   7.2500 Du        
   2094 ****        30.7500  15.7500   7.5000 Du        
   2095 ****        30.7500  15.7500   7.7500 Du        
   2096 ****        30.7500  15.7500   8.0000 Du        
   2097 ****        30.7500  15.7500   8.2500 Du        
   2098 ****        30.7500  15.7500   8.5000 Du        
   2099 ****        30.7500  15.7500   8.7500 Du        
   2100 ****        30.7500  16.0000   6.5000 Du        
   2101 ****        30.7500  16.0000   6.7500 Du        
   2102 ****        30.7500  16.0000   7.0000 Du        
   2103 ****        30.7500  16.0000   7.2500 Du        
   2104 ****        30.7500  16.0000   7.5000 Du        
   2105 ****        30.7500  16.0000   7.7500 Du        
   2106 ****        30.7500  16.0000   8.0000 Du        
   2107 ****        30.7500  16.0000   8.2500 Du        
   2108 ****        30.7500  16.0000   8.5000 Du        
   2109 ****        30.7500  16.2500   6.2500 Du        
   2110 ****        30.7500  16.2500   6.5000 Du        
   2111 ****        30.7500  16.2500   6.7500 Du        
   2112 ****        30.7500  16.2500   7.0000 Du        
   2113 ****        30.7500  16.2500   7.2500 Du        
   2114 ****        30.7500  16.2500   7.5000 Du        
   2115 ****        30.7500  16.2500   7.7500 Du        
   2116 ****        30.7500  16.2500   8.0000 Du        
   2117 ****        30.7500  16.2500   8.2500 Du        
   2118 ****        30.7500  16.5000   6.0000 Du        
   2119 ****        30.7500  16.5000   6.2500 Du        
   2120 ****        30.7500  16.5000   6.5000 Du        
   2121 ****        30.7500  16.5000   6.7500 Du        
   2122 ****        30.7500  16.5000   7.0000 Du        
   2123 ****        30.7500  16.5000   7.2500 Du        
   2124 ****        30.7500  16.5000   7.5000 Du        
   2125 ****        30.7500  16.7500   5.5000 Du        
   2126 ****        30.7500  16.7500   5.7500 Du        
   2127 ****        30.7500  16.7500   6.0000 Du        
   2128 ****        30.7500  16.7500   6.2500 Du        
   2129 ****        30.7500  16.7500   6.5000 Du        
   2130 ****        30.7500  16.7500   6.7500 Du        
   2131 ****        30.7500  16.7500   7.0000 Du        
   2132 ****        30.7500  17.0000   4.7500 Du        
   2133 ****        30.7500  17.0000   5.0000 Du        
   2134 ****        30.7500  17.0000   5.2500 Du        
   2135 ****        30.7500  17.0000   5.5000 Du        
   2136 ****        30.7500  17.0000   5.7500 Du        
   2137 ****        30.7500  17.0000   6.0000 Du        
   2138 ****        30.7500  17.0000   6.2500 Du        
   2139 ****        30.7500  17.0000   6.5000 Du        
   2140 ****        30.7500  17.2500   4.2500 Du        
   2141 ****        30.7500  17.2500   4.5000 Du        
   2142 ****        30.7500  17.2500   4.7500 Du        
   2143 ****        30.7500  17.2500   5.0000 Du        
   2144 ****        30.7500  17.2500   5.2500 Du        
   2145 ****        30.7500  17.2500   5.5000 Du        
   2146 ****        30.7500  17.2500   5.7500 Du        
   2147 ****        30.7500  17.2500   6.0000 Du        
   2148 ****        30.7500  17.5000   3.7500 Du        
   2149 ****        30.7500  17.5000   4.0000 Du        
   2150 ****        30.7500  17.5000   4.2500 Du        
   2151 ****        30.7500  17.5000   4.5000 Du        
   2152 ****        30.7500  17.5000   4.7500 Du        
   2153 ****        30.7500  17.5000   5.0000 Du        
   2154 ****        30.7500  17.5000   5.2500 Du        
   2155 ****        30.7500  17.5000   5.5000 Du        
   2156 ****        30.7500  17.7500   3.7500 Du        
   2157 ****        30.7500  17.7500   4.0000 Du        
   2158 ****        30.7500  17.7500   4.2500 Du        
   2159 ****        30.7500  17.7500   4.5000 Du        
   2160 ****        30.7500  17.7500   4.7500 Du        
   2161 ****        30.7500  17.7500   5.0000 Du        
   2162 ****        30.7500  17.7500   5.2500 Du        
   2163 ****        30.7500  18.0000   3.5000 Du        
   2164 ****        30.7500  18.0000   3.7500 Du        
   2165 ****        30.7500  18.0000   4.0000 Du        
   2166 ****        30.7500  18.0000   4.2500 Du        
   2167 ****        30.7500  18.0000   4.5000 Du        
   2168 ****        30.7500  18.0000   4.7500 Du        
   2169 ****        30.7500  18.0000   5.0000 Du        
   2170 ****        30.7500  18.2500   3.5000 Du        
   2171 ****        30.7500  18.2500   3.7500 Du        
   2172 ****        30.7500  18.2500   4.0000 Du        
   2173 ****        30.7500  18.2500   4.2500 Du        
   2174 ****        30.7500  18.2500   4.5000 Du        
   2175 ****        30.7500  18.2500   4.7500 Du        
   2176 ****        30.7500  18.5000   3.5000 Du        
   2177 ****        30.7500  18.5000   3.7500 Du        
   2178 ****        30.7500  18.5000   4.0000 Du        
   2179 ****        30.7500  18.5000   4.2500 Du        
   2180 ****        30.7500  18.5000   4.5000 Du        
   2181 ****        30.7500  18.7500  -1.7500 Du        
   2182 ****        30.7500  18.7500  -1.5000 Du        
   2183 ****        30.7500  18.7500  -1.2500 Du        
   2184 ****        30.7500  18.7500  -1.0000 Du        
   2185 ****        30.7500  18.7500  -0.7500 Du        
   2186 ****        30.7500  19.0000  -2.0000 Du        
   2187 ****        30.7500  19.0000  -1.7500 Du        
   2188 ****        30.7500  19.0000  -1.5000 Du        
   2189 ****        30.7500  19.0000  -1.2500 Du        
   2190 ****        30.7500  19.0000  -1.0000 Du        
   2191 ****        30.7500  19.0000  -0.7500 Du        
   2192 ****        30.7500  19.0000  -0.5000 Du        
   2193 ****        30.7500  19.0000  -0.2500 Du        
   2194 ****        30.7500  19.0000   0.0000 Du        
   2195 ****        30.7500  19.0000   0.2500 Du        
   2196 ****        30.7500  19.2500  -2.2500 Du        
   2197 ****        30.7500  19.2500  -2.0000 Du        
   2198 ****        30.7500  19.2500  -1.7500 Du        
   2199 ****        30.7500  19.2500  -1.5000 Du        
   2200 ****        30.7500  19.2500  -1.2500 Du        
   2201 ****        30.7500  19.2500  -1.0000 Du        
   2202 ****        30.7500  19.2500  -0.7500 Du        
   2203 ****        30.7500  19.2500  -0.5000 Du        
   2204 ****        30.7500  19.2500  -0.2500 Du        
   2205 ****        30.7500  19.2500   0.0000 Du        
   2206 ****        30.7500  19.5000  -2.0000 Du        
   2207 ****        30.7500  19.5000  -1.7500 Du        
   2208 ****        30.7500  19.5000  -1.5000 Du        
   2209 ****        30.7500  19.5000  -1.2500 Du        
   2210 ****        30.7500  19.5000  -1.0000 Du        
   2211 ****        30.7500  19.5000  -0.7500 Du        
   2212 ****        30.7500  19.7500  -2.2500 Du        
   2213 ****        30.7500  19.7500  -2.0000 Du        
   2214 ****        30.7500  19.7500  -1.7500 Du        
   2215 ****        30.7500  19.7500  -1.5000 Du        
   2216 ****        30.7500  19.7500  -1.2500 Du        
   2217 ****        30.7500  19.7500  -1.0000 Du        
   2218 ****        30.7500  19.7500  -0.7500 Du        
   2219 ****        30.7500  20.0000  -2.2500 Du        
   2220 ****        30.7500  20.0000  -2.0000 Du        
   2221 ****        30.7500  20.0000  -1.7500 Du        
   2222 ****        30.7500  20.0000  -1.5000 Du        
   2223 ****        30.7500  20.0000  -1.2500 Du        
   2224 ****        30.7500  20.0000  -1.0000 Du        
   2225 ****        30.7500  20.0000  -0.7500 Du        
   2226 ****        30.7500  20.2500  -2.2500 Du        
   2227 ****        30.7500  20.2500  -2.0000 Du        
   2228 ****        30.7500  20.2500  -1.7500 Du        
   2229 ****        30.7500  20.2500  -1.5000 Du        
   2230 ****        30.7500  20.2500  -1.2500 Du        
   2231 ****        30.7500  20.2500  -1.0000 Du        
   2232 ****        30.7500  20.2500  -0.7500 Du        
   2233 ****        31.0000  13.7500   7.5000 Du        
   2234 ****        31.0000  14.0000   7.0000 Du        
   2235 ****        31.0000  14.0000   7.2500 Du        
   2236 ****        31.0000  14.0000   7.5000 Du        
   2237 ****        31.0000  14.0000   7.7500 Du        
   2238 ****        31.0000  14.2500   7.0000 Du        
   2239 ****        31.0000  14.2500   7.2500 Du        
   2240 ****        31.0000  14.2500   7.5000 Du        
   2241 ****        31.0000  14.2500   7.7500 Du        
   2242 ****        31.0000  14.2500   8.0000 Du        
   2243 ****        31.0000  14.2500   8.2500 Du        
   2244 ****        31.0000  14.5000   7.0000 Du        
   2245 ****        31.0000  14.5000   7.2500 Du        
   2246 ****        31.0000  14.5000   7.5000 Du        
   2247 ****        31.0000  14.5000   7.7500 Du        
   2248 ****        31.0000  14.5000   8.0000 Du        
   2249 ****        31.0000  14.5000   8.2500 Du        
   2250 ****        31.0000  14.5000   8.5000 Du        
   2251 ****        31.0000  14.5000   8.7500 Du        
   2252 ****        31.0000  14.7500   6.7500 Du        
   2253 ****        31.0000  14.7500   7.0000 Du        
   2254 ****        31.0000  14.7500   7.2500 Du        
   2255 ****        31.0000  14.7500   7.5000 Du        
   2256 ****        31.0000  14.7500   7.7500 Du        
   2257 ****        31.0000  14.7500   8.0000 Du        
   2258 ****        31.0000  14.7500   8.2500 Du        
   2259 ****        31.0000  14.7500   8.5000 Du        
   2260 ****        31.0000  14.7500   8.7500 Du        
   2261 ****        31.0000  14.7500   9.0000 Du        
   2262 ****        31.0000  15.0000   6.7500 Du        
   2263 ****        31.0000  15.0000   7.0000 Du        
   2264 ****        31.0000  15.0000   7.2500 Du        
   2265 ****        31.0000  15.0000   7.5000 Du        
   2266 ****        31.0000  15.0000   7.7500 Du        
   2267 ****        31.0000  15.0000   8.0000 Du        
   2268 ****        31.0000  15.0000   8.2500 Du        
   2269 ****        31.0000  15.0000   8.5000 Du        
   2270 ****        31.0000  15.0000   8.7500 Du        
   2271 ****        31.0000  15.0000   9.0000 Du        
   2272 ****        31.0000  15.2500   6.7500 Du        
   2273 ****        31.0000  15.2500   7.0000 Du        
   2274 ****        31.0000  15.2500   7.2500 Du        
   2275 ****        31.0000  15.2500   7.5000 Du        
   2276 ****        31.0000  15.2500   7.7500 Du        
   2277 ****        31.0000  15.2500   8.0000 Du        
   2278 ****        31.0000  15.2500   8.2500 Du        
   2279 ****        31.0000  15.2500   8.5000 Du        
   2280 ****        31.0000  15.2500   8.7500 Du        
   2281 ****        31.0000  15.2500   9.0000 Du        
   2282 ****        31.0000  15.5000   6.7500 Du        
   2283 ****        31.0000  15.5000   7.0000 Du        
   2284 ****        31.0000  15.5000   7.2500 Du        
   2285 ****        31.0000  15.5000   7.5000 Du        
   2286 ****        31.0000  15.5000   7.7500 Du        
   2287 ****        31.0000  15.5000   8.0000 Du        
   2288 ****        31.0000  15.5000   8.2500 Du        
   2289 ****        31.0000  15.5000   8.5000 Du        
   2290 ****        31.0000  15.5000   8.7500 Du        
   2291 ****        31.0000  15.5000   9.0000 Du        
   2292 ****        31.0000  15.7500   6.5000 Du        
   2293 ****        31.0000  15.7500   6.7500 Du        
   2294 ****        31.0000  15.7500   7.0000 Du        
   2295 ****        31.0000  15.7500   7.2500 Du        
   2296 ****        31.0000  15.7500   7.5000 Du        
   2297 ****        31.0000  15.7500   7.7500 Du        
   2298 ****        31.0000  15.7500   8.0000 Du        
   2299 ****        31.0000  15.7500   8.2500 Du        
   2300 ****        31.0000  15.7500   8.5000 Du        
   2301 ****        31.0000  15.7500   8.7500 Du        
   2302 ****        31.0000  16.0000   6.5000 Du        
   2303 ****        31.0000  16.0000   6.7500 Du        
   2304 ****        31.0000  16.0000   7.0000 Du        
   2305 ****        31.0000  16.0000   7.2500 Du        
   2306 ****        31.0000  16.0000   7.5000 Du        
   2307 ****        31.0000  16.0000   7.7500 Du        
   2308 ****        31.0000  16.0000   8.0000 Du        
   2309 ****        31.0000  16.0000   8.2500 Du        
   2310 ****        31.0000  16.0000   8.5000 Du        
   2311 ****        31.0000  16.2500   6.2500 Du        
   2312 ****        31.0000  16.2500   6.5000 Du        
   2313 ****        31.0000  16.2500   6.7500 Du        
   2314 ****        31.0000  16.2500   7.0000 Du        
   2315 ****        31.0000  16.2500   7.2500 Du        
   2316 ****        31.0000  16.2500   7.5000 Du        
   2317 ****        31.0000  16.2500   7.7500 Du        
   2318 ****        31.0000  16.2500   8.0000 Du        
   2319 ****        31.0000  16.2500   8.2500 Du        
   2320 ****        31.0000  16.5000   6.0000 Du        
   2321 ****        31.0000  16.5000   6.2500 Du        
   2322 ****        31.0000  16.5000   6.5000 Du        
   2323 ****        31.0000  16.5000   6.7500 Du        
   2324 ****        31.0000  16.5000   7.0000 Du        
   2325 ****        31.0000  16.5000   7.2500 Du        
   2326 ****        31.0000  16.5000   7.5000 Du        
   2327 ****        31.0000  16.5000   7.7500 Du        
   2328 ****        31.0000  16.7500   5.7500 Du        
   2329 ****        31.0000  16.7500   6.0000 Du        
   2330 ****        31.0000  16.7500   6.2500 Du        
   2331 ****        31.0000  16.7500   6.5000 Du        
   2332 ****        31.0000  16.7500   6.7500 Du        
   2333 ****        31.0000  16.7500   7.0000 Du        
   2334 ****        31.0000  16.7500   7.2500 Du        
   2335 ****        31.0000  17.0000   5.0000 Du        
   2336 ****        31.0000  17.0000   5.2500 Du        
   2337 ****        31.0000  17.0000   5.5000 Du        
   2338 ****        31.0000  17.0000   5.7500 Du        
   2339 ****        31.0000  17.0000   6.0000 Du        
   2340 ****        31.0000  17.0000   6.2500 Du        
   2341 ****        31.0000  17.0000   6.5000 Du        
   2342 ****        31.0000  17.0000   6.7500 Du        
   2343 ****        31.0000  17.2500   4.2500 Du        
   2344 ****        31.0000  17.2500   4.5000 Du        
   2345 ****        31.0000  17.2500   4.7500 Du        
   2346 ****        31.0000  17.2500   5.0000 Du        
   2347 ****        31.0000  17.2500   5.2500 Du        
   2348 ****        31.0000  17.2500   5.5000 Du        
   2349 ****        31.0000  17.2500   5.7500 Du        
   2350 ****        31.0000  17.2500   6.0000 Du        
   2351 ****        31.0000  17.5000   3.7500 Du        
   2352 ****        31.0000  17.5000   4.0000 Du        
   2353 ****        31.0000  17.5000   4.2500 Du        
   2354 ****        31.0000  17.5000   4.5000 Du        
   2355 ****        31.0000  17.5000   4.7500 Du        
   2356 ****        31.0000  17.5000   5.0000 Du        
   2357 ****        31.0000  17.5000   5.2500 Du        
   2358 ****        31.0000  17.5000   5.5000 Du        
   2359 ****        31.0000  17.7500   3.5000 Du        
   2360 ****        31.0000  17.7500   3.7500 Du        
   2361 ****        31.0000  17.7500   4.0000 Du        
   2362 ****        31.0000  17.7500   4.2500 Du        
   2363 ****        31.0000  17.7500   4.5000 Du        
   2364 ****        31.0000  17.7500   4.7500 Du        
   2365 ****        31.0000  17.7500   5.0000 Du        
   2366 ****        31.0000  17.7500   5.2500 Du        
   2367 ****        31.0000  18.0000   3.5000 Du        
   2368 ****        31.0000  18.0000   3.7500 Du        
   2369 ****        31.0000  18.0000   4.0000 Du        
   2370 ****        31.0000  18.0000   4.2500 Du        
   2371 ****        31.0000  18.0000   4.5000 Du        
   2372 ****        31.0000  18.0000   4.7500 Du        
   2373 ****        31.0000  18.0000   5.0000 Du        
   2374 ****        31.0000  18.2500   3.5000 Du        
   2375 ****        31.0000  18.2500   3.7500 Du        
   2376 ****        31.0000  18.2500   4.0000 Du        
   2377 ****        31.0000  18.2500   4.2500 Du        
   2378 ****        31.0000  18.2500   4.5000 Du        
   2379 ****        31.0000  18.2500   4.7500 Du        
   2380 ****        31.0000  18.5000   3.7500 Du        
   2381 ****        31.0000  18.5000   4.0000 Du        
   2382 ****        31.0000  18.5000   4.2500 Du        
   2383 ****        31.0000  18.5000   4.5000 Du        
   2384 ****        31.0000  18.7500  -1.7500 Du        
   2385 ****        31.0000  18.7500  -1.5000 Du        
   2386 ****        31.0000  18.7500  -1.2500 Du        
   2387 ****        31.0000  18.7500  -1.0000 Du        
   2388 ****        31.0000  18.7500  -0.7500 Du        
   2389 ****        31.0000  18.7500  -0.5000 Du        
   2390 ****        31.0000  18.7500  -0.2500 Du        
   2391 ****        31.0000  18.7500   0.0000 Du        
   2392 ****        31.0000  18.7500   0.2500 Du        
   2393 ****        31.0000  19.0000  -2.0000 Du        
   2394 ****        31.0000  19.0000  -1.7500 Du        
   2395 ****        31.0000  19.0000  -1.5000 Du        
   2396 ****        31.0000  19.0000  -1.2500 Du        
   2397 ****        31.0000  19.0000  -1.0000 Du        
   2398 ****        31.0000  19.0000  -0.7500 Du        
   2399 ****        31.0000  19.0000  -0.5000 Du        
   2400 ****        31.0000  19.0000  -0.2500 Du        
   2401 ****        31.0000  19.0000   0.0000 Du        
   2402 ****        31.0000  19.0000   0.2500 Du        
   2403 ****        31.0000  19.2500  -2.0000 Du        
   2404 ****        31.0000  19.2500  -1.7500 Du        
   2405 ****        31.0000  19.2500  -1.5000 Du        
   2406 ****        31.0000  19.2500  -1.2500 Du        
   2407 ****        31.0000  19.2500  -1.0000 Du        
   2408 ****        31.0000  19.2500  -0.7500 Du        
   2409 ****        31.0000  19.2500  -0.5000 Du        
   2410 ****        31.0000  19.2500  -0.2500 Du        
   2411 ****        31.0000  19.2500   0.0000 Du        
   2412 ****        31.0000  19.5000  -1.7500 Du        
   2413 ****        31.0000  19.5000  -1.5000 Du        
   2414 ****        31.0000  19.5000  -1.2500 Du        
   2415 ****        31.0000  19.5000  -1.0000 Du        
   2416 ****        31.0000  19.5000  -0.7500 Du        
   2417 ****        31.0000  19.7500  -2.0000 Du        
   2418 ****        31.0000  19.7500  -1.7500 Du        
   2419 ****        31.0000  19.7500  -1.5000 Du        
   2420 ****        31.0000  19.7500  -1.2500 Du        
   2421 ****        31.0000  19.7500  -1.0000 Du        
   2422 ****        31.0000  19.7500  -0.7500 Du        
   2423 ****        31.0000  20.0000  -2.0000 Du        
   2424 ****        31.0000  20.0000  -1.7500 Du        
   2425 ****        31.0000  20.0000  -1.5000 Du        
   2426 ****        31.0000  20.0000  -1.2500 Du        
   2427 ****        31.0000  20.0000  -1.0000 Du        
   2428 ****        31.0000  20.2500  -1.5000 Du        
   2429 ****        31.0000  20.2500  -1.2500 Du        
   2430 ****        31.0000  20.2500  -1.0000 Du        
   2431 ****        31.2500  13.5000   7.5000 Du        
   2432 ****        31.2500  13.5000   7.7500 Du        
   2433 ****        31.2500  13.7500   7.2500 Du        
   2434 ****        31.2500  13.7500   7.5000 Du        
   2435 ****        31.2500  13.7500   7.7500 Du        
   2436 ****        31.2500  13.7500   8.0000 Du        
   2437 ****        31.2500  14.0000   7.0000 Du        
   2438 ****        31.2500  14.0000   7.2500 Du        
   2439 ****        31.2500  14.0000   7.5000 Du        
   2440 ****        31.2500  14.0000   7.7500 Du        
   2441 ****        31.2500  14.0000   8.0000 Du        
   2442 ****        31.2500  14.0000   8.2500 Du        
   2443 ****        31.2500  14.0000   8.5000 Du        
   2444 ****        31.2500  14.2500   7.0000 Du        
   2445 ****        31.2500  14.2500   7.2500 Du        
   2446 ****        31.2500  14.2500   7.5000 Du        
   2447 ****        31.2500  14.2500   7.7500 Du        
   2448 ****        31.2500  14.2500   8.0000 Du        
   2449 ****        31.2500  14.2500   8.2500 Du        
   2450 ****        31.2500  14.2500   8.5000 Du        
   2451 ****        31.2500  14.2500   8.7500 Du        
   2452 ****        31.2500  14.5000   7.0000 Du        
   2453 ****        31.2500  14.5000   7.2500 Du        
   2454 ****        31.2500  14.5000   7.5000 Du        
   2455 ****        31.2500  14.5000   7.7500 Du        
   2456 ****        31.2500  14.5000   8.0000 Du        
   2457 ****        31.2500  14.5000   8.2500 Du        
   2458 ****        31.2500  14.5000   8.5000 Du        
   2459 ****        31.2500  14.5000   8.7500 Du        
   2460 ****        31.2500  14.5000   9.0000 Du        
   2461 ****        31.2500  14.7500   6.7500 Du        
   2462 ****        31.2500  14.7500   7.0000 Du        
   2463 ****        31.2500  14.7500   7.2500 Du        
   2464 ****        31.2500  14.7500   7.5000 Du        
   2465 ****        31.2500  14.7500   7.7500 Du        
   2466 ****        31.2500  14.7500   8.0000 Du        
   2467 ****        31.2500  14.7500   8.2500 Du        
   2468 ****        31.2500  14.7500   8.5000 Du        
   2469 ****        31.2500  14.7500   8.7500 Du        
   2470 ****        31.2500  14.7500   9.0000 Du        
   2471 ****        31.2500  15.0000   6.7500 Du        
   2472 ****        31.2500  15.0000   7.0000 Du        
   2473 ****        31.2500  15.0000   7.2500 Du        
   2474 ****        31.2500  15.0000   7.5000 Du        
   2475 ****        31.2500  15.0000   7.7500 Du        
   2476 ****        31.2500  15.0000   8.0000 Du        
   2477 ****        31.2500  15.0000   8.2500 Du        
   2478 ****        31.2500  15.0000   8.5000 Du        
   2479 ****        31.2500  15.0000   8.7500 Du        
   2480 ****        31.2500  15.0000   9.0000 Du        
   2481 ****        31.2500  15.2500   6.7500 Du        
   2482 ****        31.2500  15.2500   7.0000 Du        
   2483 ****        31.2500  15.2500   7.2500 Du        
   2484 ****        31.2500  15.2500   7.5000 Du        
   2485 ****        31.2500  15.2500   7.7500 Du        
   2486 ****        31.2500  15.2500   8.0000 Du        
   2487 ****        31.2500  15.2500   8.2500 Du        
   2488 ****        31.2500  15.2500   8.5000 Du        
   2489 ****        31.2500  15.2500   8.7500 Du        
   2490 ****        31.2500  15.2500   9.0000 Du        
   2491 ****        31.2500  15.5000   6.7500 Du        
   2492 ****        31.2500  15.5000   7.0000 Du        
   2493 ****        31.2500  15.5000   7.2500 Du        
   2494 ****        31.2500  15.5000   7.5000 Du        
   2495 ****        31.2500  15.5000   7.7500 Du        
   2496 ****        31.2500  15.5000   8.0000 Du        
   2497 ****        31.2500  15.5000   8.2500 Du        
   2498 ****        31.2500  15.5000   8.5000 Du        
   2499 ****        31.2500  15.5000   8.7500 Du        
   2500 ****        31.2500  15.7500   6.5000 Du        
   2501 ****        31.2500  15.7500   6.7500 Du        
   2502 ****        31.2500  15.7500   7.0000 Du        
   2503 ****        31.2500  15.7500   7.2500 Du        
   2504 ****        31.2500  15.7500   7.5000 Du        
   2505 ****        31.2500  15.7500   7.7500 Du        
   2506 ****        31.2500  15.7500   8.0000 Du        
   2507 ****        31.2500  15.7500   8.2500 Du        
   2508 ****        31.2500  15.7500   8.5000 Du        
   2509 ****        31.2500  15.7500   8.7500 Du        
   2510 ****        31.2500  16.0000   6.5000 Du        
   2511 ****        31.2500  16.0000   6.7500 Du        
   2512 ****        31.2500  16.0000   7.0000 Du        
   2513 ****        31.2500  16.0000   7.2500 Du        
   2514 ****        31.2500  16.0000   7.5000 Du        
   2515 ****        31.2500  16.0000   7.7500 Du        
   2516 ****        31.2500  16.0000   8.0000 Du        
   2517 ****        31.2500  16.0000   8.2500 Du        
   2518 ****        31.2500  16.0000   8.5000 Du        
   2519 ****        31.2500  16.2500   6.2500 Du        
   2520 ****        31.2500  16.2500   6.5000 Du        
   2521 ****        31.2500  16.2500   6.7500 Du        
   2522 ****        31.2500  16.2500   7.0000 Du        
   2523 ****        31.2500  16.2500   7.2500 Du        
   2524 ****        31.2500  16.2500   7.5000 Du        
   2525 ****        31.2500  16.2500   7.7500 Du        
   2526 ****        31.2500  16.2500   8.0000 Du        
   2527 ****        31.2500  16.2500   8.2500 Du        
   2528 ****        31.2500  16.5000   6.0000 Du        
   2529 ****        31.2500  16.5000   6.2500 Du        
   2530 ****        31.2500  16.5000   6.5000 Du        
   2531 ****        31.2500  16.5000   6.7500 Du        
   2532 ****        31.2500  16.5000   7.0000 Du        
   2533 ****        31.2500  16.5000   7.2500 Du        
   2534 ****        31.2500  16.5000   7.5000 Du        
   2535 ****        31.2500  16.5000   7.7500 Du        
   2536 ****        31.2500  16.5000   8.0000 Du        
   2537 ****        31.2500  16.7500   5.7500 Du        
   2538 ****        31.2500  16.7500   6.0000 Du        
   2539 ****        31.2500  16.7500   6.2500 Du        
   2540 ****        31.2500  16.7500   6.5000 Du        
   2541 ****        31.2500  16.7500   6.7500 Du        
   2542 ****        31.2500  16.7500   7.0000 Du        
   2543 ****        31.2500  16.7500   7.2500 Du        
   2544 ****        31.2500  16.7500   7.5000 Du        
   2545 ****        31.2500  16.7500   7.7500 Du        
   2546 ****        31.2500  17.0000   5.0000 Du        
   2547 ****        31.2500  17.0000   5.2500 Du        
   2548 ****        31.2500  17.0000   5.5000 Du        
   2549 ****        31.2500  17.0000   5.7500 Du        
   2550 ****        31.2500  17.0000   6.0000 Du        
   2551 ****        31.2500  17.0000   6.2500 Du        
   2552 ****        31.2500  17.0000   6.5000 Du        
   2553 ****        31.2500  17.0000   6.7500 Du        
   2554 ****        31.2500  17.0000   7.0000 Du        
   2555 ****        31.2500  17.2500   4.5000 Du        
   2556 ****        31.2500  17.2500   4.7500 Du        
   2557 ****        31.2500  17.2500   5.0000 Du        
   2558 ****        31.2500  17.2500   5.2500 Du        
   2559 ****        31.2500  17.2500   5.5000 Du        
   2560 ****        31.2500  17.2500   5.7500 Du        
   2561 ****        31.2500  17.2500   6.0000 Du        
   2562 ****        31.2500  17.5000   4.0000 Du        
   2563 ****        31.2500  17.5000   4.2500 Du        
   2564 ****        31.2500  17.5000   4.5000 Du        
   2565 ****        31.2500  17.5000   4.7500 Du        
   2566 ****        31.2500  17.5000   5.0000 Du        
   2567 ****        31.2500  17.5000   5.2500 Du        
   2568 ****        31.2500  17.5000   5.5000 Du        
   2569 ****        31.2500  17.7500   3.5000 Du        
   2570 ****        31.2500  17.7500   3.7500 Du        
   2571 ****        31.2500  17.7500   4.0000 Du        
   2572 ****        31.2500  17.7500   4.2500 Du        
   2573 ****        31.2500  17.7500   4.5000 Du        
   2574 ****        31.2500  17.7500   4.7500 Du        
   2575 ****        31.2500  17.7500   5.0000 Du        
   2576 ****        31.2500  17.7500   5.2500 Du        
   2577 ****        31.2500  18.0000   3.5000 Du        
   2578 ****        31.2500  18.0000   3.7500 Du        
   2579 ****        31.2500  18.0000   4.0000 Du        
   2580 ****        31.2500  18.0000   4.2500 Du        
   2581 ****        31.2500  18.0000   4.5000 Du        
   2582 ****        31.2500  18.0000   4.7500 Du        
   2583 ****        31.2500  18.0000   5.0000 Du        
   2584 ****        31.2500  18.2500   3.5000 Du        
   2585 ****        31.2500  18.2500   3.7500 Du        
   2586 ****        31.2500  18.2500   4.0000 Du        
   2587 ****        31.2500  18.2500   4.2500 Du        
   2588 ****        31.2500  18.2500   4.5000 Du        
   2589 ****        31.2500  18.2500   4.7500 Du        
   2590 ****        31.2500  18.5000  -0.7500 Du        
   2591 ****        31.2500  18.5000  -0.2500 Du        
   2592 ****        31.2500  18.5000   0.0000 Du        
   2593 ****        31.2500  18.5000   4.2500 Du        
   2594 ****        31.2500  18.7500  -1.5000 Du        
   2595 ****        31.2500  18.7500  -1.2500 Du        
   2596 ****        31.2500  18.7500  -1.0000 Du        
   2597 ****        31.2500  18.7500  -0.7500 Du        
   2598 ****        31.2500  18.7500  -0.5000 Du        
   2599 ****        31.2500  18.7500  -0.2500 Du        
   2600 ****        31.2500  18.7500   0.0000 Du        
   2601 ****        31.2500  18.7500   0.2500 Du        
   2602 ****        31.2500  19.0000  -1.5000 Du        
   2603 ****        31.2500  19.0000  -1.2500 Du        
   2604 ****        31.2500  19.0000  -1.0000 Du        
   2605 ****        31.2500  19.0000  -0.7500 Du        
   2606 ****        31.2500  19.0000  -0.5000 Du        
   2607 ****        31.2500  19.0000  -0.2500 Du        
   2608 ****        31.2500  19.0000   0.0000 Du        
   2609 ****        31.2500  19.2500  -1.7500 Du        
   2610 ****        31.2500  19.2500  -1.5000 Du        
   2611 ****        31.2500  19.2500  -1.2500 Du        
   2612 ****        31.2500  19.2500  -1.0000 Du        
   2613 ****        31.2500  19.2500  -0.7500 Du        
   2614 ****        31.2500  19.2500  -0.5000 Du        
   2615 ****        31.2500  19.2500  -0.2500 Du        
   2616 ****        31.5000  13.2500   7.7500 Du        
   2617 ****        31.5000  13.2500   8.0000 Du        
   2618 ****        31.5000  13.5000   7.5000 Du        
   2619 ****        31.5000  13.5000   7.7500 Du        
   2620 ****        31.5000  13.5000   8.0000 Du        
   2621 ****        31.5000  13.5000   8.2500 Du        
   2622 ****        31.5000  13.7500   7.2500 Du        
   2623 ****        31.5000  13.7500   7.5000 Du        
   2624 ****        31.5000  13.7500   7.7500 Du        
   2625 ****        31.5000  13.7500   8.0000 Du        
   2626 ****        31.5000  13.7500   8.2500 Du        
   2627 ****        31.5000  13.7500   8.5000 Du        
   2628 ****        31.5000  14.0000   7.0000 Du        
   2629 ****        31.5000  14.0000   7.2500 Du        
   2630 ****        31.5000  14.0000   7.5000 Du        
   2631 ****        31.5000  14.0000   7.7500 Du        
   2632 ****        31.5000  14.0000   8.0000 Du        
   2633 ****        31.5000  14.0000   8.2500 Du        
   2634 ****        31.5000  14.0000   8.5000 Du        
   2635 ****        31.5000  14.0000   8.7500 Du        
   2636 ****        31.5000  14.2500   7.0000 Du        
   2637 ****        31.5000  14.2500   7.2500 Du        
   2638 ****        31.5000  14.2500   7.5000 Du        
   2639 ****        31.5000  14.2500   7.7500 Du        
   2640 ****        31.5000  14.2500   8.0000 Du        
   2641 ****        31.5000  14.2500   8.2500 Du        
   2642 ****        31.5000  14.2500   8.5000 Du        
   2643 ****        31.5000  14.2500   8.7500 Du        
   2644 ****        31.5000  14.5000   7.0000 Du        
   2645 ****        31.5000  14.5000   7.2500 Du        
   2646 ****        31.5000  14.5000   7.5000 Du        
   2647 ****        31.5000  14.5000   7.7500 Du        
   2648 ****        31.5000  14.5000   8.0000 Du        
   2649 ****        31.5000  14.5000   8.2500 Du        
   2650 ****        31.5000  14.5000   8.5000 Du        
   2651 ****        31.5000  14.5000   8.7500 Du        
   2652 ****        31.5000  14.7500   7.0000 Du        
   2653 ****        31.5000  14.7500   7.2500 Du        
   2654 ****        31.5000  14.7500   7.5000 Du        
   2655 ****        31.5000  14.7500   7.7500 Du        
   2656 ****        31.5000  14.7500   8.0000 Du        
   2657 ****        31.5000  14.7500   8.2500 Du        
   2658 ****        31.5000  14.7500   8.5000 Du        
   2659 ****        31.5000  14.7500   8.7500 Du        
   2660 ****        31.5000  15.0000   6.7500 Du        
   2661 ****        31.5000  15.0000   7.0000 Du        
   2662 ****        31.5000  15.0000   7.2500 Du        
   2663 ****        31.5000  15.0000   7.5000 Du        
   2664 ****        31.5000  15.0000   7.7500 Du        
   2665 ****        31.5000  15.0000   8.0000 Du        
   2666 ****        31.5000  15.0000   8.2500 Du        
   2667 ****        31.5000  15.0000   8.5000 Du        
   2668 ****        31.5000  15.0000   8.7500 Du        
   2669 ****        31.5000  15.2500   6.7500 Du        
   2670 ****        31.5000  15.2500   7.0000 Du        
   2671 ****        31.5000  15.2500   7.2500 Du        
   2672 ****        31.5000  15.2500   7.5000 Du        
   2673 ****        31.5000  15.2500   7.7500 Du        
   2674 ****        31.5000  15.2500   8.0000 Du        
   2675 ****        31.5000  15.2500   8.2500 Du        
   2676 ****        31.5000  15.2500   8.5000 Du        
   2677 ****        31.5000  15.2500   8.7500 Du        
   2678 ****        31.5000  15.5000   6.7500 Du        
   2679 ****        31.5000  15.5000   7.0000 Du        
   2680 ****        31.5000  15.5000   7.2500 Du        
   2681 ****        31.5000  15.5000   7.5000 Du        
   2682 ****        31.5000  15.5000   7.7500 Du        
   2683 ****        31.5000  15.5000   8.0000 Du        
   2684 ****        31.5000  15.5000   8.2500 Du        
   2685 ****        31.5000  15.5000   8.5000 Du        
   2686 ****        31.5000  15.7500   6.7500 Du        
   2687 ****        31.5000  15.7500   7.0000 Du        
   2688 ****        31.5000  15.7500   7.2500 Du        
   2689 ****        31.5000  15.7500   7.5000 Du        
   2690 ****        31.5000  15.7500   7.7500 Du        
   2691 ****        31.5000  15.7500   8.0000 Du        
   2692 ****        31.5000  15.7500   8.2500 Du        
   2693 ****        31.5000  15.7500   8.5000 Du        
   2694 ****        31.5000  16.0000   6.5000 Du        
   2695 ****        31.5000  16.0000   6.7500 Du        
   2696 ****        31.5000  16.0000   7.0000 Du        
   2697 ****        31.5000  16.0000   7.2500 Du        
   2698 ****        31.5000  16.0000   7.5000 Du        
   2699 ****        31.5000  16.0000   7.7500 Du        
   2700 ****        31.5000  16.0000   8.0000 Du        
   2701 ****        31.5000  16.0000   8.2500 Du        
   2702 ****        31.5000  16.2500   6.2500 Du        
   2703 ****        31.5000  16.2500   6.5000 Du        
   2704 ****        31.5000  16.2500   6.7500 Du        
   2705 ****        31.5000  16.2500   7.0000 Du        
   2706 ****        31.5000  16.2500   7.2500 Du        
   2707 ****        31.5000  16.2500   7.5000 Du        
   2708 ****        31.5000  16.2500   7.7500 Du        
   2709 ****        31.5000  16.2500   8.0000 Du        
   2710 ****        31.5000  16.2500   8.2500 Du        
   2711 ****        31.5000  16.5000   6.2500 Du        
   2712 ****        31.5000  16.5000   6.5000 Du        
   2713 ****        31.5000  16.5000   6.7500 Du        
   2714 ****        31.5000  16.5000   7.0000 Du        
   2715 ****        31.5000  16.5000   7.2500 Du        
   2716 ****        31.5000  16.5000   7.5000 Du        
   2717 ****        31.5000  16.5000   7.7500 Du        
   2718 ****        31.5000  16.5000   8.0000 Du        
   2719 ****        31.5000  16.7500   6.2500 Du        
   2720 ****        31.5000  16.7500   6.5000 Du        
   2721 ****        31.5000  16.7500   6.7500 Du        
   2722 ****        31.5000  16.7500   7.0000 Du        
   2723 ****        31.5000  16.7500   7.2500 Du        
   2724 ****        31.5000  17.2500   5.0000 Du        
   2725 ****        31.5000  17.2500   5.2500 Du        
   2726 ****        31.5000  17.5000   4.2500 Du        
   2727 ****        31.5000  17.5000   4.5000 Du        
   2728 ****        31.5000  17.5000   4.7500 Du        
   2729 ****        31.5000  17.5000   5.0000 Du        
   2730 ****        31.5000  17.7500   3.7500 Du        
   2731 ****        31.5000  17.7500   4.0000 Du        
   2732 ****        31.5000  17.7500   4.2500 Du        
   2733 ****        31.5000  17.7500   4.5000 Du        
   2734 ****        31.5000  17.7500   4.7500 Du        
   2735 ****        31.5000  17.7500   5.0000 Du        
   2736 ****        31.5000  18.0000   3.7500 Du        
   2737 ****        31.5000  18.0000   4.0000 Du        
   2738 ****        31.5000  18.0000   4.2500 Du        
   2739 ****        31.5000  18.0000   4.5000 Du        
   2740 ****        31.5000  18.0000   4.7500 Du        
   2741 ****        31.5000  18.0000   5.0000 Du        
   2742 ****        31.5000  18.2500   4.0000 Du        
   2743 ****        31.5000  18.2500   4.2500 Du        
   2744 ****        31.5000  18.2500   4.5000 Du        
   2745 ****        31.7500  13.0000   7.7500 Du        
   2746 ****        31.7500  13.0000   8.0000 Du        
   2747 ****        31.7500  13.0000   8.2500 Du        
   2748 ****        31.7500  13.0000   8.5000 Du        
   2749 ****        31.7500  13.0000   8.7500 Du        
   2750 ****        31.7500  13.2500   7.5000 Du        
   2751 ****        31.7500  13.2500   7.7500 Du        
   2752 ****        31.7500  13.2500   8.0000 Du        
   2753 ****        31.7500  13.2500   8.2500 Du        
   2754 ****        31.7500  13.2500   8.5000 Du        
   2755 ****        31.7500  13.2500   8.7500 Du        
   2756 ****        31.7500  13.5000   7.2500 Du        
   2757 ****        31.7500  13.5000   7.5000 Du        
   2758 ****        31.7500  13.5000   7.7500 Du        
   2759 ****        31.7500  13.5000   8.0000 Du        
   2760 ****        31.7500  13.5000   8.2500 Du        
   2761 ****        31.7500  13.5000   8.5000 Du        
   2762 ****        31.7500  13.5000   8.7500 Du        
   2763 ****        31.7500  13.7500   7.2500 Du        
   2764 ****        31.7500  13.7500   7.5000 Du        
   2765 ****        31.7500  13.7500   7.7500 Du        
   2766 ****        31.7500  13.7500   8.0000 Du        
   2767 ****        31.7500  13.7500   8.2500 Du        
   2768 ****        31.7500  13.7500   8.5000 Du        
   2769 ****        31.7500  13.7500   8.7500 Du        
   2770 ****        31.7500  14.0000   7.0000 Du        
   2771 ****        31.7500  14.0000   7.2500 Du        
   2772 ****        31.7500  14.0000   7.5000 Du        
   2773 ****        31.7500  14.0000   7.7500 Du        
   2774 ****        31.7500  14.0000   8.0000 Du        
   2775 ****        31.7500  14.0000   8.2500 Du        
   2776 ****        31.7500  14.0000   8.5000 Du        
   2777 ****        31.7500  14.0000   8.7500 Du        
   2778 ****        31.7500  14.2500   7.0000 Du        
   2779 ****        31.7500  14.2500   7.2500 Du        
   2780 ****        31.7500  14.2500   7.5000 Du        
   2781 ****        31.7500  14.2500   7.7500 Du        
   2782 ****        31.7500  14.2500   8.0000 Du        
   2783 ****        31.7500  14.2500   8.2500 Du        
   2784 ****        31.7500  14.2500   8.5000 Du        
   2785 ****        31.7500  14.2500   8.7500 Du        
   2786 ****        31.7500  14.5000   7.0000 Du        
   2787 ****        31.7500  14.5000   7.2500 Du        
   2788 ****        31.7500  14.5000   7.5000 Du        
   2789 ****        31.7500  14.5000   7.7500 Du        
   2790 ****        31.7500  14.5000   8.0000 Du        
   2791 ****        31.7500  14.5000   8.2500 Du        
   2792 ****        31.7500  14.5000   8.5000 Du        
   2793 ****        31.7500  14.5000   8.7500 Du        
   2794 ****        31.7500  14.7500   6.7500 Du        
   2795 ****        31.7500  14.7500   7.0000 Du        
   2796 ****        31.7500  14.7500   7.2500 Du        
   2797 ****        31.7500  14.7500   7.5000 Du        
   2798 ****        31.7500  14.7500   7.7500 Du        
   2799 ****        31.7500  14.7500   8.0000 Du        
   2800 ****        31.7500  14.7500   8.2500 Du        
   2801 ****        31.7500  14.7500   8.5000 Du        
   2802 ****        31.7500  14.7500   8.7500 Du        
   2803 ****        31.7500  15.0000   6.7500 Du        
   2804 ****        31.7500  15.0000   7.0000 Du        
   2805 ****        31.7500  15.0000   7.2500 Du        
   2806 ****        31.7500  15.0000   7.5000 Du        
   2807 ****        31.7500  15.0000   7.7500 Du        
   2808 ****        31.7500  15.0000   8.0000 Du        
   2809 ****        31.7500  15.0000   8.2500 Du        
   2810 ****        31.7500  15.0000   8.5000 Du        
   2811 ****        31.7500  15.0000   8.7500 Du        
   2812 ****        31.7500  15.2500   6.7500 Du        
   2813 ****        31.7500  15.2500   7.0000 Du        
   2814 ****        31.7500  15.2500   7.2500 Du        
   2815 ****        31.7500  15.2500   7.5000 Du        
   2816 ****        31.7500  15.2500   7.7500 Du        
   2817 ****        31.7500  15.2500   8.0000 Du        
   2818 ****        31.7500  15.2500   8.2500 Du        
   2819 ****        31.7500  15.2500   8.5000 Du        
   2820 ****        31.7500  15.5000   6.7500 Du        
   2821 ****        31.7500  15.5000   7.0000 Du        
   2822 ****        31.7500  15.5000   7.2500 Du        
   2823 ****        31.7500  15.5000   7.5000 Du        
   2824 ****        31.7500  15.5000   7.7500 Du        
   2825 ****        31.7500  15.5000   8.0000 Du        
   2826 ****        31.7500  15.5000   8.2500 Du        
   2827 ****        31.7500  15.5000   8.5000 Du        
   2828 ****        31.7500  15.7500   6.7500 Du        
   2829 ****        31.7500  15.7500   7.0000 Du        
   2830 ****        31.7500  15.7500   7.2500 Du        
   2831 ****        31.7500  15.7500   7.5000 Du        
   2832 ****        31.7500  15.7500   7.7500 Du        
   2833 ****        31.7500  15.7500   8.0000 Du        
   2834 ****        31.7500  15.7500   8.2500 Du        
   2835 ****        31.7500  16.0000   6.5000 Du        
   2836 ****        31.7500  16.0000   6.7500 Du        
   2837 ****        31.7500  16.0000   7.0000 Du        
   2838 ****        31.7500  16.0000   7.2500 Du        
   2839 ****        31.7500  16.0000   7.5000 Du        
   2840 ****        31.7500  16.0000   7.7500 Du        
   2841 ****        31.7500  16.0000   8.0000 Du        
   2842 ****        31.7500  16.0000   8.2500 Du        
   2843 ****        31.7500  16.2500   6.5000 Du        
   2844 ****        31.7500  16.2500   6.7500 Du        
   2845 ****        31.7500  16.2500   7.0000 Du        
   2846 ****        31.7500  16.2500   7.2500 Du        
   2847 ****        31.7500  16.2500   7.5000 Du        
   2848 ****        31.7500  16.2500   7.7500 Du        
   2849 ****        31.7500  16.2500   8.0000 Du        
   2850 ****        31.7500  16.2500   8.2500 Du        
   2851 ****        31.7500  16.5000   6.7500 Du        
   2852 ****        31.7500  16.5000   7.0000 Du        
   2853 ****        31.7500  16.5000   7.2500 Du        
   2854 ****        31.7500  16.5000   7.5000 Du        
   2855 ****        31.7500  16.5000   7.7500 Du        
   2856 ****        31.7500  16.5000   8.0000 Du        
   2857 ****        31.7500  16.7500   6.5000 Du        
   2858 ****        31.7500  16.7500   6.7500 Du        
   2859 ****        31.7500  16.7500   7.0000 Du        
   2860 ****        31.7500  16.7500   7.2500 Du        
   2861 ****        31.7500  16.7500   7.5000 Du        
   2862 ****        31.7500  16.7500   7.7500 Du        
   2863 ****        31.7500  17.0000   7.0000 Du        
   2864 ****        31.7500  17.0000   7.2500 Du        
   2865 ****        31.7500  17.2500   5.0000 Du        
   2866 ****        31.7500  17.2500   5.2500 Du        
   2867 ****        31.7500  17.5000   4.2500 Du        
   2868 ****        31.7500  17.5000   4.7500 Du        
   2869 ****        31.7500  17.5000   5.0000 Du        
   2870 ****        31.7500  17.7500   4.0000 Du        
   2871 ****        31.7500  17.7500   4.2500 Du        
   2872 ****        31.7500  17.7500   4.5000 Du        
   2873 ****        31.7500  17.7500   4.7500 Du        
   2874 ****        31.7500  17.7500   5.0000 Du        
   2875 ****        31.7500  18.0000   4.0000 Du        
   2876 ****        31.7500  18.0000   4.2500 Du        
   2877 ****        31.7500  18.0000   4.5000 Du        
   2878 ****        31.7500  18.0000   4.7500 Du        
   2879 ****        31.7500  18.0000   5.0000 Du        
   2880 ****        31.7500  18.2500   4.2500 Du        
   2881 ****        31.7500  18.2500   4.5000 Du        
   2882 ****        32.0000  12.5000   8.2500 Du        
   2883 ****        32.0000  12.5000   8.5000 Du        
   2884 ****        32.0000  12.5000   8.7500 Du        
   2885 ****        32.0000  12.5000   9.0000 Du        
   2886 ****        32.0000  12.7500   7.7500 Du        
   2887 ****        32.0000  12.7500   8.0000 Du        
   2888 ****        32.0000  12.7500   8.2500 Du        
   2889 ****        32.0000  12.7500   8.5000 Du        
   2890 ****        32.0000  12.7500   8.7500 Du        
   2891 ****        32.0000  12.7500   9.0000 Du        
   2892 ****        32.0000  13.0000   7.5000 Du        
   2893 ****        32.0000  13.0000   7.7500 Du        
   2894 ****        32.0000  13.0000   8.0000 Du        
   2895 ****        32.0000  13.0000   8.2500 Du        
   2896 ****        32.0000  13.0000   8.5000 Du        
   2897 ****        32.0000  13.0000   8.7500 Du        
   2898 ****        32.0000  13.2500   7.2500 Du        
   2899 ****        32.0000  13.2500   7.5000 Du        
   2900 ****        32.0000  13.2500   7.7500 Du        
   2901 ****        32.0000  13.2500   8.0000 Du        
   2902 ****        32.0000  13.2500   8.2500 Du        
   2903 ****        32.0000  13.2500   8.5000 Du        
   2904 ****        32.0000  13.2500   8.7500 Du        
   2905 ****        32.0000  13.5000   7.2500 Du        
   2906 ****        32.0000  13.5000   7.5000 Du        
   2907 ****        32.0000  13.5000   7.7500 Du        
   2908 ****        32.0000  13.5000   8.0000 Du        
   2909 ****        32.0000  13.5000   8.2500 Du        
   2910 ****        32.0000  13.5000   8.5000 Du        
   2911 ****        32.0000  13.5000   8.7500 Du        
   2912 ****        32.0000  13.7500   7.0000 Du        
   2913 ****        32.0000  13.7500   7.2500 Du        
   2914 ****        32.0000  13.7500   7.5000 Du        
   2915 ****        32.0000  13.7500   7.7500 Du        
   2916 ****        32.0000  13.7500   8.0000 Du        
   2917 ****        32.0000  13.7500   8.2500 Du        
   2918 ****        32.0000  13.7500   8.5000 Du        
   2919 ****        32.0000  14.0000   7.0000 Du        
   2920 ****        32.0000  14.0000   7.2500 Du        
   2921 ****        32.0000  14.0000   7.5000 Du        
   2922 ****        32.0000  14.0000   7.7500 Du        
   2923 ****        32.0000  14.0000   8.0000 Du        
   2924 ****        32.0000  14.0000   8.2500 Du        
   2925 ****        32.0000  14.0000   8.5000 Du        
   2926 ****        32.0000  14.2500   7.0000 Du        
   2927 ****        32.0000  14.2500   7.2500 Du        
   2928 ****        32.0000  14.2500   7.5000 Du        
   2929 ****        32.0000  14.2500   7.7500 Du        
   2930 ****        32.0000  14.2500   8.0000 Du        
   2931 ****        32.0000  14.2500   8.2500 Du        
   2932 ****        32.0000  14.2500   8.5000 Du        
   2933 ****        32.0000  14.5000   7.0000 Du        
   2934 ****        32.0000  14.5000   7.2500 Du        
   2935 ****        32.0000  14.5000   7.5000 Du        
   2936 ****        32.0000  14.5000   7.7500 Du        
   2937 ****        32.0000  14.5000   8.0000 Du        
   2938 ****        32.0000  14.5000   8.2500 Du        
   2939 ****        32.0000  14.5000   8.5000 Du        
   2940 ****        32.0000  14.7500   6.7500 Du        
   2941 ****        32.0000  14.7500   7.0000 Du        
   2942 ****        32.0000  14.7500   7.2500 Du        
   2943 ****        32.0000  14.7500   7.5000 Du        
   2944 ****        32.0000  14.7500   7.7500 Du        
   2945 ****        32.0000  14.7500   8.0000 Du        
   2946 ****        32.0000  14.7500   8.2500 Du        
   2947 ****        32.0000  14.7500   8.5000 Du        
   2948 ****        32.0000  15.0000   6.7500 Du        
   2949 ****        32.0000  15.0000   7.0000 Du        
   2950 ****        32.0000  15.0000   7.2500 Du        
   2951 ****        32.0000  15.0000   7.5000 Du        
   2952 ****        32.0000  15.0000   7.7500 Du        
   2953 ****        32.0000  15.0000   8.0000 Du        
   2954 ****        32.0000  15.0000   8.2500 Du        
   2955 ****        32.0000  15.0000   8.5000 Du        
   2956 ****        32.0000  15.2500   6.7500 Du        
   2957 ****        32.0000  15.2500   7.0000 Du        
   2958 ****        32.0000  15.2500   7.2500 Du        
   2959 ****        32.0000  15.2500   7.5000 Du        
   2960 ****        32.0000  15.2500   7.7500 Du        
   2961 ****        32.0000  15.2500   8.0000 Du        
   2962 ****        32.0000  15.2500   8.2500 Du        
   2963 ****        32.0000  15.2500   8.5000 Du        
   2964 ****        32.0000  15.5000   6.7500 Du        
   2965 ****        32.0000  15.5000   7.0000 Du        
   2966 ****        32.0000  15.5000   7.2500 Du        
   2967 ****        32.0000  15.5000   7.5000 Du        
   2968 ****        32.0000  15.5000   7.7500 Du        
   2969 ****        32.0000  15.5000   8.0000 Du        
   2970 ****        32.0000  15.5000   8.2500 Du        
   2971 ****        32.0000  15.7500   6.7500 Du        
   2972 ****        32.0000  15.7500   7.0000 Du        
   2973 ****        32.0000  15.7500   7.2500 Du        
   2974 ****        32.0000  15.7500   7.5000 Du        
   2975 ****        32.0000  15.7500   7.7500 Du        
   2976 ****        32.0000  15.7500   8.0000 Du        
   2977 ****        32.0000  15.7500   8.2500 Du        
   2978 ****        32.0000  16.0000   6.7500 Du        
   2979 ****        32.0000  16.0000   7.0000 Du        
   2980 ****        32.0000  16.0000   7.2500 Du        
   2981 ****        32.0000  16.0000   7.5000 Du        
   2982 ****        32.0000  16.0000   7.7500 Du        
   2983 ****        32.0000  16.0000   8.0000 Du        
   2984 ****        32.0000  16.0000   8.2500 Du        
   2985 ****        32.0000  16.2500   6.7500 Du        
   2986 ****        32.0000  16.2500   7.0000 Du        
   2987 ****        32.0000  16.2500   7.2500 Du        
   2988 ****        32.0000  16.2500   7.5000 Du        
   2989 ****        32.0000  16.2500   7.7500 Du        
   2990 ****        32.0000  16.2500   8.0000 Du        
   2991 ****        32.0000  16.5000   6.7500 Du        
   2992 ****        32.0000  16.5000   7.0000 Du        
   2993 ****        32.0000  16.5000   7.2500 Du        
   2994 ****        32.0000  16.5000   7.5000 Du        
   2995 ****        32.0000  16.5000   7.7500 Du        
   2996 ****        32.0000  16.7500   6.7500 Du        
   2997 ****        32.0000  16.7500   7.0000 Du        
   2998 ****        32.0000  16.7500   7.2500 Du        
   2999 ****        32.0000  16.7500   7.5000 Du        
   3000 ****        32.0000  16.7500   7.7500 Du        
   3001 ****        32.0000  17.7500   4.2500 Du        
   3002 ****        32.0000  17.7500   4.5000 Du        
   3003 ****        32.0000  17.7500   4.7500 Du        
   3004 ****        32.0000  17.7500   5.0000 Du        
   3005 ****        32.0000  18.0000   4.0000 Du        
   3006 ****        32.0000  18.0000   4.2500 Du        
   3007 ****        32.0000  18.0000   4.5000 Du        
   3008 ****        32.0000  18.0000   4.7500 Du        
   3009 ****        32.0000  18.0000   5.0000 Du        
   3010 ****        32.0000  18.2500  -0.2500 Du        
   3011 ****        32.0000  18.2500   0.0000 Du        
   3012 ****        32.2500  11.2500   9.7500 Du        
   3013 ****        32.2500  11.2500  10.0000 Du        
   3014 ****        32.2500  11.5000   9.5000 Du        
   3015 ****        32.2500  11.5000   9.7500 Du        
   3016 ****        32.2500  11.7500   9.2500 Du        
   3017 ****        32.2500  11.7500   9.5000 Du        
   3018 ****        32.2500  12.0000   9.0000 Du        
   3019 ****        32.2500  12.0000   9.2500 Du        
   3020 ****        32.2500  12.2500   8.2500 Du        
   3021 ****        32.2500  12.2500   8.5000 Du        
   3022 ****        32.2500  12.2500   8.7500 Du        
   3023 ****        32.2500  12.2500   9.0000 Du        
   3024 ****        32.2500  12.2500   9.2500 Du        
   3025 ****        32.2500  12.5000   8.0000 Du        
   3026 ****        32.2500  12.5000   8.2500 Du        
   3027 ****        32.2500  12.5000   8.5000 Du        
   3028 ****        32.2500  12.5000   8.7500 Du        
   3029 ****        32.2500  12.5000   9.0000 Du        
   3030 ****        32.2500  12.7500   7.7500 Du        
   3031 ****        32.2500  12.7500   8.0000 Du        
   3032 ****        32.2500  12.7500   8.2500 Du        
   3033 ****        32.2500  12.7500   8.5000 Du        
   3034 ****        32.2500  12.7500   8.7500 Du        
   3035 ****        32.2500  13.0000   7.5000 Du        
   3036 ****        32.2500  13.0000   7.7500 Du        
   3037 ****        32.2500  13.0000   8.0000 Du        
   3038 ****        32.2500  13.0000   8.2500 Du        
   3039 ****        32.2500  13.0000   8.5000 Du        
   3040 ****        32.2500  13.0000   8.7500 Du        
   3041 ****        32.2500  13.2500   7.2500 Du        
   3042 ****        32.2500  13.2500   7.5000 Du        
   3043 ****        32.2500  13.2500   7.7500 Du        
   3044 ****        32.2500  13.2500   8.0000 Du        
   3045 ****        32.2500  13.2500   8.2500 Du        
   3046 ****        32.2500  13.2500   8.5000 Du        
   3047 ****        32.2500  13.5000   7.2500 Du        
   3048 ****        32.2500  13.5000   7.5000 Du        
   3049 ****        32.2500  13.5000   7.7500 Du        
   3050 ****        32.2500  13.5000   8.0000 Du        
   3051 ****        32.2500  13.5000   8.2500 Du        
   3052 ****        32.2500  13.5000   8.5000 Du        
   3053 ****        32.2500  13.7500   7.0000 Du        
   3054 ****        32.2500  13.7500   7.2500 Du        
   3055 ****        32.2500  13.7500   7.5000 Du        
   3056 ****        32.2500  13.7500   7.7500 Du        
   3057 ****        32.2500  13.7500   8.0000 Du        
   3058 ****        32.2500  13.7500   8.2500 Du        
   3059 ****        32.2500  13.7500   8.5000 Du        
   3060 ****        32.2500  14.0000   7.0000 Du        
   3061 ****        32.2500  14.0000   7.2500 Du        
   3062 ****        32.2500  14.0000   7.5000 Du        
   3063 ****        32.2500  14.0000   7.7500 Du        
   3064 ****        32.2500  14.0000   8.0000 Du        
   3065 ****        32.2500  14.0000   8.2500 Du        
   3066 ****        32.2500  14.2500   7.0000 Du        
   3067 ****        32.2500  14.2500   7.2500 Du        
   3068 ****        32.2500  14.2500   7.5000 Du        
   3069 ****        32.2500  14.2500   7.7500 Du        
   3070 ****        32.2500  14.2500   8.0000 Du        
   3071 ****        32.2500  14.2500   8.2500 Du        
   3072 ****        32.2500  14.5000   7.0000 Du        
   3073 ****        32.2500  14.5000   7.2500 Du        
   3074 ****        32.2500  14.5000   7.5000 Du        
   3075 ****        32.2500  14.5000   7.7500 Du        
   3076 ****        32.2500  14.5000   8.0000 Du        
   3077 ****        32.2500  14.5000   8.2500 Du        
   3078 ****        32.2500  14.7500   7.0000 Du        
   3079 ****        32.2500  14.7500   7.2500 Du        
   3080 ****        32.2500  14.7500   7.5000 Du        
   3081 ****        32.2500  14.7500   7.7500 Du        
   3082 ****        32.2500  14.7500   8.0000 Du        
   3083 ****        32.2500  14.7500   8.2500 Du        
   3084 ****        32.2500  15.0000   7.0000 Du        
   3085 ****        32.2500  15.0000   7.2500 Du        
   3086 ****        32.2500  15.0000   7.5000 Du        
   3087 ****        32.2500  15.0000   7.7500 Du        
   3088 ****        32.2500  15.0000   8.0000 Du        
   3089 ****        32.2500  15.0000   8.2500 Du        
   3090 ****        32.2500  15.2500   6.7500 Du        
   3091 ****        32.2500  15.2500   7.0000 Du        
   3092 ****        32.2500  15.2500   7.2500 Du        
   3093 ****        32.2500  15.2500   7.5000 Du        
   3094 ****        32.2500  15.2500   7.7500 Du        
   3095 ****        32.2500  15.2500   8.0000 Du        
   3096 ****        32.2500  15.2500   8.2500 Du        
   3097 ****        32.2500  15.5000   7.0000 Du        
   3098 ****        32.2500  15.5000   7.2500 Du        
   3099 ****        32.2500  15.5000   7.5000 Du        
   3100 ****        32.2500  15.5000   7.7500 Du        
   3101 ****        32.2500  15.5000   8.0000 Du        
   3102 ****        32.2500  15.5000   8.2500 Du        
   3103 ****        32.2500  15.7500   6.7500 Du        
   3104 ****        32.2500  15.7500   7.0000 Du        
   3105 ****        32.2500  15.7500   7.2500 Du        
   3106 ****        32.2500  15.7500   7.5000 Du        
   3107 ****        32.2500  15.7500   7.7500 Du        
   3108 ****        32.2500  15.7500   8.0000 Du        
   3109 ****        32.2500  15.7500   8.2500 Du        
   3110 ****        32.2500  16.0000   7.0000 Du        
   3111 ****        32.2500  16.0000   7.2500 Du        
   3112 ****        32.2500  16.0000   7.5000 Du        
   3113 ****        32.2500  16.0000   7.7500 Du        
   3114 ****        32.2500  16.0000   8.0000 Du        
   3115 ****        32.2500  16.2500   7.2500 Du        
   3116 ****        32.2500  16.2500   7.5000 Du        
   3117 ****        32.2500  16.2500   7.7500 Du        
   3118 ****        32.2500  16.2500   8.0000 Du        
   3119 ****        32.2500  16.5000   7.7500 Du        
   3120 ****        32.2500  16.7500   7.5000 Du        
   3121 ****        32.2500  18.0000   4.7500 Du        
   3122 ****        32.5000  11.2500   9.5000 Du        
   3123 ****        32.5000  11.2500   9.7500 Du        
   3124 ****        32.5000  11.2500  10.0000 Du        
   3125 ****        32.5000  11.5000   9.2500 Du        
   3126 ****        32.5000  11.5000   9.5000 Du        
   3127 ****        32.5000  11.5000   9.7500 Du        
   3128 ****        32.5000  11.7500   9.0000 Du        
   3129 ****        32.5000  11.7500   9.2500 Du        
   3130 ****        32.5000  12.0000   8.5000 Du        
   3131 ****        32.5000  12.0000   8.7500 Du        
   3132 ****        32.5000  12.0000   9.0000 Du        
   3133 ****        32.5000  12.0000   9.2500 Du        
   3134 ****        32.5000  12.2500   8.0000 Du        
   3135 ****        32.5000  12.2500   8.2500 Du        
   3136 ****        32.5000  12.2500   8.5000 Du        
   3137 ****        32.5000  12.2500   8.7500 Du        
   3138 ****        32.5000  12.2500   9.0000 Du        
   3139 ****        32.5000  12.5000   8.0000 Du        
   3140 ****        32.5000  12.5000   8.2500 Du        
   3141 ****        32.5000  12.5000   8.5000 Du        
   3142 ****        32.5000  12.5000   8.7500 Du        
   3143 ****        32.5000  12.7500   7.7500 Du        
   3144 ****        32.5000  12.7500   8.0000 Du        
   3145 ****        32.5000  12.7500   8.2500 Du        
   3146 ****        32.5000  12.7500   8.5000 Du        
   3147 ****        32.5000  13.0000   7.5000 Du        
   3148 ****        32.5000  13.0000   7.7500 Du        
   3149 ****        32.5000  13.0000   8.0000 Du        
   3150 ****        32.5000  13.0000   8.2500 Du        
   3151 ****        32.5000  13.0000   8.5000 Du        
   3152 ****        32.5000  13.2500   7.2500 Du        
   3153 ****        32.5000  13.2500   7.5000 Du        
   3154 ****        32.5000  13.2500   7.7500 Du        
   3155 ****        32.5000  13.2500   8.0000 Du        
   3156 ****        32.5000  13.2500   8.2500 Du        
   3157 ****        32.5000  13.5000   7.5000 Du        
   3158 ****        32.5000  13.5000   7.7500 Du        
   3159 ****        32.5000  13.5000   8.0000 Du        
   3160 ****        32.5000  13.5000   8.2500 Du        
   3161 ****        32.5000  13.7500   7.5000 Du        
   3162 ****        32.5000  13.7500   7.7500 Du        
   3163 ****        32.5000  13.7500   8.0000 Du        
   3164 ****        32.5000  13.7500   8.2500 Du        
   3165 ****        32.5000  14.0000   7.2500 Du        
   3166 ****        32.5000  14.0000   7.5000 Du        
   3167 ****        32.5000  14.0000   7.7500 Du        
   3168 ****        32.5000  14.0000   8.0000 Du        
   3169 ****        32.5000  14.2500   7.5000 Du        
   3170 ****        32.5000  14.2500   7.7500 Du        
   3171 ****        32.5000  14.2500   8.0000 Du        
   3172 ****        32.5000  14.5000   7.2500 Du        
   3173 ****        32.5000  14.5000   7.5000 Du        
   3174 ****        32.5000  14.5000   7.7500 Du        
   3175 ****        32.5000  14.5000   8.0000 Du        
   3176 ****        32.5000  14.7500   7.2500 Du        
   3177 ****        32.5000  14.7500   7.5000 Du        
   3178 ****        32.5000  14.7500   7.7500 Du        
   3179 ****        32.5000  14.7500   8.0000 Du        
   3180 ****        32.5000  15.0000   7.2500 Du        
   3181 ****        32.5000  15.0000   7.5000 Du        
   3182 ****        32.5000  15.0000   7.7500 Du        
   3183 ****        32.5000  15.0000   8.0000 Du        
   3184 ****        32.5000  15.2500   7.5000 Du        
   3185 ****        32.5000  15.2500   7.7500 Du        
   3186 ****        32.5000  15.2500   8.0000 Du        
   3187 ****        32.7500  11.2500   9.0000 Du        
   3188 ****        32.7500  11.2500   9.2500 Du        
   3189 ****        32.7500  11.2500   9.5000 Du        
   3190 ****        32.7500  11.2500   9.7500 Du        
   3191 ****        32.7500  11.2500  10.0000 Du        
   3192 ****        32.7500  11.5000   8.7500 Du        
   3193 ****        32.7500  11.5000   9.0000 Du        
   3194 ****        32.7500  11.5000   9.2500 Du        
   3195 ****        32.7500  11.5000   9.5000 Du        
   3196 ****        32.7500  11.5000   9.7500 Du        
   3197 ****        32.7500  11.7500   8.5000 Du        
   3198 ****        32.7500  11.7500   8.7500 Du        
   3199 ****        32.7500  11.7500   9.0000 Du        
   3200 ****        32.7500  11.7500   9.2500 Du        
   3201 ****        32.7500  12.0000   8.0000 Du        
   3202 ****        32.7500  12.0000   8.2500 Du        
   3203 ****        32.7500  12.0000   8.5000 Du        
   3204 ****        32.7500  12.0000   8.7500 Du        
   3205 ****        32.7500  12.0000   9.0000 Du        
   3206 ****        32.7500  12.2500   7.7500 Du        
   3207 ****        32.7500  12.2500   8.0000 Du        
   3208 ****        32.7500  12.2500   8.2500 Du        
   3209 ****        32.7500  12.2500   8.5000 Du        
   3210 ****        32.7500  12.2500   8.7500 Du        
   3211 ****        32.7500  12.2500   9.0000 Du        
   3212 ****        32.7500  12.5000   7.7500 Du        
   3213 ****        32.7500  12.5000   8.0000 Du        
   3214 ****        32.7500  12.5000   8.2500 Du        
   3215 ****        32.7500  12.5000   8.5000 Du        
   3216 ****        32.7500  12.7500   7.7500 Du        
   3217 ****        32.7500  12.7500   8.0000 Du        
   3218 ****        32.7500  12.7500   8.2500 Du        
   3219 ****        32.7500  12.7500   8.5000 Du        
   3220 ****        32.7500  13.0000   7.2500 Du        
   3221 ****        32.7500  13.0000   7.5000 Du        
   3222 ****        32.7500  13.0000   7.7500 Du        
   3223 ****        32.7500  13.0000   8.0000 Du        
   3224 ****        32.7500  13.0000   8.2500 Du        
   3225 ****        32.7500  13.2500   7.2500 Du        
   3226 ****        32.7500  13.2500   7.5000 Du        
   3227 ****        32.7500  13.2500   7.7500 Du        
   3228 ****        32.7500  13.2500   8.0000 Du        
   3229 ****        32.7500  13.2500   8.2500 Du        
   3230 ****        32.7500  13.5000   7.7500 Du        
   3231 ****        32.7500  13.5000   8.0000 Du        
   3232 ****        32.7500  13.7500   7.7500 Du        
   3233 ****        32.7500  13.7500   8.0000 Du        
   3234 ****        32.7500  14.0000   7.5000 Du        
   3235 ****        32.7500  14.0000   7.7500 Du        
   3236 ****        32.7500  14.0000   8.0000 Du        
   3237 ****        32.7500  14.2500   7.5000 Du        
   3238 ****        32.7500  14.2500   7.7500 Du        
   3239 ****        32.7500  14.2500   8.0000 Du        
   3240 ****        32.7500  14.5000   7.2500 Du        
   3241 ****        32.7500  14.5000   7.7500 Du        
   3242 ****        33.0000  11.2500   8.7500 Du        
   3243 ****        33.0000  11.2500   9.0000 Du        
   3244 ****        33.0000  11.2500   9.2500 Du        
   3245 ****        33.0000  11.2500   9.5000 Du        
   3246 ****        33.0000  11.2500   9.7500 Du        
   3247 ****        33.0000  11.5000   8.5000 Du        
   3248 ****        33.0000  11.5000   8.7500 Du        
   3249 ****        33.0000  11.5000   9.0000 Du        
   3250 ****        33.0000  11.5000   9.2500 Du        
   3251 ****        33.0000  11.7500   8.2500 Du        
   3252 ****        33.0000  11.7500   8.5000 Du        
   3253 ****        33.0000  11.7500   8.7500 Du        
   3254 ****        33.0000  11.7500   9.0000 Du        
   3255 ****        33.0000  11.7500   9.2500 Du        
   3256 ****        33.0000  12.0000   8.0000 Du        
   3257 ****        33.0000  12.0000   8.2500 Du        
   3258 ****        33.0000  12.0000   8.5000 Du        
   3259 ****        33.0000  12.0000   8.7500 Du        
   3260 ****        33.0000  12.0000   9.0000 Du        
   3261 ****        33.0000  12.2500   8.0000 Du        
   3262 ****        33.0000  12.2500   8.2500 Du        
   3263 ****        33.0000  12.2500   8.5000 Du        
   3264 ****        33.0000  12.2500   8.7500 Du        
   3265 ****        33.0000  12.5000   7.7500 Du        
   3266 ****        33.0000  12.5000   8.0000 Du        
   3267 ****        33.0000  12.5000   8.2500 Du        
   3268 ****        33.0000  12.5000   8.5000 Du        
   3269 ****        33.0000  12.7500   7.7500 Du        
   3270 ****        33.0000  12.7500   8.0000 Du        
   3271 ****        33.0000  12.7500   8.2500 Du        
   3272 ****        33.0000  13.0000   7.2500 Du        
   3273 ****        33.0000  13.0000   7.5000 Du        
   3274 ****        33.0000  13.0000   7.7500 Du        
   3275 ****        33.0000  13.0000   8.0000 Du        
   3276 ****        33.0000  13.2500   7.7500 Du        
   3277 ****        33.2500  11.2500   9.0000 Du        
   3278 ****        33.2500  11.2500   9.2500 Du        
   3279 ****        33.2500  11.5000   8.5000 Du        
   3280 ****        33.2500  11.5000   8.7500 Du        
   3281 ****        33.2500  11.7500   8.2500 Du        
   3282 ****        33.2500  11.7500   8.5000 Du        
   3283 ****        33.2500  11.7500   8.7500 Du        
