#       Name:                CT1002167954
#       Creating user name   hitesit
#       Creation time:       Sun Apr 16 02:22:06 2023


#       File generated by GOLD software.
#

@<TRIPOS>MOLECULE
CT1002167954|ligand_prepared|mol2|1|dock10
    29    30     1
SMALL
NO_CHARGES


@<TRIPOS>ATOM
      1 C1          31.8657  15.9829   7.2867 C.3            1 RES1               0.0000
      2 C2          32.6470  16.9855   8.1601 C.ar           1 RES1               0.0000
      3 C3          30.3870  16.3022   7.4863 C.2            1 RES1               0.0000
      4 C4          32.3588  16.1865   5.8584 C.2            1 RES1               0.0000
      5 C5          32.1045  14.5033   7.6681 C.3            1 RES1               0.0000
      6 C6          32.0154  18.1074   8.6885 C.ar           1 RES1               0.0000
      7 C7          33.9967  16.8010   8.4478 C.ar           1 RES1               0.0000
      8 N8          29.7327  16.9286   6.4668 N.am           1 RES1               0.0000
      9 O9          29.8137  16.0440   8.5375 O.2            1 RES1               0.0000
     10 N10         31.4698  16.6714   4.9352 N.am           1 RES1               0.0000
     11 O11         33.5137  15.9472   5.5280 O.2            1 RES1               0.0000
     12 C12         31.1675  13.5310   6.9690 C.3            1 RES1               0.0000
     13 C13         32.7073  19.0105   9.4785 C.ar           1 RES1               0.0000
     14 C14         34.6868  17.7055   9.2379 C.ar           1 RES1               0.0000
     15 C15         30.1877  17.0807   5.1817 C.2            1 RES1               0.0000
     16 C16         34.0431  18.8101   9.7540 C.ar           1 RES1               0.0000
     17 O17         29.4667  17.5572   4.3097 O.2            1 RES1               0.0000
     18 H18         33.1392  14.2372   7.4195 H              1 RES1               0.0000
     19 H19         31.9815  14.3940   8.7527 H              1 RES1               0.0000
     20 H20         30.9652  18.2830   8.4805 H              1 RES1               0.0000
     21 H21         34.5239  15.9397   8.0516 H              1 RES1               0.0000
     22 H22         28.8207  17.3202   6.6796 H              1 RES1               0.0000
     23 H23         31.7939  16.7329   3.9752 H              1 RES1               0.0000
     24 H24         31.3777  12.5074   7.2720 H              1 RES1               0.0000
     25 H25         30.1305  13.7508   7.2142 H              1 RES1               0.0000
     26 H26         31.2812  13.5948   5.8888 H              1 RES1               0.0000
     27 H27         32.1964  19.8789   9.8812 H              1 RES1               0.0000
     28 H28         35.7382  17.5441   9.4516 H              1 RES1               0.0000
     29 H29         34.5848  19.5175  10.3732 H              1 RES1               0.0000
@<TRIPOS>BOND
    1    1    2 1     
    2    1    3 1     
    3    1    4 1     
    4    1    5 1     
    5    2    6 ar    
    6    2    7 ar    
    7    3    8 1     
    8    3    9 2     
    9    4   10 1     
   10    4   11 2     
   11    5   12 1     
   12    5   18 1     
   13    5   19 1     
   14    6   13 ar    
   15    6   20 1     
   16    7   14 ar    
   17    7   21 1     
   18    8   15 1     
   19    8   22 1     
   20   10   15 1     
   21   10   23 1     
   22   12   24 1     
   23   12   25 1     
   24   12   26 1     
   25   13   16 ar    
   26   13   27 1     
   27   14   16 ar    
   28   14   28 1     
   29   15   17 2     
   30   16   29 1     
@<TRIPOS>SUBSTRUCTURE
      1 RES1           1
@<TRIPOS>SET
DONOR_HYDROGENS      STATIC     ATOMS    <user>   **** ""
2 22 23
ATOM$RED        STATIC     ATOMS    COLORGROUP SYSTEM
2 22 23
@<TRIPOS>COMMENT
> <Gold.Version>
2022.3.0

> <Gold.Id.Protein>
unknown|4i1b_cavity_clean|pdb

> <Gold.Protein.RotatedTorsions>
[ 1475 1464 1463 1462 ] final  -29.58 input   59.99 | X-H torsion
[  825  815  814  813 ] final   20.36 input   60.01 | X-H torsion
[ 1830 1825 1824 1821 ] final -108.86 input   60.00 | X-H torsion
[ 1453 1442 1441 1440 ] final    2.13 input   59.98 | X-H torsion
[ 1529 1518 1517 1516 ] final  103.72 input   59.99 | X-H torsion

> <Gold.Protein.ActiveResidues>
 VAL47   GLN48   GLU50   LYS55   PRO57   LYS93   LYS94   MET95   GLU96   LYS97  
 VAL100  ASN102  GLU113  SER114  ALA115  PRO118 

> <Gold.Protein.RotatedAtoms>
   28.1114   23.1757   -2.0806 H   0  0  0  0  0  0  0  0  0  0  0  0  # atno 825  bound_to 815 
   27.2817   22.6488   -3.4150 H   0  0  0  0  0  0  0  0  0  0  0  0  # atno 826  bound_to 815 
   27.9227   24.1764   -3.3888 H   0  0  0  0  0  0  0  0  0  0  0  0  # atno 827  bound_to 815 
   27.8587   21.4610   17.2241 H   0  0  0  0  0  0  0  0  0  0  0  0  # atno 1453 bound_to 1442
   29.1069   22.0264   16.2916 H   0  0  0  0  0  0  0  0  0  0  0  0  # atno 1454 bound_to 1442
   27.5600   22.5530   16.0139 H   0  0  0  0  0  0  0  0  0  0  0  0  # atno 1455 bound_to 1442
   33.2994   14.6334   11.0559 H   0  0  0  0  0  0  0  0  0  0  0  0  # atno 1475 bound_to 1464
   34.5848   15.3905   11.7799 H   0  0  0  0  0  0  0  0  0  0  0  0  # atno 1476 bound_to 1464
   34.8228   13.9943   10.9176 H   0  0  0  0  0  0  0  0  0  0  0  0  # atno 1477 bound_to 1464
   34.0387   13.5789    0.4198 H   0  0  0  0  0  0  0  0  0  0  0  0  # atno 1529 bound_to 1518
   32.7885   14.2120   -0.4660 H   0  0  0  0  0  0  0  0  0  0  0  0  # atno 1530 bound_to 1518
   33.3388   15.0092    0.8791 H   0  0  0  0  0  0  0  0  0  0  0  0  # atno 1531 bound_to 1518
   26.7653   13.0192   -3.1633 H   0  0  0  0  0  0  0  0  0  0  0  0  # atno 1830 bound_to 1825
   25.9672   12.0846   -2.0966 LP  0  0  0  0  0  0  0  0  0  0  0  0  # atno 2424 bound_to 1825
   26.6691   13.4743   -1.6038 LP  0  0  0  0  0  0  0  0  0  0  0  0  # atno 2425 bound_to 1825

> <Gold.Score>
     Fitness  S(hb_ext) S(vdw_ext)  S(hb_int)    S(int)      intcor
     26.72       0.00      20.70       0.00      -1.74      -0.76

> <Gold.Goldscore.Fitness>
26.7196

> <Gold.Goldscore.Internal.Vdw>
-1.9781

> <Gold.Goldscore.Internal.Torsion>
-0.5165

> <Gold.Goldscore.External.Vdw>
20.6950

> <Gold.Goldscore.Internal.HBond>
0.0000

> <Gold.Goldscore.External.HBond>
0.0000

> <Gold.Goldscore.Internal.Correction>
-0.7585

> <Gold.Goldscore.Internal.Vdw.Weighted>
-1.9781

> <Gold.Goldscore.Internal.Torsion.Weighted>
-0.5165

> <Gold.Goldscore.External.Vdw.Weighted>
28.4557

> <Gold.Goldscore.Internal.HBond.Weighted>
0.0000

> <Gold.Goldscore.External.HBond.Weighted>
0.0000

> <Gold.Goldscore.Internal.Correction.Weighted>
-0.7585

> <Gold.Rescore>
     Score     S(PLP)   S(hbond)     S(cho)   S(metal)  DE(clash)   DE(tors)     intcor
     23.66     -22.53       0.51       0.00       0.00       0.00       0.20       ----

> <Gold.PLP.Fitness>
23.6635

> <Gold.PLP.PLP>
-22.5320

> <Gold.PLP.part.hbond>
-1.0000

> <Gold.PLP.part.metal>
0.0000

> <Gold.PLP.part.buried>
-4.6262

> <Gold.PLP.part.nonpolar>
-18.0033

> <Gold.PLP.part.repulsive>
0.2758

> <Gold.PLP.ligand.clash>
0.0000

> <Gold.PLP.ligand.torsion>
0.2022

> <Gold.PLP.Chemscore.Hbond>
0.5120

> <Gold.PLP.Chemscore.CHOScore>
0.0000

> <Gold.PLP.Chemscore.Metal>
0.0000

> <Gold.Chemscore.Hbonds>
donor molecule, donor type, donor heavy atom, donor atom, acceptor molecule, acceptor atom, score
      L1  H     8    22       P1   719  0.15

> <Gold.PLP.Chemscore.Internal.Correction>
   9.000000E+99

