#       Name:                CT1002167954
#       Creating user name   hitesit
#       Creation time:       Sun Apr 16 02:22:02 2023


#       File generated by GOLD software.
#

@<TRIPOS>MOLECULE
CT1002167954|ligand_prepared|mol2|1|dock4
    29    30     1
SMALL
NO_CHARGES


@<TRIPOS>ATOM
      1 C1          33.7554  12.9492   7.1701 C.3            1 RES1               0.0000
      2 C2          32.5101  13.7465   7.6087 C.ar           1 RES1               0.0000
      3 C3          34.9074  13.4401   8.0420 C.2            1 RES1               0.0000
      4 C4          33.4103  11.4771   7.3662 C.2            1 RES1               0.0000
      5 C5          34.1394  13.1565   5.6865 C.3            1 RES1               0.0000
      6 C6          31.9487  13.5484   8.8666 C.ar           1 RES1               0.0000
      7 C7          31.9143  14.6838   6.7690 C.ar           1 RES1               0.0000
      8 N8          35.3476  12.6122   9.0323 N.am           1 RES1               0.0000
      9 O9          35.3960  14.5527   7.8883 O.2            1 RES1               0.0000
     10 N10         34.1087  10.7744   8.3128 N.am           1 RES1               0.0000
     11 O11         32.5284  10.9236   6.7210 O.2            1 RES1               0.0000
     12 C12         35.3149  12.3053   5.2327 C.3            1 RES1               0.0000
     13 C13         30.8338  14.2635   9.2716 C.ar           1 RES1               0.0000
     14 C14         30.7993  15.3977   7.1760 C.ar           1 RES1               0.0000
     15 C15         35.0406  11.2830   9.1761 C.2            1 RES1               0.0000
     16 C16         30.2587  15.1888   8.4269 C.ar           1 RES1               0.0000
     17 O17         35.5865  10.5993  10.0373 O.2            1 RES1               0.0000
     18 H18         33.2700  12.9204   5.0605 H              1 RES1               0.0000
     19 H19         34.3878  14.2135   5.5303 H              1 RES1               0.0000
     20 H20         32.3861  12.8227   9.5441 H              1 RES1               0.0000
     21 H21         32.3219  14.8640   5.7801 H              1 RES1               0.0000
     22 H22         35.9617  13.0190   9.7307 H              1 RES1               0.0000
     23 H23         33.9163   9.7801   8.3801 H              1 RES1               0.0000
     24 H24         35.5425  12.4893   4.1848 H              1 RES1               0.0000
     25 H25         36.2039  12.5322   5.8175 H              1 RES1               0.0000
     26 H26         35.0927  11.2467   5.3505 H              1 RES1               0.0000
     27 H27         30.4113  14.0944  10.2566 H              1 RES1               0.0000
     28 H28         30.3495  16.1245   6.5076 H              1 RES1               0.0000
     29 H29         29.3855  15.7491   8.7445 H              1 RES1               0.0000
@<TRIPOS>BOND
    1    1    2 1     
    2    1    3 1     
    3    1    4 1     
    4    1    5 1     
    5    2    6 ar    
    6    2    7 ar    
    7    3    8 1     
    8    3    9 2     
    9    4   10 1     
   10    4   11 2     
   11    5   12 1     
   12    5   18 1     
   13    5   19 1     
   14    6   13 ar    
   15    6   20 1     
   16    7   14 ar    
   17    7   21 1     
   18    8   15 1     
   19    8   22 1     
   20   10   15 1     
   21   10   23 1     
   22   12   24 1     
   23   12   25 1     
   24   12   26 1     
   25   13   16 ar    
   26   13   27 1     
   27   14   16 ar    
   28   14   28 1     
   29   15   17 2     
   30   16   29 1     
@<TRIPOS>SUBSTRUCTURE
      1 RES1           1
@<TRIPOS>SET
DONOR_HYDROGENS      STATIC     ATOMS    <user>   **** ""
2 22 23
ATOM$RED        STATIC     ATOMS    COLORGROUP SYSTEM
2 22 23
@<TRIPOS>COMMENT
> <Gold.Version>
2022.3.0

> <Gold.Id.Protein>
unknown|4i1b_cavity_clean|pdb

> <Gold.Protein.RotatedTorsions>
[ 1475 1464 1463 1462 ] final   64.51 input   59.99 | X-H torsion
[  825  815  814  813 ] final -178.35 input   60.01 | X-H torsion
[ 1830 1825 1824 1821 ] final  -79.62 input   60.00 | X-H torsion
[ 1453 1442 1441 1440 ] final -176.22 input   59.98 | X-H torsion
[ 1529 1518 1517 1516 ] final  -90.60 input   59.99 | X-H torsion

> <Gold.Protein.ActiveResidues>
 VAL47   GLN48   GLU50   LYS55   PRO57   LYS93   LYS94   MET95   GLU96   LYS97  
 VAL100  ASN102  GLU113  SER114  ALA115  PRO118 

> <Gold.Protein.RotatedAtoms>
   27.3312   23.2002   -3.8003 H   0  0  0  0  0  0  0  0  0  0  0  0  # atno 825  bound_to 815 
   28.2014   24.1673   -2.7736 H   0  0  0  0  0  0  0  0  0  0  0  0  # atno 826  bound_to 815 
   27.7833   22.6327   -2.3097 H   0  0  0  0  0  0  0  0  0  0  0  0  # atno 827  bound_to 815 
   28.4662   22.5745   15.7912 H   0  0  0  0  0  0  0  0  0  0  0  0  # atno 1453 bound_to 1442
   27.2493   21.9820   16.7479 H   0  0  0  0  0  0  0  0  0  0  0  0  # atno 1454 bound_to 1442
   28.8115   21.4839   16.9903 H   0  0  0  0  0  0  0  0  0  0  0  0  # atno 1455 bound_to 1442
   34.1652   15.4801   11.7611 H   0  0  0  0  0  0  0  0  0  0  0  0  # atno 1475 bound_to 1464
   35.0883   14.2533   11.1346 H   0  0  0  0  0  0  0  0  0  0  0  0  # atno 1476 bound_to 1464
   33.4536   14.2856   10.8583 H   0  0  0  0  0  0  0  0  0  0  0  0  # atno 1477 bound_to 1464
   32.6810   14.8198   -0.0526 H   0  0  0  0  0  0  0  0  0  0  0  0  # atno 1529 bound_to 1518
   33.8702   14.5239    1.0640 H   0  0  0  0  0  0  0  0  0  0  0  0  # atno 1530 bound_to 1518
   33.6148   13.4565   -0.1782 H   0  0  0  0  0  0  0  0  0  0  0  0  # atno 1531 bound_to 1518
   26.9238   13.3882   -2.9141 H   0  0  0  0  0  0  0  0  0  0  0  0  # atno 1830 bound_to 1825
   26.0594   12.0549   -2.5625 LP  0  0  0  0  0  0  0  0  0  0  0  0  # atno 2424 bound_to 1825
   26.4173   13.1324   -1.3888 LP  0  0  0  0  0  0  0  0  0  0  0  0  # atno 2425 bound_to 1825

> <Gold.Score>
     Fitness  S(hb_ext) S(vdw_ext)  S(hb_int)    S(int)      intcor
     22.87       0.89      16.00       0.00      -0.02      -0.76

> <Gold.Goldscore.Fitness>
22.8719

> <Gold.Goldscore.Internal.Vdw>
-0.3940

> <Gold.Goldscore.Internal.Torsion>
-0.3864

> <Gold.Goldscore.External.Vdw>
16.0011

> <Gold.Goldscore.Internal.HBond>
0.0000

> <Gold.Goldscore.External.HBond>
0.8901

> <Gold.Goldscore.Internal.Correction>
-0.7607

> <Gold.Goldscore.Hbonds>
donor molecule, donor type, donor heavy atom, donor atom, acceptor molecule, acceptor atom, score
      P1  H  1510  1519       L1    11  0.45

> <Gold.Goldscore.Internal.Vdw.Weighted>
-0.3940

> <Gold.Goldscore.Internal.Torsion.Weighted>
-0.3864

> <Gold.Goldscore.External.Vdw.Weighted>
22.0015

> <Gold.Goldscore.Internal.HBond.Weighted>
0.0000

> <Gold.Goldscore.External.HBond.Weighted>
0.8901

> <Gold.Goldscore.Internal.Correction.Weighted>
-0.7607

> <Gold.Rescore>
     Score     S(PLP)   S(hbond)     S(cho)   S(metal)  DE(clash)   DE(tors)     intcor
     26.59     -23.62       1.00       0.00       0.00       0.00       0.01       ----

> <Gold.PLP.Fitness>
26.5947

> <Gold.PLP.PLP>
-23.6183

> <Gold.PLP.part.hbond>
-1.0000

> <Gold.PLP.part.metal>
0.0000

> <Gold.PLP.part.buried>
-0.6930

> <Gold.PLP.part.nonpolar>
-21.3621

> <Gold.PLP.part.repulsive>
0.1233

> <Gold.PLP.ligand.clash>
0.0000

> <Gold.PLP.ligand.torsion>
0.0118

> <Gold.PLP.Chemscore.Hbond>
1.0000

> <Gold.PLP.Chemscore.CHOScore>
0.0000

> <Gold.PLP.Chemscore.Metal>
0.0000

> <Gold.Chemscore.Hbonds>
donor molecule, donor type, donor heavy atom, donor atom, acceptor molecule, acceptor atom, score
      P1  H  1510  1519       L1    11  1.00

> <Gold.PLP.Chemscore.Internal.Correction>
   9.000000E+99

