#       Name:                CT1002167954
#       Creating user name   hitesit
#       Creation time:       Sun Apr 16 02:22:03 2023


#       File generated by GOLD software.
#

@<TRIPOS>MOLECULE
CT1002167954|ligand_prepared|mol2|1|dock5
    29    30     1
SMALL
NO_CHARGES


@<TRIPOS>ATOM
      1 C1          33.1191  18.3821   6.9577 C.3            1 RES1               0.0000
      2 C2          31.9309  17.5653   6.4101 C.ar           1 RES1               0.0000
      3 C3          33.6521  19.2013   5.7860 C.2            1 RES1               0.0000
      4 C4          32.5670  19.2222   8.1041 C.2            1 RES1               0.0000
      5 C5          34.2711  17.5132   7.5139 C.3            1 RES1               0.0000
      6 C6          31.1898  18.0307   5.3281 C.ar           1 RES1               0.0000
      7 C7          31.5662  16.3455   6.9738 C.ar           1 RES1               0.0000
      8 N8          33.3873  20.5391   5.7780 N.am           1 RES1               0.0000
      9 O9          34.2614  18.6749   4.8630 O.2            1 RES1               0.0000
     10 N10         32.5541  20.5842   7.9537 N.am           1 RES1               0.0000
     11 O11         32.1277  18.7162   9.1294 O.2            1 RES1               0.0000
     12 C12         35.5290  18.3011   7.8442 C.3            1 RES1               0.0000
     13 C13         30.1245  17.3019   4.8258 C.ar           1 RES1               0.0000
     14 C14         30.5005  15.6182   6.4701 C.ar           1 RES1               0.0000
     15 C15         32.9108  21.2790   6.8303 C.2            1 RES1               0.0000
     16 C16         29.7794  16.0951   5.3961 C.ar           1 RES1               0.0000
     17 O17         32.8199  22.5008   6.7521 O.2            1 RES1               0.0000
     18 H18         33.9237  17.0056   8.4222 H              1 RES1               0.0000
     19 H19         34.5212  16.7428   6.7741 H              1 RES1               0.0000
     20 H20         31.4450  18.9795   4.8679 H              1 RES1               0.0000
     21 H21         32.1185  15.9513   7.8201 H              1 RES1               0.0000
     22 H22         33.5593  21.0352   4.9094 H              1 RES1               0.0000
     23 H23         32.2505  21.1307   8.7534 H              1 RES1               0.0000
     24 H24         36.3054  17.6441   8.2305 H              1 RES1               0.0000
     25 H25         35.9163  18.7988   6.9577 H              1 RES1               0.0000
     26 H26         35.3224  19.0601   8.5960 H              1 RES1               0.0000
     27 H27         29.5594  17.6821   3.9813 H              1 RES1               0.0000
     28 H28         30.2320  14.6693   6.9224 H              1 RES1               0.0000
     29 H29         28.9452  15.5241   5.0022 H              1 RES1               0.0000
@<TRIPOS>BOND
    1    1    2 1     
    2    1    3 1     
    3    1    4 1     
    4    1    5 1     
    5    2    6 ar    
    6    2    7 ar    
    7    3    8 1     
    8    3    9 2     
    9    4   10 1     
   10    4   11 2     
   11    5   12 1     
   12    5   18 1     
   13    5   19 1     
   14    6   13 ar    
   15    6   20 1     
   16    7   14 ar    
   17    7   21 1     
   18    8   15 1     
   19    8   22 1     
   20   10   15 1     
   21   10   23 1     
   22   12   24 1     
   23   12   25 1     
   24   12   26 1     
   25   13   16 ar    
   26   13   27 1     
   27   14   16 ar    
   28   14   28 1     
   29   15   17 2     
   30   16   29 1     
@<TRIPOS>SUBSTRUCTURE
      1 RES1           1
@<TRIPOS>SET
DONOR_HYDROGENS      STATIC     ATOMS    <user>   **** ""
2 22 23
ATOM$RED        STATIC     ATOMS    COLORGROUP SYSTEM
2 22 23
@<TRIPOS>COMMENT
> <Gold.Version>
2022.3.0

> <Gold.Id.Protein>
unknown|4i1b_cavity_clean|pdb

> <Gold.Protein.RotatedTorsions>
[ 1475 1464 1463 1462 ] final   90.60 input   59.99 | X-H torsion
[  825  815  814  813 ] final  175.53 input   60.01 | X-H torsion
[ 1830 1825 1824 1821 ] final  140.16 input   60.00 | X-H torsion
[ 1453 1442 1441 1440 ] final  161.56 input   59.98 | X-H torsion
[ 1529 1518 1517 1516 ] final  -53.88 input   59.99 | X-H torsion

> <Gold.Protein.ActiveResidues>
 VAL47   GLN48   GLU50   LYS55   PRO57   LYS93   LYS94   MET95   GLU96   LYS97  
 VAL100  ASN102  GLU113  SER114  ALA115  PRO118 

> <Gold.Protein.RotatedAtoms>
   27.3079   23.1064   -3.7669 H   0  0  0  0  0  0  0  0  0  0  0  0  # atno 825  bound_to 815 
   28.1711   24.1975   -2.8665 H   0  0  0  0  0  0  0  0  0  0  0  0  # atno 826  bound_to 815 
   27.8369   22.6963   -2.2502 H   0  0  0  0  0  0  0  0  0  0  0  0  # atno 827  bound_to 815 
   28.7857   22.4239   15.8975 H   0  0  0  0  0  0  0  0  0  0  0  0  # atno 1453 bound_to 1442
   27.2427   22.2225   16.4684 H   0  0  0  0  0  0  0  0  0  0  0  0  # atno 1454 bound_to 1442
   28.4986   21.3938   17.1636 H   0  0  0  0  0  0  0  0  0  0  0  0  # atno 1455 bound_to 1442
   34.5874   15.3900   11.7792 H   0  0  0  0  0  0  0  0  0  0  0  0  # atno 1475 bound_to 1464
   34.8208   13.9927   10.9173 H   0  0  0  0  0  0  0  0  0  0  0  0  # atno 1476 bound_to 1464
   33.2991   14.6365   11.0576 H   0  0  0  0  0  0  0  0  0  0  0  0  # atno 1477 bound_to 1464
   32.9093   15.0786    0.4416 H   0  0  0  0  0  0  0  0  0  0  0  0  # atno 1529 bound_to 1518
   34.0973   14.0022    0.8644 H   0  0  0  0  0  0  0  0  0  0  0  0  # atno 1530 bound_to 1518
   33.1594   13.7193   -0.4728 H   0  0  0  0  0  0  0  0  0  0  0  0  # atno 1531 bound_to 1518
   25.9837   12.0597   -2.2414 H   0  0  0  0  0  0  0  0  0  0  0  0  # atno 1830 bound_to 1825
   26.5939   13.3821   -1.5152 LP  0  0  0  0  0  0  0  0  0  0  0  0  # atno 2424 bound_to 1825
   26.8293   13.1428   -3.1133 LP  0  0  0  0  0  0  0  0  0  0  0  0  # atno 2425 bound_to 1825

> <Gold.Score>
     Fitness  S(hb_ext) S(vdw_ext)  S(hb_int)    S(int)      intcor
     23.99       0.00      18.03       0.00      -0.79      -0.76

> <Gold.Goldscore.Fitness>
23.9942

> <Gold.Goldscore.Internal.Vdw>
-1.0425

> <Gold.Goldscore.Internal.Torsion>
-0.5091

> <Gold.Goldscore.External.Vdw>
18.0255

> <Gold.Goldscore.Internal.HBond>
0.0000

> <Gold.Goldscore.External.HBond>
0.0000

> <Gold.Goldscore.Internal.Correction>
-0.7607

> <Gold.Goldscore.Internal.Vdw.Weighted>
-1.0425

> <Gold.Goldscore.Internal.Torsion.Weighted>
-0.5091

> <Gold.Goldscore.External.Vdw.Weighted>
24.7851

> <Gold.Goldscore.Internal.HBond.Weighted>
0.0000

> <Gold.Goldscore.External.HBond.Weighted>
0.0000

> <Gold.Goldscore.Internal.Correction.Weighted>
-0.7607

> <Gold.Rescore>
     Score     S(PLP)   S(hbond)     S(cho)   S(metal)  DE(clash)   DE(tors)     intcor
     26.61     -26.27       0.86       0.00       0.00       0.46       0.89       ----

> <Gold.PLP.Fitness>
26.6090

> <Gold.PLP.PLP>
-26.2675

> <Gold.PLP.part.hbond>
-2.0102

> <Gold.PLP.part.metal>
0.0000

> <Gold.PLP.part.buried>
-4.9442

> <Gold.PLP.part.nonpolar>
-20.1663

> <Gold.PLP.part.repulsive>
0.4567

> <Gold.PLP.ligand.clash>
0.4565

> <Gold.PLP.ligand.torsion>
0.8856

> <Gold.PLP.Chemscore.Hbond>
0.8564

> <Gold.PLP.Chemscore.CHOScore>
0.0000

> <Gold.PLP.Chemscore.Metal>
0.0000

> <Gold.PLP.Chemscore.Internal.Correction>
   9.000000E+99

