#       Name:                CT1002167954
#       Creating user name   hitesit
#       Creation time:       Sun Apr 16 02:22:04 2023


#       File generated by GOLD software.
#

@<TRIPOS>MOLECULE
CT1002167954|ligand_prepared|mol2|1|dock7
    29    30     1
SMALL
NO_CHARGES


@<TRIPOS>ATOM
      1 C1          31.8977  15.8676   6.4898 C.3            1 RES1               0.0000
      2 C2          31.2173  16.7136   5.3944 C.ar           1 RES1               0.0000
      3 C3          32.1911  16.8194   7.6459 C.2            1 RES1               0.0000
      4 C4          30.9189  14.7511   6.8362 C.2            1 RES1               0.0000
      5 C5          33.2264  15.2159   6.0409 C.3            1 RES1               0.0000
      6 C6          30.0262  17.3847   5.6547 C.ar           1 RES1               0.0000
      7 C7          31.7691  16.8345   4.1217 C.ar           1 RES1               0.0000
      8 N8          31.4107  16.7197   8.7599 N.am           1 RES1               0.0000
      9 O9          33.0679  17.6708   7.5658 O.2            1 RES1               0.0000
     10 N10         30.3743  14.7418   8.0936 N.am           1 RES1               0.0000
     11 O11         30.6015  13.8889   6.0262 O.2            1 RES1               0.0000
     12 C12         33.9038  14.3944   7.1264 C.3            1 RES1               0.0000
     13 C13         29.4105  18.1512   4.6792 C.ar           1 RES1               0.0000
     14 C14         31.1516  17.6014   3.1475 C.ar           1 RES1               0.0000
     15 C15         30.5523  15.6930   9.0611 C.2            1 RES1               0.0000
     16 C16         29.9729  18.2605   3.4253 C.ar           1 RES1               0.0000
     17 O17         29.9851  15.6437  10.1487 O.2            1 RES1               0.0000
     18 H18         33.0279  14.5669   5.1791 H              1 RES1               0.0000
     19 H19         33.9144  16.0055   5.7146 H              1 RES1               0.0000
     20 H20         29.5676  17.3085   6.6350 H              1 RES1               0.0000
     21 H21         32.6952  16.3240   3.8804 H              1 RES1               0.0000
     22 H22         31.4709  17.4788   9.4311 H              1 RES1               0.0000
     23 H23         29.7815  13.9527   8.3305 H              1 RES1               0.0000
     24 H24         34.8311  13.9597   6.7591 H              1 RES1               0.0000
     25 H25         34.1386  15.0142   7.9893 H              1 RES1               0.0000
     26 H26         33.2573  13.5841   7.4570 H              1 RES1               0.0000
     27 H27         28.4823  18.6668   4.9024 H              1 RES1               0.0000
     28 H28         31.5974  17.6841   2.1618 H              1 RES1               0.0000
     29 H29         29.4906  18.8613   2.6613 H              1 RES1               0.0000
@<TRIPOS>BOND
    1    1    2 1     
    2    1    3 1     
    3    1    4 1     
    4    1    5 1     
    5    2    6 ar    
    6    2    7 ar    
    7    3    8 1     
    8    3    9 2     
    9    4   10 1     
   10    4   11 2     
   11    5   12 1     
   12    5   18 1     
   13    5   19 1     
   14    6   13 ar    
   15    6   20 1     
   16    7   14 ar    
   17    7   21 1     
   18    8   15 1     
   19    8   22 1     
   20   10   15 1     
   21   10   23 1     
   22   12   24 1     
   23   12   25 1     
   24   12   26 1     
   25   13   16 ar    
   26   13   27 1     
   27   14   16 ar    
   28   14   28 1     
   29   15   17 2     
   30   16   29 1     
@<TRIPOS>SUBSTRUCTURE
      1 RES1           1
@<TRIPOS>SET
DONOR_HYDROGENS      STATIC     ATOMS    <user>   **** ""
2 22 23
ATOM$RED        STATIC     ATOMS    COLORGROUP SYSTEM
2 22 23
@<TRIPOS>COMMENT
> <Gold.Version>
2022.3.0

> <Gold.Id.Protein>
unknown|4i1b_cavity_clean|pdb

> <Gold.Protein.RotatedTorsions>
[ 1475 1464 1463 1462 ] final   65.91 input   59.99 | X-H torsion
[  825  815  814  813 ] final   59.39 input   60.01 | X-H torsion
[ 1830 1825 1824 1821 ] final  106.29 input   60.00 | X-H torsion
[ 1453 1442 1441 1440 ] final  -47.28 input   59.98 | X-H torsion
[ 1529 1518 1517 1516 ] final -130.12 input   59.99 | X-H torsion

> <Gold.Protein.ActiveResidues>
 VAL47   GLN48   GLU50   LYS55   PRO57   LYS93   LYS94   MET95   GLU96   LYS97  
 VAL100  ASN102  GLU113  SER114  ALA115  PRO118 

> <Gold.Protein.RotatedAtoms>
   27.8024   22.6553   -2.2869 H   0  0  0  0  0  0  0  0  0  0  0  0  # atno 825  bound_to 815 
   27.3226   23.1655   -3.7888 H   0  0  0  0  0  0  0  0  0  0  0  0  # atno 826  bound_to 815 
   28.1910   24.1802   -2.8083 H   0  0  0  0  0  0  0  0  0  0  0  0  # atno 827  bound_to 815 
   27.2913   21.8849   16.8525 H   0  0  0  0  0  0  0  0  0  0  0  0  # atno 1453 bound_to 1442
   28.9125   21.5431   16.8984 H   0  0  0  0  0  0  0  0  0  0  0  0  # atno 1454 bound_to 1442
   28.3221   22.6127   15.7783 H   0  0  0  0  0  0  0  0  0  0  0  0  # atno 1455 bound_to 1442
   34.1883   15.4794   11.7649 H   0  0  0  0  0  0  0  0  0  0  0  0  # atno 1475 bound_to 1464
   35.0780   14.2366   11.1218 H   0  0  0  0  0  0  0  0  0  0  0  0  # atno 1476 bound_to 1464
   33.4408   14.3030   10.8673 H   0  0  0  0  0  0  0  0  0  0  0  0  # atno 1477 bound_to 1464
   32.7492   14.3011   -0.4335 H   0  0  0  0  0  0  0  0  0  0  0  0  # atno 1529 bound_to 1518
   33.4167   14.9660    0.9307 H   0  0  0  0  0  0  0  0  0  0  0  0  # atno 1530 bound_to 1518
   34.0000   13.5330    0.3359 H   0  0  0  0  0  0  0  0  0  0  0  0  # atno 1531 bound_to 1518
   25.9904   12.2721   -1.7390 H   0  0  0  0  0  0  0  0  0  0  0  0  # atno 1830 bound_to 1825
   26.8451   13.6440   -1.9275 LP  0  0  0  0  0  0  0  0  0  0  0  0  # atno 2424 bound_to 1825
   26.5713   12.6670   -3.2069 LP  0  0  0  0  0  0  0  0  0  0  0  0  # atno 2425 bound_to 1825

> <Gold.Score>
     Fitness  S(hb_ext) S(vdw_ext)  S(hb_int)    S(int)      intcor
     27.93       2.00      18.88       0.00      -0.03      -0.76

> <Gold.Goldscore.Fitness>
27.9265

> <Gold.Goldscore.Internal.Vdw>
-0.4221

> <Gold.Goldscore.Internal.Torsion>
-0.3680

> <Gold.Goldscore.External.Vdw>
18.8786

> <Gold.Goldscore.Internal.HBond>
0.0000

> <Gold.Goldscore.External.HBond>
2.0000

> <Gold.Goldscore.Internal.Correction>
-0.7585

> <Gold.Goldscore.Hbonds>
donor molecule, donor type, donor heavy atom, donor atom, acceptor molecule, acceptor atom, score
      L1  H    10    23       P1  1481  1.00

> <Gold.Goldscore.Internal.Vdw.Weighted>
-0.4221

> <Gold.Goldscore.Internal.Torsion.Weighted>
-0.3680

> <Gold.Goldscore.External.Vdw.Weighted>
25.9581

> <Gold.Goldscore.Internal.HBond.Weighted>
0.0000

> <Gold.Goldscore.External.HBond.Weighted>
2.0000

> <Gold.Goldscore.Internal.Correction.Weighted>
-0.7585

> <Gold.Rescore>
     Score     S(PLP)   S(hbond)     S(cho)   S(metal)  DE(clash)   DE(tors)     intcor
     23.66     -20.83       0.95       0.00       0.00       0.00       0.01       ----

> <Gold.PLP.Fitness>
23.6599

> <Gold.PLP.PLP>
-20.8283

> <Gold.PLP.part.hbond>
-2.1893

> <Gold.PLP.part.metal>
0.0000

> <Gold.PLP.part.buried>
-2.0970

> <Gold.PLP.part.nonpolar>
-19.9395

> <Gold.PLP.part.repulsive>
4.5354

> <Gold.PLP.ligand.clash>
0.0000

> <Gold.PLP.ligand.torsion>
0.0098

> <Gold.PLP.Chemscore.Hbond>
0.9504

> <Gold.PLP.Chemscore.CHOScore>
0.0000

> <Gold.PLP.Chemscore.Metal>
0.0000

> <Gold.Chemscore.Hbonds>
donor molecule, donor type, donor heavy atom, donor atom, acceptor molecule, acceptor atom, score
      L1  H    10    23       P1  1481  1.00

> <Gold.PLP.Chemscore.Internal.Correction>
   9.000000E+99

