@<TRIPOS>MOLECULE
A:35R401
   102   110     1     0     1
SMALL
NO_CHARGES
****
Generated from the CSD

@<TRIPOS>ATOM
     1 O1     -28.7110  10.4870   1.8410   O.2       1 35R401   0.0000
     2 C2     -28.3800  10.2690   2.9620   C.2       1 35R401   0.0000
     3 N3     -26.9690  10.2050   3.3370   N.am      1 35R401   0.0000
     4 C4     -26.5430   9.9440   4.7150   C.3       1 35R401   0.0000
     5 C5     -26.7740  11.0640   5.7350   C.3       1 35R401   0.0000
     6 C6     -25.3710  10.8130   5.1790   C.3       1 35R401   0.0000
     7 N7     -29.3680  10.0780   4.0120   N.am      1 35R401   0.0000
     8 C8     -30.8120  10.0890   3.7910   C.2       1 35R401   0.0000
     9 C9     -31.5470  10.1140   2.5910   C.2       1 35R401   0.0000
    10 N10    -32.8220  10.0780   2.9190   N.pl3     1 35R401   0.0000
    11 N12    -32.9620  10.0180   4.2450   N.2       1 35R401   0.0000
    12 C13    -31.7820  10.0130   4.8170   C.2       1 35R401   0.0000
    13 C14    -31.4260   9.9700   6.3060   C.2       1 35R401   0.0000
    14 N15    -32.2710   9.8170   7.3170   N.2       1 35R401   0.0000
    15 C16    -31.5420   9.8490   8.4760   C.ar      1 35R401   0.0000
    16 C17    -31.8950   9.7410   9.8620   C.ar      1 35R401   0.0000
    17 C18    -30.8970   9.8160  10.8440   C.ar      1 35R401   0.0000
    18 C19    -29.5490   9.9930  10.4620   C.ar      1 35R401   0.0000
    19 C20    -28.4110  10.0910  11.5150   C.3       1 35R401   0.0000
    20 N21    -28.4430   9.1360  12.3610   N.3       1 35R401   0.0000
    21 C23    -27.3370   9.2400  13.1900   C.3       1 35R401   0.0000
    22 C24    -27.1940   8.0480  14.1500   C.3       1 35R401   0.0000
    23 O25    -27.3290   6.8240  13.5080   O.3       1 35R401   0.0000
    24 C26    -28.4900   6.7660  12.7550   C.3       1 35R401   0.0000
    25 C27    -28.5080   7.9070  11.7310   C.3       1 35R401   0.0000
    26 C28    -29.2080  10.1120   9.1110   C.ar      1 35R401   0.0000
    27 C29    -30.2230  10.0350   8.1160   C.ar      1 35R401   0.0000
    28 N30    -30.1810  10.1030   6.7590   N.pl3     1 35R401   0.0000
    29 O1     -28.6910  10.1310   1.6760   O.2       1 35R401   0.0000
    30 C2     -28.2730  10.2770   2.7770   C.2       1 35R401   0.0000
    31 N3     -26.8260  10.4040   2.9890   N.am      1 35R401   0.0000
    32 C4     -25.8960  10.3540   1.8410   C.3       1 35R401   0.0000
    33 C5     -24.4090  10.1990   2.1830   C.3       1 35R401   0.0000
    34 C6     -25.1850   9.0240   1.5810   C.3       1 35R401   0.0000
    35 N7     -29.2000  10.3420   3.9120   N.am      1 35R401   0.0000
    36 C8     -30.6530  10.2020   3.7400   C.2       1 35R401   0.0000
    37 C9     -31.4130  10.1750   2.5480   C.2       1 35R401   0.0000
    38 N10    -32.6790  10.0170   2.8760   N.pl3     1 35R401   0.0000
    39 N12    -32.7950   9.9320   4.2020   N.2       1 35R401   0.0000
    40 C13    -31.6160  10.0320   4.7710   C.2       1 35R401   0.0000
    41 C14    -31.3000   9.9950   6.2710   C.2       1 35R401   0.0000
    42 N15    -32.1820   9.8410   7.2540   N.pl3     1 35R401   0.0000
    43 C16    -31.4950   9.8750   8.4380   C.ar      1 35R401   0.0000
    44 C17    -31.8930   9.7660   9.8110   C.ar      1 35R401   0.0000
    45 C18    -30.9290   9.8430  10.8270   C.ar      1 35R401   0.0000
    46 C19    -29.5700  10.0210  10.4940   C.ar      1 35R401   0.0000
    47 C20    -28.4680  10.1210  11.5850   C.3       1 35R401   0.0000
    48 N21    -28.4830   9.1400  12.4010   N.3       1 35R401   0.0000
    49 C23    -27.3690   9.2350  13.2210   C.3       1 35R401   0.0000
    50 C24    -27.2170   8.0320  14.1630   C.3       1 35R401   0.0000
    51 O25    -27.3260   6.8180  13.4990   O.3       1 35R401   0.0000
    52 C26    -28.4730   6.7550  12.7240   C.3       1 35R401   0.0000
    53 C27    -28.5270   7.9270  11.7360   C.3       1 35R401   0.0000
    54 C28    -29.1860  10.1370   9.1530   C.ar      1 35R401   0.0000
    55 C29    -30.1650  10.0590   8.1220   C.ar      1 35R401   0.0000
    56 N30    -30.0740  10.1290   6.7650   N.2       1 35R401   0.0000
    57 H1     -29.3490  10.2321   6.1922   H         1 35R401   0.0000
    58 H2     -26.5847   8.9162   5.0725   H         1 35R401   0.0000
    59 H3     -27.0010  10.8183   6.7714   H         1 35R401   0.0000
    60 H4     -27.3222  11.9594   5.4457   H         1 35R401   0.0000
    61 H5     -26.4622  10.5268   3.9286   H         1 35R401   0.0000
    62 H6     -33.1840   9.7200   7.1462   H         1 35R401   0.0000
    63 H7     -27.4289  10.1513  13.7790   H         1 35R401   0.0000
    64 H8     -26.4429   9.2966  12.5709   H         1 35R401   0.0000
    65 H9     -31.1387  10.1553   1.5823   H         1 35R401   0.0000
    66 H10    -27.4562  10.1386  13.8225   H         1 35R401   0.0000
    67 H11    -26.4807   9.3003  12.5944   H         1 35R401   0.0000
    68 H12    -28.5106  11.0344  12.0497   H         1 35R401   0.0000
    69 H13    -27.4533  10.0666  10.9972   H         1 35R401   0.0000
    70 H14    -33.5906  10.0937   2.2562   H         1 35R401   0.0000
    71 H15    -27.9621   8.1252  14.9182   H         1 35R401   0.0000
    72 H16    -26.2101   8.0910  14.6148   H         1 35R401   0.0000
    73 H17    -29.3522   6.8589  13.4137   H         1 35R401   0.0000
    74 H18    -28.5337   5.8116  12.2324   H         1 35R401   0.0000
    75 H19    -27.9941   8.0844  14.9241   H         1 35R401   0.0000
    76 H20    -26.2388   8.0828  14.6389   H         1 35R401   0.0000
    77 H21    -26.2627  10.3455   2.6217   H         1 35R401   0.0000
    78 H22    -24.9836   8.7052   0.5594   H         1 35R401   0.0000
    79 H23    -25.4170   8.1541   2.1937   H         1 35R401   0.0000
    80 H24    -28.1692  10.2631   8.8211   H         1 35R401   0.0000
    81 H25    -27.6766   7.8612  11.0589   H         1 35R401   0.0000
    82 H26    -29.4518   7.8680  11.1640   H         1 35R401   0.0000
    83 H27    -29.3458   6.7953  13.3740   H         1 35R401   0.0000
    84 H28    -28.4774   5.8187  12.1680   H         1 35R401   0.0000
    85 H29    -28.6185  11.0418  12.1467   H         1 35R401   0.0000
    86 H30    -27.4960  10.1496  11.0947   H         1 35R401   0.0000
    87 H31    -31.2293   9.7655  11.8709   H         1 35R401   0.0000
    88 H32    -32.9424   9.6236  10.0648   H         1 35R401   0.0000
    89 H33    -29.0330   9.9275   4.9582   H         1 35R401   0.0000
    90 H34    -31.1605   9.7380  11.8978   H         1 35R401   0.0000
    91 H35    -28.1379  10.2870   8.8981   H         1 35R401   0.0000
    92 H36    -27.6528   7.8020  11.0650   H         1 35R401   0.0000
    93 H37    -29.4283   7.8516  11.1515   H         1 35R401   0.0000
    94 H38    -28.8267  10.4881   4.8445   H         1 35R401   0.0000
    95 H39    -26.1454  10.9621   0.9727   H         1 35R401   0.0000
    96 H40    -33.4505   9.9674   2.2183   H         1 35R401   0.0000
    97 H41    -31.0207  10.2684   1.5364   H         1 35R401   0.0000
    98 H42    -32.9356   9.6011  10.1509   H         1 35R401   0.0000
    99 H43    -24.0900  10.1651   3.2237   H         1 35R401   0.0000
   100 H44    -23.6567  10.7163   1.5894   H         1 35R401   0.0000
   101 H45    -24.9206  11.5301   4.4943   H         1 35R401   0.0000
   102 H46    -24.5994  10.3890   5.8199   H         1 35R401   0.0000
@<TRIPOS>BOND
     1     1     2    2
     2    29    30    2
     3     2     3   am
     4    30    31   am
     5     3     4    1
     6    31    32    1
     7     4     5    1
     8    32    33    1
     9     4     6    1
    10     5     6    1
    11    32    34    1
    12    33    34    1
    13     2     7   am
    14    30    35   am
    15     7     8    1
    16    35    36    1
    17     8     9    2
    18    36    37    2
    19     9    10    1
    20    37    38    1
    21    10    11    1
    22    38    39    1
    23     8    12    1
    24    11    12    2
    25    36    40    1
    26    39    40    2
    27    12    13    1
    28    40    41    1
    29    13    14    2
    30    41    42    1
    31    14    15    1
    32    42    43    1
    33    15    16   ar
    34    43    44   ar
    35    16    17   ar
    36    44    45   ar
    37    17    18   ar
    38    45    46   ar
    39    18    19    1
    40    46    47    1
    41    19    20    1
    42    47    48    1
    43    20    21    1
    44    48    49    1
    45    21    22    1
    46    49    50    1
    47    22    23    1
    48    50    51    1
    49    23    24    1
    50    51    52    1
    51    20    25    1
    52    24    25    1
    53    48    53    1
    54    52    53    1
    55    18    26   ar
    56    46    54   ar
    57    15    27   ar
    58    26    27   ar
    59    43    55   ar
    60    54    55   ar
    61    13    28    1
    62    27    28    1
    63    41    56    2
    64    55    56    1
    65    28    57    1
    66     4    58    1
    67     5    59    1
    68     5    60    1
    69    31    61    1
    70    42    62    1
    71    21    63    1
    72    21    64    1
    73     9    65    1
    74    49    66    1
    75    49    67    1
    76    19    68    1
    77    19    69    1
    78    10    70    1
    79    22    71    1
    80    22    72    1
    81    24    73    1
    82    24    74    1
    83    50    75    1
    84    50    76    1
    85     3    77    1
    86    34    78    1
    87    34    79    1
    88    26    80    1
    89    53    81    1
    90    53    82    1
    91    52    83    1
    92    52    84    1
    93    47    85    1
    94    47    86    1
    95    45    87    1
    96    44    88    1
    97     7    89    1
    98    17    90    1
    99    54    91    1
   100    25    92    1
   101    25    93    1
   102    35    94    1
   103    32    95    1
   104    38    96    1
   105    37    97    1
   106    16    98    1
   107    33    99    1
   108    33   100    1
   109     6   101    1
   110     6   102    1
@<TRIPOS>SUBSTRUCTURE
     1 35R401      1 GROUP             0 A     35R     0  
@<TRIPOS>SET
CCDC_LIGAND STATIC ATOMS
102 1 2 3 4 5 6 7 8 9 \
10 11 12 13 14 15 16 17 18 19 \
20 21 22 23 24 25 26 27 28 29 \
30 31 32 33 34 35 36 37 38 39 \
40 41 42 43 44 45 46 47 48 49 \
50 51 52 53 54 55 56 57 58 59 \
60 61 62 63 64 65 66 67 68 69 \
70 71 72 73 74 75 76 77 78 79 \
80 81 82 83 84 85 86 87 88 89 \
90 91 92 93 94 95 96 97 98 99 \
100 101 102 
