#       Name:                CT1002167954
#       Creating user name   hitesit
#       Creation time:       Sun Apr 16 20:33:11 2023


#       File generated by GOLD software.
#

@<TRIPOS>MOLECULE
CT1002167954|ligand_prepared|mol2|1|dock1
    29    30     1
SMALL
NO_CHARGES


@<TRIPOS>ATOM
      1 C1         248.9444  11.4254  35.2767 C.3            1 RES1               0.0000
      2 C2         248.8959  12.9108  35.6889 C.ar           1 RES1               0.0000
      3 C3         250.0353  10.7803  36.1264 C.2            1 RES1               0.0000
      4 C4         247.5481  10.8670  35.5283 C.2            1 RES1               0.0000
      5 C5         249.2868  11.2017  33.7853 C.3            1 RES1               0.0000
      6 C6         249.7653  13.8340  35.1157 C.ar           1 RES1               0.0000
      7 C7         247.9872  13.3725  36.6374 C.ar           1 RES1               0.0000
      8 N8         249.6424   9.9637  37.1456 N.am           1 RES1               0.0000
      9 O9         251.2212  11.0158  35.9301 O.2            1 RES1               0.0000
     10 N10        247.4045   9.9099  36.4984 N.am           1 RES1               0.0000
     11 O11        246.5683  11.2592  34.9067 O.2            1 RES1               0.0000
     12 C12        248.8565   9.8433  33.2544 C.3            1 RES1               0.0000
     13 C13        249.7257  15.1709  35.4754 C.ar           1 RES1               0.0000
     14 C14        247.9495  14.7099  36.9958 C.ar           1 RES1               0.0000
     15 C15        248.3833   9.4551  37.3395 C.2            1 RES1               0.0000
     16 C16        248.8177  15.6098  36.4152 C.ar           1 RES1               0.0000
     17 O17        248.1649   8.6322  38.2239 O.2            1 RES1               0.0000
     18 H18        248.7996  11.9839  33.1900 H              1 RES1               0.0000
     19 H19        250.3708  11.3055  33.6524 H              1 RES1               0.0000
     20 H20        250.4884  13.5067  34.3761 H              1 RES1               0.0000
     21 H21        247.2954  12.6823  37.1081 H              1 RES1               0.0000
     22 H22        250.3502   9.7076  37.8265 H              1 RES1               0.0000
     23 H23        246.4826   9.4982  36.6031 H              1 RES1               0.0000
     24 H24        249.1204   9.7384  32.2042 H              1 RES1               0.0000
     25 H25        249.3418   9.0417  33.8074 H              1 RES1               0.0000
     26 H26        247.7800   9.7161  33.3478 H              1 RES1               0.0000
     27 H27        250.4121  15.8749  35.0165 H              1 RES1               0.0000
     28 H28        247.2335  15.0508  37.7364 H              1 RES1               0.0000
     29 H29        248.7866  16.6573  36.6966 H              1 RES1               0.0000
@<TRIPOS>BOND
    1    1    2 1     
    2    1    3 1     
    3    1    4 1     
    4    1    5 1     
    5    2    6 ar    
    6    2    7 ar    
    7    3    8 1     
    8    3    9 2     
    9    4   10 1     
   10    4   11 2     
   11    5   12 1     
   12    5   18 1     
   13    5   19 1     
   14    6   13 ar    
   15    6   20 1     
   16    7   14 ar    
   17    7   21 1     
   18    8   15 1     
   19    8   22 1     
   20   10   15 1     
   21   10   23 1     
   22   12   24 1     
   23   12   25 1     
   24   12   26 1     
   25   13   16 ar    
   26   13   27 1     
   27   14   16 ar    
   28   14   28 1     
   29   15   17 2     
   30   16   29 1     
@<TRIPOS>SUBSTRUCTURE
      1 RES1           1
@<TRIPOS>SET
DONOR_HYDROGENS      STATIC     ATOMS    <user>   **** ""
2 22 23
ATOM$RED        STATIC     ATOMS    COLORGROUP SYSTEM
2 22 23
@<TRIPOS>COMMENT
> <Gold.Version>
2022.3.0

> <Gold.Id.Protein>
unknown|4d1n_clean|pdb

> <Gold.Protein.RotatedTorsions>
[ 17004 16968 16967 16965 ] final   84.18 input   59.98 | X-H torsion
[ 18512 18476 18475 18473 ] final  117.86 input   59.98 | X-H torsion
[ 18572 18537 18538 18539 ] final  -80.28 input   87.04 | X-H torsion
[ 18719 18692 18693 18694 ] final  -87.92 input  124.02 | X-H torsion
[ 18790 18749 18750 18751 ] final -155.12 input   91.60 | X-H torsion
[ 19033 19013 19014 19015 ] final  139.10 input  122.46 | X-H torsion
[ 17200 17180 17181 17182 ] final  -80.19 input   47.21 | X-H torsion
[ 17260 17226 17227 17228 ] final   69.18 input  117.85 | X-H torsion
[ 18826 18813 18814 18815 ] final   70.03 input  116.01 | X-H torsion
[ 18976 18926 18927 18928 ] final -150.95 input  102.20 | X-H torsion
[ 19112 19073 19074 19075 ] final -171.50 input   89.03 | X-H torsion
[ 18504 18465 18466 18467 ] final -146.88 input  102.26 | X-H torsion
[ 18300 18279 18280 18281 ] final  126.60 input   28.27 | X-H torsion
[ 18330 18317 18318 18319 ] final  -17.41 input   50.43 | X-H torsion
[ 18419 18375 18376 18377 ] final -110.19 input   32.92 | X-H torsion
[ 7530 7517 7518 7519 ] final  -65.86 input   89.56 | X-H torsion
[ 7496 7462 7463 7464 ] final  116.01 input  103.52 | X-H torsion
[ 18606 18593 18594 18595 ] final  -97.93 input  124.70 | X-H torsion
[ 10120 10100 10099 10096 ] final -121.03 input   60.00 | X-H torsion
[ 18304 18284 18283 18280 ] final  -46.58 input   60.01 | X-H torsion
[ 11501 11468 11469 11470 ] final  -26.33 input   45.03 | X-H torsion
[ 18664 18636 18634 18631 ] final   76.05 input   60.01 | X-H torsion
[ 18884 18850 18851 18852 ] final  109.99 input   84.91 | X-H torsion
[ 17308 17287 17288 17289 ] final  145.70 input   50.16 | X-H torsion
[ 22456 22422 22423 22424 ] final  -71.56 input   54.84 | X-H torsion
[ 11440 11420 11419 11416 ] final  -13.48 input   60.01 | X-H torsion
[ 11650 11609 11610 11611 ] final   59.63 input   61.57 | X-H torsion
[ 11832 11793 11794 11795 ] final  -94.97 input   91.14 | X-H torsion
[ 16996 16957 16958 16959 ] final  126.28 input   91.87 | X-H torsion
[ 27198 18540 18539 18538 ] final  -34.54 input   -0.00 | X-H torsion
[ 27200 18633 18632 18631 ] final  150.25 input    0.00 | X-H torsion
[ 27203 18695 18694 18693 ] final   13.91 input   -0.00 | X-H torsion
[ 27222 17133 17132 17131 ] final  154.52 input    0.00 | X-H torsion
[ 27226 11612 11611 11610 ] final   44.14 input    0.00 | X-H torsion
[ 27230 17060 17059 17058 ] final -171.12 input   -0.00 | X-H torsion
[ 27232 18752 18751 18750 ] final  121.53 input    0.00 | X-H torsion
[ 27234 18596 18595 18594 ] final -162.50 input   -0.00 | X-H torsion
[ 27238 18929 18928 18927 ] final -179.11 input   -0.00 | X-H torsion
[ 27240 19016 19015 19014 ] final -124.07 input   -0.00 | X-H torsion
[ 27243 11418 11417 11416 ] final   46.90 input    0.00 | X-H torsion
[ 27245 17183 17182 17181 ] final   94.46 input   -0.00 | X-H torsion
[ 27247 18378 18377 18376 ] final   29.52 input   -0.00 | X-H torsion
[ 27250 18217 18216 18215 ] final   30.87 input    0.00 | X-H torsion
[ 27254 17229 17228 17227 ] final  175.08 input   -0.00 | X-H torsion
[ 27259 18320 18319 18318 ] final  -79.68 input    0.00 | X-H torsion
[ 27261 18468 18467 18466 ] final   66.64 input    0.00 | X-H torsion
[ 27264 18282 18281 18280 ] final  106.99 input   -0.00 | X-H torsion
[ 27267 17020 17019 17018 ] final -157.49 input   -0.00 | X-H torsion
[ 27275 16960 16959 16958 ] final  -81.55 input    0.00 | X-H torsion

> <Gold.Protein.ActiveResidues>
 TRP414  CYS420  VAL421  GLY422  LEU460  SER462  SER482  GLN483  ILE485  ARG486 
 TYR487  ASP500  ASN503  TRP566  TYR567  GLY568  LEU569  PRO570  ALA571  VAL572 
 SER573  ASN574  PHE589  SER590  GLY591  TRP592  TYR593  MET594  GLY595  THR596 
 GLU597  ILE598  GLY599  VAL600  ARG601  ASP602  TYR603  ARG608  ILE653  VAL654 
 TRP683  PRO687  HEM750  H4B760 

> <Gold.Protein.RotatedAtoms>
  241.6482   11.3655   32.0401 H   0  0  0  0  0  0  0  0  0  0  0  0  # atno 7496 bound_to 7462
  241.1140    8.1820   31.3395 H   0  0  0  0  0  0  0  0  0  0  0  0  # atno 7530 bound_to 7517
  247.5137    2.7999   36.2699 H   0  0  0  0  0  0  0  0  0  0  0  0  # atno 10120 bound_to 10100
  254.9804   18.7208   42.0591 H   0  0  0  0  0  0  0  0  0  0  0  0  # atno 11440 bound_to 11420
  254.9755   16.1494   43.1430 H   0  0  0  0  0  0  0  0  0  0  0  0  # atno 11501 bound_to 11468
  257.4689   12.2689   40.3543 H   0  0  0  0  0  0  0  0  0  0  0  0  # atno 11650 bound_to 11609
  261.1192   17.3112   38.2264 H   0  0  0  0  0  0  0  0  0  0  0  0  # atno 11832 bound_to 11793
  260.6862   13.3825   32.4201 H   0  0  0  0  0  0  0  0  0  0  0  0  # atno 16996 bound_to 16957
  256.4654   15.2913   36.7860 H   0  0  0  0  0  0  0  0  0  0  0  0  # atno 17004 bound_to 16968
  252.8956   10.8054   37.9033 H   0  0  0  0  0  0  0  0  0  0  0  0  # atno 17200 bound_to 17180
  251.0039   10.7464   40.5715 H   0  0  0  0  0  0  0  0  0  0  0  0  # atno 17260 bound_to 17226
  252.0858   13.0687   42.9483 H   0  0  0  0  0  0  0  0  0  0  0  0  # atno 17308 bound_to 17287
  250.7858    6.3749   41.3583 H   0  0  0  0  0  0  0  0  0  0  0  0  # atno 18300 bound_to 18279
  251.9902    4.7061   40.4820 H   0  0  0  0  0  0  0  0  0  0  0  0  # atno 18304 bound_to 18284
  251.2376    6.4771   37.0624 H   0  0  0  0  0  0  0  0  0  0  0  0  # atno 18330 bound_to 18317
  250.7835    6.0429   34.6395 H   0  0  0  0  0  0  0  0  0  0  0  0  # atno 18419 bound_to 18375
  251.8956    8.0225   32.0177 H   0  0  0  0  0  0  0  0  0  0  0  0  # atno 18504 bound_to 18465
  255.0997   13.2696   34.3100 H   0  0  0  0  0  0  0  0  0  0  0  0  # atno 18512 bound_to 18476
  250.5143    9.3940   28.9059 H   0  0  0  0  0  0  0  0  0  0  0  0  # atno 18572 bound_to 18537
  250.6614   10.9000   26.6390 H   0  0  0  0  0  0  0  0  0  0  0  0  # atno 18606 bound_to 18593
  247.6061   15.4246   26.4993 H   0  0  0  0  0  0  0  0  0  0  0  0  # atno 18664 bound_to 18636
  249.6610   15.8726   26.6710 H   0  0  0  0  0  0  0  0  0  0  0  0  # atno 18719 bound_to 18692
  252.4684   15.5174   28.8934 H   0  0  0  0  0  0  0  0  0  0  0  0  # atno 18790 bound_to 18749
  253.0134   16.2182   25.6304 H   0  0  0  0  0  0  0  0  0  0  0  0  # atno 18826 bound_to 18813
  251.6729   17.8642   24.6616 H   0  0  0  0  0  0  0  0  0  0  0  0  # atno 18884 bound_to 18850
  250.5564   20.3566   26.1218 H   0  0  0  0  0  0  0  0  0  0  0  0  # atno 18976 bound_to 18926
  252.9171   19.4253   29.0780 H   0  0  0  0  0  0  0  0  0  0  0  0  # atno 19033 bound_to 19013
  255.9792   20.1596   28.0279 H   0  0  0  0  0  0  0  0  0  0  0  0  # atno 19112 bound_to 19073
  251.4661    6.4644   25.3146 H   0  0  0  0  0  0  0  0  0  0  0  0  # atno 22456 bound_to 22422
  255.6378   14.8890   35.4438 LP  0  0  0  0  0  0  0  0  0  0  0  0  # atno 27193 bound_to 16968
  256.6686   16.1553   35.4220 LP  0  0  0  0  0  0  0  0  0  0  0  0  # atno 27194 bound_to 16968
  254.3284   14.4601   33.5132 LP  0  0  0  0  0  0  0  0  0  0  0  0  # atno 27195 bound_to 18476
  255.8368   14.0199   33.0688 LP  0  0  0  0  0  0  0  0  0  0  0  0  # atno 27196 bound_to 18476
  249.3225   10.4320   29.6565 LP  0  0  0  0  0  0  0  0  0  0  0  0  # atno 27197 bound_to 18537
  249.9078   12.7653   28.3310 LP  0  0  0  0  0  0  0  0  0  0  0  0  # atno 27198 bound_to 18540
  251.4442   12.7329   27.5319 LP  0  0  0  0  0  0  0  0  0  0  0  0  # atno 27199 bound_to 18540
  250.2243   17.7599   27.1778 LP  0  0  0  0  0  0  0  0  0  0  0  0  # atno 27200 bound_to 18633
  250.9121   17.6584   25.5914 LP  0  0  0  0  0  0  0  0  0  0  0  0  # atno 27201 bound_to 18633
  250.2139   14.3374   27.2780 LP  0  0  0  0  0  0  0  0  0  0  0  0  # atno 27202 bound_to 18692
  251.5022   17.9009   29.9365 LP  0  0  0  0  0  0  0  0  0  0  0  0  # atno 27203 bound_to 18695
  253.0085   18.0112   29.0887 LP  0  0  0  0  0  0  0  0  0  0  0  0  # atno 27204 bound_to 18695
  252.1829   15.7344   27.1791 LP  0  0  0  0  0  0  0  0  0  0  0  0  # atno 27209 bound_to 18749
  253.0012   21.0704   28.4916 LP  0  0  0  0  0  0  0  0  0  0  0  0  # atno 27210 bound_to 19013
  252.2727    8.5556   38.2839 LP  0  0  0  0  0  0  0  0  0  0  0  0  # atno 27222 bound_to 17133
  251.8669    8.9253   36.6412 LP  0  0  0  0  0  0  0  0  0  0  0  0  # atno 27223 bound_to 17133
  254.5830   10.7727   38.3629 LP  0  0  0  0  0  0  0  0  0  0  0  0  # atno 27224 bound_to 17180
  252.3518   11.7876   40.1649 LP  0  0  0  0  0  0  0  0  0  0  0  0  # atno 27225 bound_to 17226
  257.2069   13.6465   38.6482 LP  0  0  0  0  0  0  0  0  0  0  0  0  # atno 27226 bound_to 11612
  258.0948   14.5270   37.4497 LP  0  0  0  0  0  0  0  0  0  0  0  0  # atno 27227 bound_to 11612
  256.0456   10.6822   37.2395 LP  0  0  0  0  0  0  0  0  0  0  0  0  # atno 27230 bound_to 17060
  257.5111    9.8175   36.9162 LP  0  0  0  0  0  0  0  0  0  0  0  0  # atno 27231 bound_to 17060
  255.6661   18.4713   26.1342 LP  0  0  0  0  0  0  0  0  0  0  0  0  # atno 27232 bound_to 18752
  254.4427   18.9157   27.2770 LP  0  0  0  0  0  0  0  0  0  0  0  0  # atno 27233 bound_to 18752
  252.2316   15.1808   25.5665 LP  0  0  0  0  0  0  0  0  0  0  0  0  # atno 27234 bound_to 18596
  253.2662   13.8712   25.1034 LP  0  0  0  0  0  0  0  0  0  0  0  0  # atno 27235 bound_to 18596
  254.6802   16.5431   26.0558 LP  0  0  0  0  0  0  0  0  0  0  0  0  # atno 27236 bound_to 18813
  252.0283   19.5928   26.6629 LP  0  0  0  0  0  0  0  0  0  0  0  0  # atno 27237 bound_to 18926
  254.0239   22.6958   29.0622 LP  0  0  0  0  0  0  0  0  0  0  0  0  # atno 27238 bound_to 18929
  252.5271   23.2850   28.4201 LP  0  0  0  0  0  0  0  0  0  0  0  0  # atno 27239 bound_to 18929
  256.4138   23.0224   28.9082 LP  0  0  0  0  0  0  0  0  0  0  0  0  # atno 27240 bound_to 19016
  257.0279   21.8524   30.0281 LP  0  0  0  0  0  0  0  0  0  0  0  0  # atno 27241 bound_to 19016
  254.7598   21.3167   27.5443 LP  0  0  0  0  0  0  0  0  0  0  0  0  # atno 27242 bound_to 19073
  251.5240   16.4502   42.2886 LP  0  0  0  0  0  0  0  0  0  0  0  0  # atno 27243 bound_to 11418
  252.1999   14.9014   42.6686 LP  0  0  0  0  0  0  0  0  0  0  0  0  # atno 27244 bound_to 11418
  254.0216   12.7088   41.2032 LP  0  0  0  0  0  0  0  0  0  0  0  0  # atno 27245 bound_to 17183
  253.7177   11.5356   42.4406 LP  0  0  0  0  0  0  0  0  0  0  0  0  # atno 27246 bound_to 17183
  249.2194    7.5671   32.8036 LP  0  0  0  0  0  0  0  0  0  0  0  0  # atno 27247 bound_to 18378
  249.2378    8.1689   31.1796 LP  0  0  0  0  0  0  0  0  0  0  0  0  # atno 27248 bound_to 18378
  251.8932    7.1001   30.5309 LP  0  0  0  0  0  0  0  0  0  0  0  0  # atno 27249 bound_to 18465
  250.8259    9.3448   41.7426 LP  0  0  0  0  0  0  0  0  0  0  0  0  # atno 27250 bound_to 18217
  250.4243    9.0090   40.0916 LP  0  0  0  0  0  0  0  0  0  0  0  0  # atno 27251 bound_to 18217
  250.5741   11.0463   44.2368 LP  0  0  0  0  0  0  0  0  0  0  0  0  # atno 27254 bound_to 17229
  250.0230   10.6597   42.6410 LP  0  0  0  0  0  0  0  0  0  0  0  0  # atno 27255 bound_to 17229
  249.2631    6.6560   40.5506 LP  0  0  0  0  0  0  0  0  0  0  0  0  # atno 27256 bound_to 18279
  249.6120    6.4571   37.7066 LP  0  0  0  0  0  0  0  0  0  0  0  0  # atno 27257 bound_to 18317
  249.6273    5.4562   33.4629 LP  0  0  0  0  0  0  0  0  0  0  0  0  # atno 27258 bound_to 18375
  252.7002    5.5746   35.5652 LP  0  0  0  0  0  0  0  0  0  0  0  0  # atno 27259 bound_to 18320
  252.3585    4.0915   34.7384 LP  0  0  0  0  0  0  0  0  0  0  0  0  # atno 27260 bound_to 18320
  250.4664    7.1698   28.5827 LP  0  0  0  0  0  0  0  0  0  0  0  0  # atno 27261 bound_to 18468
  251.0171    8.2414   27.3383 LP  0  0  0  0  0  0  0  0  0  0  0  0  # atno 27262 bound_to 18468
  242.3751    8.8223   32.3667 LP  0  0  0  0  0  0  0  0  0  0  0  0  # atno 27263 bound_to 7517
  248.9075    4.4858   38.7233 LP  0  0  0  0  0  0  0  0  0  0  0  0  # atno 27264 bound_to 18282
  250.5357    3.9192   38.8908 LP  0  0  0  0  0  0  0  0  0  0  0  0  # atno 27265 bound_to 18282
  240.5822   10.3060   32.9405 LP  0  0  0  0  0  0  0  0  0  0  0  0  # atno 27266 bound_to 7462
  255.5569    7.8112   33.1672 LP  0  0  0  0  0  0  0  0  0  0  0  0  # atno 27267 bound_to 17020
  256.3794    7.0866   31.8261 LP  0  0  0  0  0  0  0  0  0  0  0  0  # atno 27268 bound_to 17020
  249.6378   11.0406   25.2239 LP  0  0  0  0  0  0  0  0  0  0  0  0  # atno 27269 bound_to 18593
  247.5694    1.2451   35.7921 LP  0  0  0  0  0  0  0  0  0  0  0  0  # atno 27270 bound_to 10100
  248.9481    2.1088   35.9328 LP  0  0  0  0  0  0  0  0  0  0  0  0  # atno 27271 bound_to 10100
  253.5648    4.8122   40.0857 LP  0  0  0  0  0  0  0  0  0  0  0  0  # atno 27272 bound_to 18284
  252.4610    4.4011   38.9546 LP  0  0  0  0  0  0  0  0  0  0  0  0  # atno 27273 bound_to 18284
  253.9990   16.6362   41.7724 LP  0  0  0  0  0  0  0  0  0  0  0  0  # atno 27274 bound_to 11468
  257.7325   11.2822   32.4139 LP  0  0  0  0  0  0  0  0  0  0  0  0  # atno 27275 bound_to 16960
  258.3411   10.7917   30.8683 LP  0  0  0  0  0  0  0  0  0  0  0  0  # atno 27276 bound_to 16960

> <Gold.Score>
     Fitness  S(hb_ext) S(vdw_ext)  S(hb_int)    S(int)      intcor
     40.35       5.56      26.35       0.00      -1.43      -0.84

> <Gold.Goldscore.Fitness>
40.3501

> <Gold.Goldscore.Internal.Vdw>
-1.2762

> <Gold.Goldscore.Internal.Torsion>
-0.9980

> <Gold.Goldscore.External.Vdw>
26.3474

> <Gold.Goldscore.Internal.HBond>
0.0000

> <Gold.Goldscore.External.HBond>
5.5551

> <Gold.Goldscore.Internal.Correction>
-0.8416

> <Gold.Goldscore.Hbonds>
donor molecule, donor type, donor heavy atom, donor atom, acceptor molecule, acceptor atom, score
      P1  H 17180 17200       L1     9  0.76
      P1  M 26928 27277       L1    11  0.38
      L1  H     8    22       P1 18217  0.13

> <Gold.Goldscore.Internal.Vdw.Weighted>
-1.2762

> <Gold.Goldscore.Internal.Torsion.Weighted>
-0.9980

> <Gold.Goldscore.External.Vdw.Weighted>
36.2277

> <Gold.Goldscore.Internal.HBond.Weighted>
0.0000

> <Gold.Goldscore.External.HBond.Weighted>
5.5551

> <Gold.Goldscore.Internal.Correction.Weighted>
-0.8416

> <Gold.Rescore>
     Score     S(PLP)   S(hbond)     S(cho)   S(metal)  DE(clash)   DE(tors)     intcor
     34.70     -30.95       0.60       0.00       0.97       0.44       1.72       ----

> <Gold.PLP.Fitness>
34.6959

> <Gold.PLP.PLP>
-30.9544

> <Gold.PLP.part.hbond>
-3.3181

> <Gold.PLP.part.metal>
-1.0000

> <Gold.PLP.part.buried>
21.9295

> <Gold.PLP.part.nonpolar>
-52.7318

> <Gold.PLP.part.repulsive>
1.0769

> <Gold.PLP.ligand.clash>
0.4449

> <Gold.PLP.ligand.torsion>
1.7167

> <Gold.PLP.Chemscore.Hbond>
0.6012

> <Gold.PLP.Chemscore.CHOScore>
0.0000

> <Gold.PLP.Chemscore.Metal>
0.9693

> <Gold.Chemscore.Hbonds>
donor molecule, donor type, donor heavy atom, donor atom, acceptor molecule, acceptor atom, score
      L1  H     8    22       P1 17133  0.47
      P1  M 26928 26928       L1    11  0.94

> <Gold.PLP.Chemscore.Internal.Correction>
   9.000000E+99

