#       Name:                CT1002167954
#       Creating user name   hitesit
#       Creation time:       Sun Apr 16 20:33:13 2023


#       File generated by GOLD software.
#

@<TRIPOS>MOLECULE
CT1002167954|ligand_prepared|mol2|1|dock3
    29    30     1
SMALL
NO_CHARGES


@<TRIPOS>ATOM
      1 C1         250.7441  17.3106  34.1931 C.3            1 RES1               0.0000
      2 C2         250.3029  16.0023  34.8806 C.ar           1 RES1               0.0000
      3 C3         251.2002  18.2476  35.3077 C.2            1 RES1               0.0000
      4 C4         251.8471  16.9265  33.2130 C.2            1 RES1               0.0000
      5 C5         249.6176  18.0079  33.3954 C.3            1 RES1               0.0000
      6 C6         249.1936  15.9825  35.7206 C.ar           1 RES1               0.0000
      7 C7         250.9924  14.8090  34.6827 C.ar           1 RES1               0.0000
      8 N8         252.5402  18.4598  35.4460 N.am           1 RES1               0.0000
      9 O9         250.3988  18.7613  36.0785 O.2            1 RES1               0.0000
     10 N10        253.1106  17.4008  33.4502 N.am           1 RES1               0.0000
     11 O11        251.6368  16.2039  32.2466 O.2            1 RES1               0.0000
     12 C12        250.1216  19.0288  32.3875 C.3            1 RES1               0.0000
     13 C13        248.7864  14.8115  36.3381 C.ar           1 RES1               0.0000
     14 C14        250.5837  13.6391  35.3014 C.ar           1 RES1               0.0000
     15 C15        253.5135  18.1247  34.5392 C.2            1 RES1               0.0000
     16 C16        249.4808  13.6391  36.1287 C.ar           1 RES1               0.0000
     17 O17        254.6795  18.4687  34.7097 O.2            1 RES1               0.0000
     18 H18        249.0365  17.2442  32.8639 H              1 RES1               0.0000
     19 H19        248.9446  18.5108  34.1008 H              1 RES1               0.0000
     20 H20        248.6361  16.8959  35.8993 H              1 RES1               0.0000
     21 H21        251.8636  14.7856  34.0369 H              1 RES1               0.0000
     22 H22        252.8471  18.9091  36.3029 H              1 RES1               0.0000
     23 H23        253.8162  17.1952  32.7501 H              1 RES1               0.0000
     24 H24        249.2911  19.4881  31.8555 H              1 RES1               0.0000
     25 H25        250.6830  19.8171  32.8847 H              1 RES1               0.0000
     26 H26        250.7743  18.5581  31.6552 H              1 RES1               0.0000
     27 H27        247.9186  14.8171  36.9894 H              1 RES1               0.0000
     28 H28        251.1335  12.7189  35.1342 H              1 RES1               0.0000
     29 H29        249.1614  12.7218  36.6122 H              1 RES1               0.0000
@<TRIPOS>BOND
    1    1    2 1     
    2    1    3 1     
    3    1    4 1     
    4    1    5 1     
    5    2    6 ar    
    6    2    7 ar    
    7    3    8 1     
    8    3    9 2     
    9    4   10 1     
   10    4   11 2     
   11    5   12 1     
   12    5   18 1     
   13    5   19 1     
   14    6   13 ar    
   15    6   20 1     
   16    7   14 ar    
   17    7   21 1     
   18    8   15 1     
   19    8   22 1     
   20   10   15 1     
   21   10   23 1     
   22   12   24 1     
   23   12   25 1     
   24   12   26 1     
   25   13   16 ar    
   26   13   27 1     
   27   14   16 ar    
   28   14   28 1     
   29   15   17 2     
   30   16   29 1     
@<TRIPOS>SUBSTRUCTURE
      1 RES1           1
@<TRIPOS>SET
DONOR_HYDROGENS      STATIC     ATOMS    <user>   **** ""
2 22 23
ATOM$RED        STATIC     ATOMS    COLORGROUP SYSTEM
2 22 23
@<TRIPOS>COMMENT
> <Gold.Version>
2022.3.0

> <Gold.Id.Protein>
unknown|4d1n_clean|pdb

> <Gold.Protein.RotatedTorsions>
[ 17004 16968 16967 16965 ] final   98.97 input   59.98 | X-H torsion
[ 18512 18476 18475 18473 ] final   11.23 input   59.98 | X-H torsion
[ 18572 18537 18538 18539 ] final   -7.63 input   87.04 | X-H torsion
[ 18719 18692 18693 18694 ] final  -19.88 input  124.02 | X-H torsion
[ 18790 18749 18750 18751 ] final  127.48 input   91.60 | X-H torsion
[ 19033 19013 19014 19015 ] final  -52.66 input  122.46 | X-H torsion
[ 17200 17180 17181 17182 ] final  -56.65 input   47.21 | X-H torsion
[ 17260 17226 17227 17228 ] final -164.52 input  117.85 | X-H torsion
[ 18826 18813 18814 18815 ] final   19.42 input  116.01 | X-H torsion
[ 18976 18926 18927 18928 ] final  -32.60 input  102.20 | X-H torsion
[ 19112 19073 19074 19075 ] final -114.96 input   89.03 | X-H torsion
[ 18504 18465 18466 18467 ] final   43.42 input  102.26 | X-H torsion
[ 18300 18279 18280 18281 ] final   79.14 input   28.27 | X-H torsion
[ 18330 18317 18318 18319 ] final  -96.99 input   50.43 | X-H torsion
[ 18419 18375 18376 18377 ] final -116.08 input   32.92 | X-H torsion
[ 7530 7517 7518 7519 ] final -151.53 input   89.56 | X-H torsion
[ 7496 7462 7463 7464 ] final -128.34 input  103.52 | X-H torsion
[ 18606 18593 18594 18595 ] final   57.32 input  124.70 | X-H torsion
[ 10120 10100 10099 10096 ] final   69.90 input   60.00 | X-H torsion
[ 18304 18284 18283 18280 ] final   88.17 input   60.01 | X-H torsion
[ 11501 11468 11469 11470 ] final  161.67 input   45.03 | X-H torsion
[ 18664 18636 18634 18631 ] final  -46.98 input   60.01 | X-H torsion
[ 18884 18850 18851 18852 ] final   59.33 input   84.91 | X-H torsion
[ 17308 17287 17288 17289 ] final -111.78 input   50.16 | X-H torsion
[ 22456 22422 22423 22424 ] final  137.56 input   54.84 | X-H torsion
[ 11440 11420 11419 11416 ] final -111.78 input   60.01 | X-H torsion
[ 11650 11609 11610 11611 ] final  -62.46 input   61.57 | X-H torsion
[ 11832 11793 11794 11795 ] final  172.29 input   91.14 | X-H torsion
[ 16996 16957 16958 16959 ] final -114.47 input   91.87 | X-H torsion
[ 27198 18540 18539 18538 ] final -115.76 input   -0.00 | X-H torsion
[ 27200 18633 18632 18631 ] final  -51.12 input    0.00 | X-H torsion
[ 27203 18695 18694 18693 ] final  -90.52 input   -0.00 | X-H torsion
[ 27222 17133 17132 17131 ] final -165.01 input    0.00 | X-H torsion
[ 27226 11612 11611 11610 ] final  175.53 input    0.00 | X-H torsion
[ 27230 17060 17059 17058 ] final  113.54 input   -0.00 | X-H torsion
[ 27232 18752 18751 18750 ] final   40.20 input    0.00 | X-H torsion
[ 27234 18596 18595 18594 ] final   -8.19 input   -0.00 | X-H torsion
[ 27238 18929 18928 18927 ] final  121.79 input   -0.00 | X-H torsion
[ 27240 19016 19015 19014 ] final  114.53 input   -0.00 | X-H torsion
[ 27243 11418 11417 11416 ] final  -23.20 input    0.00 | X-H torsion
[ 27245 17183 17182 17181 ] final -109.07 input   -0.00 | X-H torsion
[ 27247 18378 18377 18376 ] final  172.41 input   -0.00 | X-H torsion
[ 27250 18217 18216 18215 ] final  -13.39 input    0.00 | X-H torsion
[ 27254 17229 17228 17227 ] final  130.71 input   -0.00 | X-H torsion
[ 27259 18320 18319 18318 ] final  -72.83 input    0.00 | X-H torsion
[ 27261 18468 18467 18466 ] final  -65.59 input    0.00 | X-H torsion
[ 27264 18282 18281 18280 ] final -124.61 input   -0.00 | X-H torsion
[ 27267 17020 17019 17018 ] final  -87.13 input   -0.00 | X-H torsion
[ 27275 16960 16959 16958 ] final    4.27 input    0.00 | X-H torsion

> <Gold.Protein.ActiveResidues>
 TRP414  CYS420  VAL421  GLY422  LEU460  SER462  SER482  GLN483  ILE485  ARG486 
 TYR487  ASP500  ASN503  TRP566  TYR567  GLY568  LEU569  PRO570  ALA571  VAL572 
 SER573  ASN574  PHE589  SER590  GLY591  TRP592  TYR593  MET594  GLY595  THR596 
 GLU597  ILE598  GLY599  VAL600  ARG601  ASP602  TYR603  ARG608  ILE653  VAL654 
 TRP683  PRO687  HEM750  H4B760 

> <Gold.Protein.RotatedAtoms>
  240.2501   11.0799   32.5370 H   0  0  0  0  0  0  0  0  0  0  0  0  # atno 7496 bound_to 7462
  242.1850    8.6784   31.1071 H   0  0  0  0  0  0  0  0  0  0  0  0  # atno 7530 bound_to 7517
  248.3464    1.2244   35.7210 H   0  0  0  0  0  0  0  0  0  0  0  0  # atno 10120 bound_to 10100
  254.6447   20.0942   42.1498 H   0  0  0  0  0  0  0  0  0  0  0  0  # atno 11440 bound_to 11420
  253.8849   16.5813   41.8029 H   0  0  0  0  0  0  0  0  0  0  0  0  # atno 11501 bound_to 11468
  258.1148   13.1229   41.4862 H   0  0  0  0  0  0  0  0  0  0  0  0  # atno 11650 bound_to 11609
  260.9607   17.1948   36.9452 H   0  0  0  0  0  0  0  0  0  0  0  0  # atno 11832 bound_to 11793
  261.4297   12.6219   31.3358 H   0  0  0  0  0  0  0  0  0  0  0  0  # atno 16996 bound_to 16957
  256.6094   15.4816   36.7530 H   0  0  0  0  0  0  0  0  0  0  0  0  # atno 17004 bound_to 16968
  252.9409   11.1367   38.0417 H   0  0  0  0  0  0  0  0  0  0  0  0  # atno 17200 bound_to 17180
  251.7393   11.8266   39.6647 H   0  0  0  0  0  0  0  0  0  0  0  0  # atno 17260 bound_to 17226
  250.7775   12.6965   43.1413 H   0  0  0  0  0  0  0  0  0  0  0  0  # atno 17308 bound_to 17287
  250.4730    5.7823   41.1239 H   0  0  0  0  0  0  0  0  0  0  0  0  # atno 18300 bound_to 18279
  252.6995    4.4284   38.9311 H   0  0  0  0  0  0  0  0  0  0  0  0  # atno 18304 bound_to 18284
  250.7616    5.7691   37.8108 H   0  0  0  0  0  0  0  0  0  0  0  0  # atno 18330 bound_to 18317
  250.8177    5.9582   34.6412 H   0  0  0  0  0  0  0  0  0  0  0  0  # atno 18419 bound_to 18375
  252.0445    7.1368   30.4934 H   0  0  0  0  0  0  0  0  0  0  0  0  # atno 18504 bound_to 18465
  254.2562   14.3401   33.6814 H   0  0  0  0  0  0  0  0  0  0  0  0  # atno 18512 bound_to 18476
  250.6219   10.4208   29.1100 H   0  0  0  0  0  0  0  0  0  0  0  0  # atno 18572 bound_to 18537
  249.5379   11.3658   25.3889 H   0  0  0  0  0  0  0  0  0  0  0  0  # atno 18606 bound_to 18593
  247.9179   14.0228   25.6965 H   0  0  0  0  0  0  0  0  0  0  0  0  # atno 18664 bound_to 18636
  250.5706   15.5391   26.5631 H   0  0  0  0  0  0  0  0  0  0  0  0  # atno 18719 bound_to 18692
  252.6059   14.7836   28.0657 H   0  0  0  0  0  0  0  0  0  0  0  0  # atno 18790 bound_to 18749
  253.1327   16.8709   26.0030 H   0  0  0  0  0  0  0  0  0  0  0  0  # atno 18826 bound_to 18813
  251.9790   18.1189   25.3044 H   0  0  0  0  0  0  0  0  0  0  0  0  # atno 18884 bound_to 18850
  252.0627   20.3259   26.1525 H   0  0  0  0  0  0  0  0  0  0  0  0  # atno 18976 bound_to 18926
  252.9316   21.1345   28.6459 H   0  0  0  0  0  0  0  0  0  0  0  0  # atno 19033 bound_to 19013
  255.9264   20.8830   28.4523 H   0  0  0  0  0  0  0  0  0  0  0  0  # atno 19112 bound_to 19073
  250.5307    6.0073   26.6764 H   0  0  0  0  0  0  0  0  0  0  0  0  # atno 22456 bound_to 22422
  255.6283   14.7802   35.6605 LP  0  0  0  0  0  0  0  0  0  0  0  0  # atno 27193 bound_to 16968
  256.5332   16.0724   35.2386 LP  0  0  0  0  0  0  0  0  0  0  0  0  # atno 27194 bound_to 16968
  255.7136   14.1764   32.9770 LP  0  0  0  0  0  0  0  0  0  0  0  0  # atno 27195 bound_to 18476
  255.3016   13.2249   34.2385 LP  0  0  0  0  0  0  0  0  0  0  0  0  # atno 27196 bound_to 18476
  249.2182    9.4366   29.4587 LP  0  0  0  0  0  0  0  0  0  0  0  0  # atno 27197 bound_to 18537
  250.2629   13.2952   27.4012 LP  0  0  0  0  0  0  0  0  0  0  0  0  # atno 27198 bound_to 18540
  251.0891   12.2030   28.4617 LP  0  0  0  0  0  0  0  0  0  0  0  0  # atno 27199 bound_to 18540
  251.1682   17.5877   25.7720 LP  0  0  0  0  0  0  0  0  0  0  0  0  # atno 27200 bound_to 18633
  249.9683   17.8305   26.9972 LP  0  0  0  0  0  0  0  0  0  0  0  0  # atno 27201 bound_to 18633
  249.3059   14.6703   27.3857 LP  0  0  0  0  0  0  0  0  0  0  0  0  # atno 27202 bound_to 18692
  252.0702   18.4163   28.8027 LP  0  0  0  0  0  0  0  0  0  0  0  0  # atno 27203 bound_to 18695
  252.4404   17.4959   30.2225 LP  0  0  0  0  0  0  0  0  0  0  0  0  # atno 27204 bound_to 18695
  252.0502   16.4421   27.9774 LP  0  0  0  0  0  0  0  0  0  0  0  0  # atno 27209 bound_to 18749
  252.9871   19.4073   28.9120 LP  0  0  0  0  0  0  0  0  0  0  0  0  # atno 27210 bound_to 19013
  251.8242    8.9523   38.2655 LP  0  0  0  0  0  0  0  0  0  0  0  0  # atno 27222 bound_to 17133
  252.3154    8.5286   36.6596 LP  0  0  0  0  0  0  0  0  0  0  0  0  # atno 27223 bound_to 17133
  254.5390   10.4508   38.2285 LP  0  0  0  0  0  0  0  0  0  0  0  0  # atno 27224 bound_to 17180
  251.6428   10.7461   41.0392 LP  0  0  0  0  0  0  0  0  0  0  0  0  # atno 27225 bound_to 17226
  257.7389   14.9372   37.9116 LP  0  0  0  0  0  0  0  0  0  0  0  0  # atno 27226 bound_to 11612
  257.5628   13.2362   38.1863 LP  0  0  0  0  0  0  0  0  0  0  0  0  # atno 27227 bound_to 11612
  256.7548   10.8734   36.4774 LP  0  0  0  0  0  0  0  0  0  0  0  0  # atno 27230 bound_to 17060
  256.8020    9.6262   37.6783 LP  0  0  0  0  0  0  0  0  0  0  0  0  # atno 27231 bound_to 17060
  255.6438   18.3834   27.2593 LP  0  0  0  0  0  0  0  0  0  0  0  0  # atno 27232 bound_to 18752
  254.4651   19.0035   26.1519 LP  0  0  0  0  0  0  0  0  0  0  0  0  # atno 27233 bound_to 18752
  253.2371   13.8265   25.4846 LP  0  0  0  0  0  0  0  0  0  0  0  0  # atno 27234 bound_to 18596
  252.2608   15.2255   25.1853 LP  0  0  0  0  0  0  0  0  0  0  0  0  # atno 27235 bound_to 18596
  254.5649   15.9123   25.6957 LP  0  0  0  0  0  0  0  0  0  0  0  0  # atno 27236 bound_to 18813
  250.5400   19.6231   26.6326 LP  0  0  0  0  0  0  0  0  0  0  0  0  # atno 27237 bound_to 18926
  253.3809   22.8798   29.5936 LP  0  0  0  0  0  0  0  0  0  0  0  0  # atno 27238 bound_to 18929
  253.1702   23.1009   27.8887 LP  0  0  0  0  0  0  0  0  0  0  0  0  # atno 27239 bound_to 18929
  257.4148   21.9543   29.2808 LP  0  0  0  0  0  0  0  0  0  0  0  0  # atno 27240 bound_to 19016
  256.0270   22.9205   29.6556 LP  0  0  0  0  0  0  0  0  0  0  0  0  # atno 27241 bound_to 19016
  254.8111   20.6139   27.1320 LP  0  0  0  0  0  0  0  0  0  0  0  0  # atno 27242 bound_to 19073
  251.5490   16.0449   43.1967 LP  0  0  0  0  0  0  0  0  0  0  0  0  # atno 27243 bound_to 11418
  252.1750   15.3066   41.7605 LP  0  0  0  0  0  0  0  0  0  0  0  0  # atno 27244 bound_to 11418
  253.4704   11.7781   42.5090 LP  0  0  0  0  0  0  0  0  0  0  0  0  # atno 27245 bound_to 17183
  254.2689   12.4663   41.1347 LP  0  0  0  0  0  0  0  0  0  0  0  0  # atno 27246 bound_to 17183
  249.3844    8.5772   31.5196 LP  0  0  0  0  0  0  0  0  0  0  0  0  # atno 27247 bound_to 18378
  249.0729    7.1588   32.4636 LP  0  0  0  0  0  0  0  0  0  0  0  0  # atno 27248 bound_to 18378
  251.7488    7.9591   32.0093 LP  0  0  0  0  0  0  0  0  0  0  0  0  # atno 27249 bound_to 18465
  250.2015    9.4789   41.6095 LP  0  0  0  0  0  0  0  0  0  0  0  0  # atno 27250 bound_to 18217
  251.0488    8.8749   40.2248 LP  0  0  0  0  0  0  0  0  0  0  0  0  # atno 27251 bound_to 18217
  251.0304   10.7347   43.8866 LP  0  0  0  0  0  0  0  0  0  0  0  0  # atno 27254 bound_to 17229
  249.5667   10.9712   42.9912 LP  0  0  0  0  0  0  0  0  0  0  0  0  # atno 27255 bound_to 17229
  249.5697    7.2370   40.7804 LP  0  0  0  0  0  0  0  0  0  0  0  0  # atno 27256 bound_to 18279
  250.0747    7.1455   36.9791 LP  0  0  0  0  0  0  0  0  0  0  0  0  # atno 27257 bound_to 18317
  249.5942    5.5381   33.4613 LP  0  0  0  0  0  0  0  0  0  0  0  0  # atno 27258 bound_to 18375
  252.6678    5.5270   35.6510 LP  0  0  0  0  0  0  0  0  0  0  0  0  # atno 27259 bound_to 18320
  252.3909    4.1391   34.6526 LP  0  0  0  0  0  0  0  0  0  0  0  0  # atno 27260 bound_to 18320
  251.5317    7.9823   27.7382 LP  0  0  0  0  0  0  0  0  0  0  0  0  # atno 27261 bound_to 18468
  249.9518    7.4289   28.1828 LP  0  0  0  0  0  0  0  0  0  0  0  0  # atno 27262 bound_to 18468
  241.3303    8.3381   32.5934 LP  0  0  0  0  0  0  0  0  0  0  0  0  # atno 27263 bound_to 7517
  250.2177    3.8090   38.2163 LP  0  0  0  0  0  0  0  0  0  0  0  0  # atno 27264 bound_to 18282
  249.2255    4.5961   39.3978 LP  0  0  0  0  0  0  0  0  0  0  0  0  # atno 27265 bound_to 18282
  241.9278   10.5809   32.4622 LP  0  0  0  0  0  0  0  0  0  0  0  0  # atno 27266 bound_to 7462
  255.7784    8.2732   32.3109 LP  0  0  0  0  0  0  0  0  0  0  0  0  # atno 27267 bound_to 17020
  256.1578    6.6246   32.6825 LP  0  0  0  0  0  0  0  0  0  0  0  0  # atno 27268 bound_to 17020
  250.7188   10.5924   26.4267 LP  0  0  0  0  0  0  0  0  0  0  0  0  # atno 27269 bound_to 18593
  248.5985    2.7703   36.1632 LP  0  0  0  0  0  0  0  0  0  0  0  0  # atno 27270 bound_to 10100
  247.0809    2.1693   36.1141 LP  0  0  0  0  0  0  0  0  0  0  0  0  # atno 27271 bound_to 10100
  251.8459    4.6419   40.2997 LP  0  0  0  0  0  0  0  0  0  0  0  0  # atno 27272 bound_to 18284
  253.4654    4.8511   40.3030 LP  0  0  0  0  0  0  0  0  0  0  0  0  # atno 27273 bound_to 18284
  255.0484   16.2206   43.0619 LP  0  0  0  0  0  0  0  0  0  0  0  0  # atno 27274 bound_to 11468
  258.4073   11.8191   31.6095 LP  0  0  0  0  0  0  0  0  0  0  0  0  # atno 27275 bound_to 16960
  257.6663   10.2548   31.6728 LP  0  0  0  0  0  0  0  0  0  0  0  0  # atno 27276 bound_to 16960

> <Gold.Score>
     Fitness  S(hb_ext) S(vdw_ext)  S(hb_int)    S(int)      intcor
     34.42       5.96      23.19       0.00      -3.42      -0.76

> <Gold.Goldscore.Fitness>
34.4236

> <Gold.Goldscore.Internal.Vdw>
-3.3490

> <Gold.Goldscore.Internal.Torsion>
-0.8378

> <Gold.Goldscore.External.Vdw>
23.1886

> <Gold.Goldscore.Internal.HBond>
0.0000

> <Gold.Goldscore.External.HBond>
5.9611

> <Gold.Goldscore.Internal.Correction>
-0.7650

> <Gold.Goldscore.Hbonds>
donor molecule, donor type, donor heavy atom, donor atom, acceptor molecule, acceptor atom, score
      P1  H 11704 11756       L1    17  0.37
      P1  H 19356 19407       L1    17  0.09
      L1  H    10    23       P1 19020  0.53

> <Gold.Goldscore.Internal.Vdw.Weighted>
-3.3490

> <Gold.Goldscore.Internal.Torsion.Weighted>
-0.8378

> <Gold.Goldscore.External.Vdw.Weighted>
31.8844

> <Gold.Goldscore.Internal.HBond.Weighted>
0.0000

> <Gold.Goldscore.External.HBond.Weighted>
5.9611

> <Gold.Goldscore.Internal.Correction.Weighted>
-0.7650

> <Gold.Rescore>
     Score     S(PLP)   S(hbond)     S(cho)   S(metal)  DE(clash)   DE(tors)     intcor
     23.07     -16.74       2.79       0.00       0.00       1.18       0.43       ----

> <Gold.PLP.Fitness>
23.0688

> <Gold.PLP.PLP>
-16.7383

> <Gold.PLP.part.hbond>
-4.0000

> <Gold.PLP.part.metal>
0.0000

> <Gold.PLP.part.buried>
8.7133

> <Gold.PLP.part.nonpolar>
-27.1429

> <Gold.PLP.part.repulsive>
3.4699

> <Gold.PLP.ligand.clash>
1.1784

> <Gold.PLP.ligand.torsion>
0.4336

> <Gold.PLP.Chemscore.Hbond>
2.7920

> <Gold.PLP.Chemscore.CHOScore>
0.0000

> <Gold.PLP.Chemscore.Metal>
0.0000

> <Gold.Chemscore.Hbonds>
donor molecule, donor type, donor heavy atom, donor atom, acceptor molecule, acceptor atom, score
      L1  H    10    23       P1 19020  0.55
      P1  H 11704 11756       L1    17  0.99
      P1  H 19356 19407       L1    17  0.78

> <Gold.PLP.Chemscore.Internal.Correction>
   9.000000E+99

