#       Name:                CT1002167954
#       Creating user name   hitesit
#       Creation time:       Sun Apr 16 20:33:14 2023


#       File generated by GOLD software.
#

@<TRIPOS>MOLECULE
CT1002167954|ligand_prepared|mol2|1|dock5
    29    30     1
SMALL
NO_CHARGES


@<TRIPOS>ATOM
      1 C1         250.0673  19.1584  35.1675 C.3            1 RES1               0.0000
      2 C2         249.9035  17.6703  35.5387 C.ar           1 RES1               0.0000
      3 C3         250.9552  19.1953  33.9272 C.2            1 RES1               0.0000
      4 C4         248.6598  19.6991  34.9414 C.2            1 RES1               0.0000
      5 C5         250.7337  20.0086  36.2741 C.3            1 RES1               0.0000
      6 C6         249.3640  17.3017  36.7674 C.ar           1 RES1               0.0000
      7 C7         250.2842  16.6568  34.6633 C.ar           1 RES1               0.0000
      8 N8         250.3616  19.4829  32.7335 N.am           1 RES1               0.0000
      9 O9         252.1509  18.9371  33.9893 O.2            1 RES1               0.0000
     10 N10        248.3226  20.1026  33.6760 N.am           1 RES1               0.0000
     11 O11        247.8344  19.7638  35.8440 O.2            1 RES1               0.0000
     12 C12        251.0801  21.4228  35.8358 C.3            1 RES1               0.0000
     13 C13        249.2078  15.9682  37.1076 C.ar           1 RES1               0.0000
     14 C14        250.1274  15.3238  35.0055 C.ar           1 RES1               0.0000
     15 C15        249.0996  19.9903  32.5554 C.2            1 RES1               0.0000
     16 C16        249.5890  14.9785  36.2268 C.ar           1 RES1               0.0000
     17 O17        248.7060  20.3253  31.4418 O.2            1 RES1               0.0000
     18 H18        250.0558  20.0618  37.1349 H              1 RES1               0.0000
     19 H19        251.6520  19.5055  36.6012 H              1 RES1               0.0000
     20 H20        249.0606  18.0667  37.4744 H              1 RES1               0.0000
     21 H21        250.7111  16.9049  33.6975 H              1 RES1               0.0000
     22 H22        250.9063  19.3041  31.8959 H              1 RES1               0.0000
     23 H23        247.4075  20.5259  33.5586 H              1 RES1               0.0000
     24 H24        251.5449  21.9759  36.6493 H              1 RES1               0.0000
     25 H25        251.7728  21.4079  34.9969 H              1 RES1               0.0000
     26 H26        250.1861  21.9609  35.5275 H              1 RES1               0.0000
     27 H27        248.7849  15.7017  38.0705 H              1 RES1               0.0000
     28 H28        250.4294  14.5482  34.3095 H              1 RES1               0.0000
     29 H29        249.4662  13.9339  36.4934 H              1 RES1               0.0000
@<TRIPOS>BOND
    1    1    2 1     
    2    1    3 1     
    3    1    4 1     
    4    1    5 1     
    5    2    6 ar    
    6    2    7 ar    
    7    3    8 1     
    8    3    9 2     
    9    4   10 1     
   10    4   11 2     
   11    5   12 1     
   12    5   18 1     
   13    5   19 1     
   14    6   13 ar    
   15    6   20 1     
   16    7   14 ar    
   17    7   21 1     
   18    8   15 1     
   19    8   22 1     
   20   10   15 1     
   21   10   23 1     
   22   12   24 1     
   23   12   25 1     
   24   12   26 1     
   25   13   16 ar    
   26   13   27 1     
   27   14   16 ar    
   28   14   28 1     
   29   15   17 2     
   30   16   29 1     
@<TRIPOS>SUBSTRUCTURE
      1 RES1           1
@<TRIPOS>SET
DONOR_HYDROGENS      STATIC     ATOMS    <user>   **** ""
2 22 23
ATOM$RED        STATIC     ATOMS    COLORGROUP SYSTEM
2 22 23
@<TRIPOS>COMMENT
> <Gold.Version>
2022.3.0

> <Gold.Id.Protein>
unknown|4d1n_clean|pdb

> <Gold.Protein.RotatedTorsions>
[ 17004 16968 16967 16965 ] final  121.46 input   59.98 | X-H torsion
[ 18512 18476 18475 18473 ] final  -99.23 input   59.98 | X-H torsion
[ 18572 18537 18538 18539 ] final  116.28 input   87.04 | X-H torsion
[ 18719 18692 18693 18694 ] final  -78.62 input  124.02 | X-H torsion
[ 18790 18749 18750 18751 ] final  -99.80 input   91.60 | X-H torsion
[ 19033 19013 19014 19015 ] final -107.00 input  122.46 | X-H torsion
[ 17200 17180 17181 17182 ] final   68.12 input   47.21 | X-H torsion
[ 17260 17226 17227 17228 ] final  -17.37 input  117.85 | X-H torsion
[ 18826 18813 18814 18815 ] final  -19.19 input  116.01 | X-H torsion
[ 18976 18926 18927 18928 ] final  147.02 input  102.20 | X-H torsion
[ 19112 19073 19074 19075 ] final -131.75 input   89.03 | X-H torsion
[ 18504 18465 18466 18467 ] final  -62.39 input  102.26 | X-H torsion
[ 18300 18279 18280 18281 ] final   88.62 input   28.27 | X-H torsion
[ 18330 18317 18318 18319 ] final  -73.40 input   50.43 | X-H torsion
[ 18419 18375 18376 18377 ] final  -93.79 input   32.92 | X-H torsion
[ 7530 7517 7518 7519 ] final  -44.14 input   89.56 | X-H torsion
[ 7496 7462 7463 7464 ] final  124.55 input  103.52 | X-H torsion
[ 18606 18593 18594 18595 ] final  121.83 input  124.70 | X-H torsion
[ 10120 10100 10099 10096 ] final  -54.12 input   60.00 | X-H torsion
[ 18304 18284 18283 18280 ] final -114.37 input   60.01 | X-H torsion
[ 11501 11468 11469 11470 ] final  125.12 input   45.03 | X-H torsion
[ 18664 18636 18634 18631 ] final   50.09 input   60.01 | X-H torsion
[ 18884 18850 18851 18852 ] final  -24.83 input   84.91 | X-H torsion
[ 17308 17287 17288 17289 ] final  114.78 input   50.16 | X-H torsion
[ 22456 22422 22423 22424 ] final -105.54 input   54.84 | X-H torsion
[ 11440 11420 11419 11416 ] final -155.27 input   60.01 | X-H torsion
[ 11650 11609 11610 11611 ] final -170.50 input   61.57 | X-H torsion
[ 11832 11793 11794 11795 ] final  -79.07 input   91.14 | X-H torsion
[ 16996 16957 16958 16959 ] final  169.19 input   91.87 | X-H torsion
[ 27198 18540 18539 18538 ] final   63.12 input   -0.00 | X-H torsion
[ 27200 18633 18632 18631 ] final   58.89 input    0.00 | X-H torsion
[ 27203 18695 18694 18693 ] final -140.88 input   -0.00 | X-H torsion
[ 27222 17133 17132 17131 ] final   85.61 input    0.00 | X-H torsion
[ 27226 11612 11611 11610 ] final  -35.35 input    0.00 | X-H torsion
[ 27230 17060 17059 17058 ] final   41.69 input   -0.00 | X-H torsion
[ 27232 18752 18751 18750 ] final   -7.23 input    0.00 | X-H torsion
[ 27234 18596 18595 18594 ] final   87.07 input   -0.00 | X-H torsion
[ 27238 18929 18928 18927 ] final  168.43 input   -0.00 | X-H torsion
[ 27240 19016 19015 19014 ] final   48.47 input   -0.00 | X-H torsion
[ 27243 11418 11417 11416 ] final  140.21 input    0.00 | X-H torsion
[ 27245 17183 17182 17181 ] final  -38.38 input   -0.00 | X-H torsion
[ 27247 18378 18377 18376 ] final  -77.98 input   -0.00 | X-H torsion
[ 27250 18217 18216 18215 ] final  -11.41 input    0.00 | X-H torsion
[ 27254 17229 17228 17227 ] final    6.92 input   -0.00 | X-H torsion
[ 27259 18320 18319 18318 ] final   84.21 input    0.00 | X-H torsion
[ 27261 18468 18467 18466 ] final  110.96 input    0.00 | X-H torsion
[ 27264 18282 18281 18280 ] final  -77.81 input   -0.00 | X-H torsion
[ 27267 17020 17019 17018 ] final  168.30 input   -0.00 | X-H torsion
[ 27275 16960 16959 16958 ] final  -74.99 input    0.00 | X-H torsion

> <Gold.Protein.ActiveResidues>
 TRP414  CYS420  VAL421  GLY422  LEU460  SER462  SER482  GLN483  ILE485  ARG486 
 TYR487  ASP500  ASN503  TRP566  TYR567  GLY568  LEU569  PRO570  ALA571  VAL572 
 SER573  ASN574  PHE589  SER590  GLY591  TRP592  TYR593  MET594  GLY595  THR596 
 GLU597  ILE598  GLY599  VAL600  ARG601  ASP602  TYR603  ARG608  ILE653  VAL654 
 TRP683  PRO687  HEM750  H4B760 

> <Gold.Protein.RotatedAtoms>
  241.5407   11.4415   32.0215 H   0  0  0  0  0  0  0  0  0  0  0  0  # atno 7496 bound_to 7462
  240.9816    8.1306   31.6410 H   0  0  0  0  0  0  0  0  0  0  0  0  # atno 7530 bound_to 7517
  248.5424    2.8012   36.1804 H   0  0  0  0  0  0  0  0  0  0  0  0  # atno 10120 bound_to 10100
  254.1513   20.2386   41.6840 H   0  0  0  0  0  0  0  0  0  0  0  0  # atno 11440 bound_to 11420
  254.3959   16.7058   41.6107 H   0  0  0  0  0  0  0  0  0  0  0  0  # atno 11501 bound_to 11468
  258.5475   11.7494   41.4351 H   0  0  0  0  0  0  0  0  0  0  0  0  # atno 11650 bound_to 11609
  261.0185   17.4869   38.3691 H   0  0  0  0  0  0  0  0  0  0  0  0  # atno 11832 bound_to 11793
  261.2810   13.2380   32.2201 H   0  0  0  0  0  0  0  0  0  0  0  0  # atno 16996 bound_to 16957
  256.7813   15.7622   36.5944 H   0  0  0  0  0  0  0  0  0  0  0  0  # atno 17004 bound_to 16968
  254.4423   11.2081   38.5025 H   0  0  0  0  0  0  0  0  0  0  0  0  # atno 17200 bound_to 17180
  252.0738   10.9814   41.1133 H   0  0  0  0  0  0  0  0  0  0  0  0  # atno 17260 bound_to 17226
  252.1641   13.5233   43.0350 H   0  0  0  0  0  0  0  0  0  0  0  0  # atno 17308 bound_to 17287
  250.5697    5.8716   41.1864 H   0  0  0  0  0  0  0  0  0  0  0  0  # atno 18300 bound_to 18279
  252.9989    4.8840   40.6841 H   0  0  0  0  0  0  0  0  0  0  0  0  # atno 18304 bound_to 18284
  251.0428    5.8839   37.6128 H   0  0  0  0  0  0  0  0  0  0  0  0  # atno 18330 bound_to 18317
  250.6572    6.2600   34.6015 H   0  0  0  0  0  0  0  0  0  0  0  0  # atno 18419 bound_to 18375
  251.0305    7.4401   31.4355 H   0  0  0  0  0  0  0  0  0  0  0  0  # atno 18504 bound_to 18465
  255.5997   14.2760   32.9368 H   0  0  0  0  0  0  0  0  0  0  0  0  # atno 18512 bound_to 18476
  249.1628   10.2345   29.6530 H   0  0  0  0  0  0  0  0  0  0  0  0  # atno 18572 bound_to 18537
  249.9838   10.5609   25.1405 H   0  0  0  0  0  0  0  0  0  0  0  0  # atno 18606 bound_to 18593
  247.9161   15.1436   26.5398 H   0  0  0  0  0  0  0  0  0  0  0  0  # atno 18664 bound_to 18636
  249.7933   15.8887   26.6242 H   0  0  0  0  0  0  0  0  0  0  0  0  # atno 18719 bound_to 18692
  252.2073   16.2603   28.6384 H   0  0  0  0  0  0  0  0  0  0  0  0  # atno 18790 bound_to 18749
  253.6037   17.1502   26.2185 H   0  0  0  0  0  0  0  0  0  0  0  0  # atno 18826 bound_to 18813
  252.9797   18.7261   25.1225 H   0  0  0  0  0  0  0  0  0  0  0  0  # atno 18884 bound_to 18850
  250.5338   19.6076   26.6279 H   0  0  0  0  0  0  0  0  0  0  0  0  # atno 18976 bound_to 18926
  252.6212   20.8574   29.3400 H   0  0  0  0  0  0  0  0  0  0  0  0  # atno 19033 bound_to 19013
  256.0079   20.6476   28.3813 H   0  0  0  0  0  0  0  0  0  0  0  0  # atno 19112 bound_to 19073
  251.4118    5.9683   25.4518 H   0  0  0  0  0  0  0  0  0  0  0  0  # atno 22456 bound_to 22422
  255.6931   14.7008   36.0137 LP  0  0  0  0  0  0  0  0  0  0  0  0  # atno 27193 bound_to 16968
  256.2953   15.8694   35.0450 LP  0  0  0  0  0  0  0  0  0  0  0  0  # atno 27194 bound_to 16968
  255.4386   13.2183   34.1626 LP  0  0  0  0  0  0  0  0  0  0  0  0  # atno 27195 bound_to 18476
  254.2228   14.2476   33.8031 LP  0  0  0  0  0  0  0  0  0  0  0  0  # atno 27196 bound_to 18476
  250.6326    9.6173   28.9323 LP  0  0  0  0  0  0  0  0  0  0  0  0  # atno 27197 bound_to 18537
  251.0751   12.2018   28.4710 LP  0  0  0  0  0  0  0  0  0  0  0  0  # atno 27198 bound_to 18540
  250.2769   13.2964   27.3918 LP  0  0  0  0  0  0  0  0  0  0  0  0  # atno 27199 bound_to 18540
  249.8091   17.9112   26.0201 LP  0  0  0  0  0  0  0  0  0  0  0  0  # atno 27200 bound_to 18633
  251.3273   17.5071   26.7492 LP  0  0  0  0  0  0  0  0  0  0  0  0  # atno 27201 bound_to 18633
  250.0819   14.3213   27.3247 LP  0  0  0  0  0  0  0  0  0  0  0  0  # atno 27202 bound_to 18692
  252.7728   18.2023   28.8633 LP  0  0  0  0  0  0  0  0  0  0  0  0  # atno 27203 bound_to 18695
  251.7379   17.7098   30.1619 LP  0  0  0  0  0  0  0  0  0  0  0  0  # atno 27204 bound_to 18695
  252.4347   15.0179   27.4250 LP  0  0  0  0  0  0  0  0  0  0  0  0  # atno 27209 bound_to 18749
  253.2891   19.6769   28.2366 LP  0  0  0  0  0  0  0  0  0  0  0  0  # atno 27210 bound_to 19013
  252.7177    8.1672   37.5020 LP  0  0  0  0  0  0  0  0  0  0  0  0  # atno 27222 bound_to 17133
  251.4218    9.3137   37.4231 LP  0  0  0  0  0  0  0  0  0  0  0  0  # atno 27223 bound_to 17133
  253.0804   10.3814   37.7807 LP  0  0  0  0  0  0  0  0  0  0  0  0  # atno 27224 bound_to 17180
  251.3203   11.5610   39.6427 LP  0  0  0  0  0  0  0  0  0  0  0  0  # atno 27225 bound_to 17226
  257.8392   13.2733   37.8190 LP  0  0  0  0  0  0  0  0  0  0  0  0  # atno 27226 bound_to 11612
  257.4626   14.9001   38.2788 LP  0  0  0  0  0  0  0  0  0  0  0  0  # atno 27227 bound_to 11612
  257.4849   10.1745   36.5827 LP  0  0  0  0  0  0  0  0  0  0  0  0  # atno 27230 bound_to 17060
  256.0719   10.3252   37.5730 LP  0  0  0  0  0  0  0  0  0  0  0  0  # atno 27231 bound_to 17060
  255.0637   18.6144   27.5679 LP  0  0  0  0  0  0  0  0  0  0  0  0  # atno 27232 bound_to 18752
  255.0452   18.7725   25.8432 LP  0  0  0  0  0  0  0  0  0  0  0  0  # atno 27233 bound_to 18752
  252.8820   14.5340   24.4793 LP  0  0  0  0  0  0  0  0  0  0  0  0  # atno 27234 bound_to 18596
  252.6158   14.5179   26.1907 LP  0  0  0  0  0  0  0  0  0  0  0  0  # atno 27235 bound_to 18596
  254.1096   15.6422   25.4874 LP  0  0  0  0  0  0  0  0  0  0  0  0  # atno 27236 bound_to 18813
  252.0506   20.3328   26.1628 LP  0  0  0  0  0  0  0  0  0  0  0  0  # atno 27237 bound_to 18926
  253.9361   22.7130   29.2276 LP  0  0  0  0  0  0  0  0  0  0  0  0  # atno 27238 bound_to 18929
  252.6150   23.2678   28.2547 LP  0  0  0  0  0  0  0  0  0  0  0  0  # atno 27239 bound_to 18929
  256.9442   21.8845   30.0962 LP  0  0  0  0  0  0  0  0  0  0  0  0  # atno 27240 bound_to 19016
  256.4976   22.9903   28.8402 LP  0  0  0  0  0  0  0  0  0  0  0  0  # atno 27241 bound_to 19016
  254.7319   20.8426   27.2009 LP  0  0  0  0  0  0  0  0  0  0  0  0  # atno 27242 bound_to 19073
  252.0917   15.5189   41.6585 LP  0  0  0  0  0  0  0  0  0  0  0  0  # atno 27243 bound_to 11418
  251.6323   15.8326   43.2987 LP  0  0  0  0  0  0  0  0  0  0  0  0  # atno 27244 bound_to 11418
  254.2439   11.3674   42.0224 LP  0  0  0  0  0  0  0  0  0  0  0  0  # atno 27245 bound_to 17183
  253.4954   12.8770   41.6214 LP  0  0  0  0  0  0  0  0  0  0  0  0  # atno 27246 bound_to 17183
  248.9967    7.2168   31.4699 LP  0  0  0  0  0  0  0  0  0  0  0  0  # atno 27247 bound_to 18378
  249.4605    8.5192   32.5133 LP  0  0  0  0  0  0  0  0  0  0  0  0  # atno 27248 bound_to 18378
  252.7322    7.6649   31.0956 LP  0  0  0  0  0  0  0  0  0  0  0  0  # atno 27249 bound_to 18465
  250.2267    9.4763   41.6254 LP  0  0  0  0  0  0  0  0  0  0  0  0  # atno 27250 bound_to 18217
  251.0235    8.8775   40.2089 LP  0  0  0  0  0  0  0  0  0  0  0  0  # atno 27251 bound_to 18217
  250.1857   10.5886   42.6220 LP  0  0  0  0  0  0  0  0  0  0  0  0  # atno 27254 bound_to 17229
  250.4115   11.1173   44.2558 LP  0  0  0  0  0  0  0  0  0  0  0  0  # atno 27255 bound_to 17229
  249.4749    7.1494   40.7190 LP  0  0  0  0  0  0  0  0  0  0  0  0  # atno 27256 bound_to 18279
  249.8014    7.0338   37.1715 LP  0  0  0  0  0  0  0  0  0  0  0  0  # atno 27257 bound_to 18317
  249.7493    5.2465   33.4997 LP  0  0  0  0  0  0  0  0  0  0  0  0  # atno 27258 bound_to 18375
  252.2927    4.0220   34.9615 LP  0  0  0  0  0  0  0  0  0  0  0  0  # atno 27259 bound_to 18320
  252.7660    5.6441   35.3421 LP  0  0  0  0  0  0  0  0  0  0  0  0  # atno 27260 bound_to 18320
  249.9740    7.4010   28.2209 LP  0  0  0  0  0  0  0  0  0  0  0  0  # atno 27261 bound_to 18468
  251.5095    8.0102   27.7002 LP  0  0  0  0  0  0  0  0  0  0  0  0  # atno 27262 bound_to 18468
  242.5043    8.8725   32.0725 LP  0  0  0  0  0  0  0  0  0  0  0  0  # atno 27263 bound_to 7517
  250.5318    3.8970   38.8218 LP  0  0  0  0  0  0  0  0  0  0  0  0  # atno 27264 bound_to 18282
  248.9114    4.5081   38.7922 LP  0  0  0  0  0  0  0  0  0  0  0  0  # atno 27265 bound_to 18282
  240.6856   10.2329   32.9584 LP  0  0  0  0  0  0  0  0  0  0  0  0  # atno 27266 bound_to 7462
  255.6587    7.3292   33.2966 LP  0  0  0  0  0  0  0  0  0  0  0  0  # atno 27267 bound_to 17020
  256.2775    7.5686   31.6967 LP  0  0  0  0  0  0  0  0  0  0  0  0  # atno 27268 bound_to 17020
  250.2898   11.3668   26.6658 LP  0  0  0  0  0  0  0  0  0  0  0  0  # atno 27269 bound_to 18593
  247.0731    2.1064   36.0958 LP  0  0  0  0  0  0  0  0  0  0  0  0  # atno 27270 bound_to 10100
  248.4090    1.2461   35.7191 LP  0  0  0  0  0  0  0  0  0  0  0  0  # atno 27271 bound_to 10100
  253.2625    4.5425   39.1152 LP  0  0  0  0  0  0  0  0  0  0  0  0  # atno 27272 bound_to 18284
  251.7471    4.4917   39.7215 LP  0  0  0  0  0  0  0  0  0  0  0  0  # atno 27273 bound_to 18284
  254.5567   16.1008   43.2468 LP  0  0  0  0  0  0  0  0  0  0  0  0  # atno 27274 bound_to 11468
  257.7794   11.3681   32.3988 LP  0  0  0  0  0  0  0  0  0  0  0  0  # atno 27275 bound_to 16960
  258.2942   10.7058   30.8835 LP  0  0  0  0  0  0  0  0  0  0  0  0  # atno 27276 bound_to 16960

> <Gold.Score>
     Fitness  S(hb_ext) S(vdw_ext)  S(hb_int)    S(int)      intcor
     32.21       6.11      20.02       0.00      -1.42      -0.76

> <Gold.Goldscore.Fitness>
32.2146

> <Gold.Goldscore.Internal.Vdw>
-1.7034

> <Gold.Goldscore.Internal.Torsion>
-0.4855

> <Gold.Goldscore.External.Vdw>
20.0206

> <Gold.Goldscore.Internal.HBond>
0.0000

> <Gold.Goldscore.External.HBond>
6.1102

> <Gold.Goldscore.Internal.Correction>
-0.7650

> <Gold.Goldscore.Hbonds>
donor molecule, donor type, donor heavy atom, donor atom, acceptor molecule, acceptor atom, score
      P1  H 19355 19405       L1     9  0.01
      L1  H     8    22       P1 18695  0.02
      L1  H    10    23       P1 27122  1.00

> <Gold.Goldscore.Internal.Vdw.Weighted>
-1.7034

> <Gold.Goldscore.Internal.Torsion.Weighted>
-0.4855

> <Gold.Goldscore.External.Vdw.Weighted>
27.5284

> <Gold.Goldscore.Internal.HBond.Weighted>
0.0000

> <Gold.Goldscore.External.HBond.Weighted>
6.1102

> <Gold.Goldscore.Internal.Correction.Weighted>
-0.7650

> <Gold.Rescore>
     Score     S(PLP)   S(hbond)     S(cho)   S(metal)  DE(clash)   DE(tors)     intcor
     17.26     -13.37       1.85       0.00       0.00       0.90       0.38       ----

> <Gold.PLP.Fitness>
17.2605

> <Gold.PLP.PLP>
-13.3654

> <Gold.PLP.part.hbond>
-3.2069

> <Gold.PLP.part.metal>
0.0000

> <Gold.PLP.part.buried>
-0.8304

> <Gold.PLP.part.nonpolar>
-12.7582

> <Gold.PLP.part.repulsive>
2.1007

> <Gold.PLP.ligand.clash>
0.9002

> <Gold.PLP.ligand.torsion>
0.3762

> <Gold.PLP.Chemscore.Hbond>
1.8493

> <Gold.PLP.Chemscore.CHOScore>
0.0000

> <Gold.PLP.Chemscore.Metal>
0.0000

> <Gold.Chemscore.Hbonds>
donor molecule, donor type, donor heavy atom, donor atom, acceptor molecule, acceptor atom, score
      L1  H    10    23       P1 27122  0.76
      P1  H 19355 19405       L1     9  1.00

> <Gold.PLP.Chemscore.Internal.Correction>
   9.000000E+99

