#       Name:                CT1002167954
#       Creating user name   hitesit
#       Creation time:       Sun Apr 16 20:33:17 2023


#       File generated by GOLD software.
#

@<TRIPOS>MOLECULE
CT1002167954|ligand_prepared|mol2|1|dock9
    29    30     1
SMALL
NO_CHARGES


@<TRIPOS>ATOM
      1 C1         248.1992  11.2304  35.9493 C.3            1 RES1               0.0000
      2 C2         249.1736  12.4186  35.8173 C.ar           1 RES1               0.0000
      3 C3         248.0574  10.6351  34.5515 C.2            1 RES1               0.0000
      4 C4         248.8190  10.2818  36.9696 C.2            1 RES1               0.0000
      5 C5         246.7942  11.6281  36.4587 C.3            1 RES1               0.0000
      6 C6         248.8413  13.5245  35.0405 C.ar           1 RES1               0.0000
      7 C7         250.4050  12.4245  36.4671 C.ar           1 RES1               0.0000
      8 N8         248.6792   9.4466  34.3049 N.am           1 RES1               0.0000
      9 O9         247.4425  11.2190  33.6677 O.2            1 RES1               0.0000
     10 N10        249.2243   9.0471  36.5349 N.am           1 RES1               0.0000
     11 O11        248.9752  10.5987  38.1423 O.2            1 RES1               0.0000
     12 C12        246.8186  12.5463  37.6705 C.3            1 RES1               0.0000
     13 C13        249.7073  14.5987  34.9202 C.ar           1 RES1               0.0000
     14 C14        251.2696  13.4997  36.3452 C.ar           1 RES1               0.0000
     15 C15        249.2106   8.5980  35.2425 C.2            1 RES1               0.0000
     16 C16        250.9216  14.5873  35.5727 C.ar           1 RES1               0.0000
     17 O17        249.6430   7.4948  34.9215 O.2            1 RES1               0.0000
     18 H18        246.2531  12.1293  35.6467 H              1 RES1               0.0000
     19 H19        246.2413  10.7166  36.7174 H              1 RES1               0.0000
     20 H20        247.8910  13.5504  34.5177 H              1 RES1               0.0000
     21 H21        250.7002  11.5791  37.0793 H              1 RES1               0.0000
     22 H22        248.7563   9.1626  33.3334 H              1 RES1               0.0000
     23 H23        249.5679   8.4030  37.2402 H              1 RES1               0.0000
     24 H24        245.8076  12.7944  37.9868 H              1 RES1               0.0000
     25 H25        247.3275  12.0695  38.5056 H              1 RES1               0.0000
     26 H26        247.3392  13.4738  37.4412 H              1 RES1               0.0000
     27 H27        249.4293  15.4517  34.3099 H              1 RES1               0.0000
     28 H28        252.2246  13.4861  36.8600 H              1 RES1               0.0000
     29 H29        251.5997  15.4291  35.4785 H              1 RES1               0.0000
@<TRIPOS>BOND
    1    1    2 1     
    2    1    3 1     
    3    1    4 1     
    4    1    5 1     
    5    2    6 ar    
    6    2    7 ar    
    7    3    8 1     
    8    3    9 2     
    9    4   10 1     
   10    4   11 2     
   11    5   12 1     
   12    5   18 1     
   13    5   19 1     
   14    6   13 ar    
   15    6   20 1     
   16    7   14 ar    
   17    7   21 1     
   18    8   15 1     
   19    8   22 1     
   20   10   15 1     
   21   10   23 1     
   22   12   24 1     
   23   12   25 1     
   24   12   26 1     
   25   13   16 ar    
   26   13   27 1     
   27   14   16 ar    
   28   14   28 1     
   29   15   17 2     
   30   16   29 1     
@<TRIPOS>SUBSTRUCTURE
      1 RES1           1
@<TRIPOS>SET
DONOR_HYDROGENS      STATIC     ATOMS    <user>   **** ""
2 22 23
ATOM$RED        STATIC     ATOMS    COLORGROUP SYSTEM
2 22 23
@<TRIPOS>COMMENT
> <Gold.Version>
2022.3.0

> <Gold.Id.Protein>
unknown|4d1n_clean|pdb

> <Gold.Protein.RotatedTorsions>
[ 17004 16968 16967 16965 ] final   35.43 input   59.98 | X-H torsion
[ 18512 18476 18475 18473 ] final -174.13 input   59.98 | X-H torsion
[ 18572 18537 18538 18539 ] final   -5.05 input   87.04 | X-H torsion
[ 18719 18692 18693 18694 ] final  141.45 input  124.02 | X-H torsion
[ 18790 18749 18750 18751 ] final -149.83 input   91.60 | X-H torsion
[ 19033 19013 19014 19015 ] final  162.20 input  122.46 | X-H torsion
[ 17200 17180 17181 17182 ] final  116.27 input   47.21 | X-H torsion
[ 17260 17226 17227 17228 ] final -167.37 input  117.85 | X-H torsion
[ 18826 18813 18814 18815 ] final  -17.81 input  116.01 | X-H torsion
[ 18976 18926 18927 18928 ] final  -57.97 input  102.20 | X-H torsion
[ 19112 19073 19074 19075 ] final   70.06 input   89.03 | X-H torsion
[ 18504 18465 18466 18467 ] final   99.48 input  102.26 | X-H torsion
[ 18300 18279 18280 18281 ] final -132.75 input   28.27 | X-H torsion
[ 18330 18317 18318 18319 ] final -179.23 input   50.43 | X-H torsion
[ 18419 18375 18376 18377 ] final  -40.86 input   32.92 | X-H torsion
[ 7530 7517 7518 7519 ] final  105.28 input   89.56 | X-H torsion
[ 7496 7462 7463 7464 ] final  178.46 input  103.52 | X-H torsion
[ 18606 18593 18594 18595 ] final    5.21 input  124.70 | X-H torsion
[ 10120 10100 10099 10096 ] final -115.30 input   60.00 | X-H torsion
[ 18304 18284 18283 18280 ] final  -32.32 input   60.01 | X-H torsion
[ 11501 11468 11469 11470 ] final   30.62 input   45.03 | X-H torsion
[ 18664 18636 18634 18631 ] final  -22.42 input   60.01 | X-H torsion
[ 18884 18850 18851 18852 ] final  -37.06 input   84.91 | X-H torsion
[ 17308 17287 17288 17289 ] final  -95.93 input   50.16 | X-H torsion
[ 22456 22422 22423 22424 ] final   77.34 input   54.84 | X-H torsion
[ 11440 11420 11419 11416 ] final -152.66 input   60.01 | X-H torsion
[ 11650 11609 11610 11611 ] final -149.53 input   61.57 | X-H torsion
[ 11832 11793 11794 11795 ] final -176.27 input   91.14 | X-H torsion
[ 16996 16957 16958 16959 ] final   71.62 input   91.87 | X-H torsion
[ 27198 18540 18539 18538 ] final -104.46 input   -0.00 | X-H torsion
[ 27200 18633 18632 18631 ] final  -78.07 input    0.00 | X-H torsion
[ 27203 18695 18694 18693 ] final  176.44 input   -0.00 | X-H torsion
[ 27222 17133 17132 17131 ] final   79.35 input    0.00 | X-H torsion
[ 27226 11612 11611 11610 ] final  -13.48 input    0.00 | X-H torsion
[ 27230 17060 17059 17058 ] final -154.05 input   -0.00 | X-H torsion
[ 27232 18752 18751 18750 ] final   49.83 input    0.00 | X-H torsion
[ 27234 18596 18595 18594 ] final  -33.19 input   -0.00 | X-H torsion
[ 27238 18929 18928 18927 ] final  -44.66 input   -0.00 | X-H torsion
[ 27240 19016 19015 19014 ] final   68.98 input   -0.00 | X-H torsion
[ 27243 11418 11417 11416 ] final   70.14 input    0.00 | X-H torsion
[ 27245 17183 17182 17181 ] final  123.71 input   -0.00 | X-H torsion
[ 27247 18378 18377 18376 ] final -126.97 input   -0.00 | X-H torsion
[ 27250 18217 18216 18215 ] final  -68.48 input    0.00 | X-H torsion
[ 27254 17229 17228 17227 ] final    3.92 input   -0.00 | X-H torsion
[ 27259 18320 18319 18318 ] final  -47.91 input    0.00 | X-H torsion
[ 27261 18468 18467 18466 ] final -107.83 input    0.00 | X-H torsion
[ 27264 18282 18281 18280 ] final -100.68 input   -0.00 | X-H torsion
[ 27267 17020 17019 17018 ] final  144.06 input   -0.00 | X-H torsion
[ 27275 16960 16959 16958 ] final -116.47 input    0.00 | X-H torsion

> <Gold.Protein.ActiveResidues>
 TRP414  CYS420  VAL421  GLY422  LEU460  SER462  SER482  GLN483  ILE485  ARG486 
 TYR487  ASP500  ASN503  TRP566  TYR567  GLY568  LEU569  PRO570  ALA571  VAL572 
 SER573  ASN574  PHE589  SER590  GLY591  TRP592  TYR593  MET594  GLY595  THR596 
 GLU597  ILE598  GLY599  VAL600  ARG601  ASP602  TYR603  ARG608  ILE653  VAL654 
 TRP683  PRO687  HEM750  H4B760 

> <Gold.Protein.RotatedAtoms>
  240.7491   11.5613   32.1396 H   0  0  0  0  0  0  0  0  0  0  0  0  # atno 7496 bound_to 7462
  242.3123    8.7888   32.4836 H   0  0  0  0  0  0  0  0  0  0  0  0  # atno 7530 bound_to 7517
  247.5951    2.8456   36.2766 H   0  0  0  0  0  0  0  0  0  0  0  0  # atno 10120 bound_to 10100
  254.1796   20.2444   41.7152 H   0  0  0  0  0  0  0  0  0  0  0  0  # atno 11440 bound_to 11420
  255.3683   16.4605   42.4549 H   0  0  0  0  0  0  0  0  0  0  0  0  # atno 11501 bound_to 11468
  258.6104   12.0088   41.6187 H   0  0  0  0  0  0  0  0  0  0  0  0  # atno 11650 bound_to 11609
  261.0456   17.1130   37.0791 H   0  0  0  0  0  0  0  0  0  0  0  0  # atno 11832 bound_to 11793
  259.9615   13.1829   32.1232 H   0  0  0  0  0  0  0  0  0  0  0  0  # atno 16996 bound_to 16957
  255.9507   14.7972   36.4886 H   0  0  0  0  0  0  0  0  0  0  0  0  # atno 17004 bound_to 16968
  254.5869   10.5319   38.2886 H   0  0  0  0  0  0  0  0  0  0  0  0  # atno 17200 bound_to 17180
  251.6994   11.8124   39.6521 H   0  0  0  0  0  0  0  0  0  0  0  0  # atno 17260 bound_to 17226
  250.6115   12.8583   43.2134 H   0  0  0  0  0  0  0  0  0  0  0  0  # atno 17308 bound_to 17287
  249.9598    7.3947   41.0115 H   0  0  0  0  0  0  0  0  0  0  0  0  # atno 18300 bound_to 18279
  251.8554    4.6460   40.3027 H   0  0  0  0  0  0  0  0  0  0  0  0  # atno 18304 bound_to 18284
  249.6902    6.2284   37.8432 H   0  0  0  0  0  0  0  0  0  0  0  0  # atno 18330 bound_to 18317
  250.0676    6.6109   34.2026 H   0  0  0  0  0  0  0  0  0  0  0  0  # atno 18419 bound_to 18375
  252.6849    7.5282   30.8588 H   0  0  0  0  0  0  0  0  0  0  0  0  # atno 18504 bound_to 18465
  255.8938   13.4389   33.6495 H   0  0  0  0  0  0  0  0  0  0  0  0  # atno 18512 bound_to 18476
  250.6026   10.4523   29.1254 H   0  0  0  0  0  0  0  0  0  0  0  0  # atno 18572 bound_to 18537
  249.6894   11.7279   26.0678 H   0  0  0  0  0  0  0  0  0  0  0  0  # atno 18606 bound_to 18593
  248.1149   14.2024   25.9922 H   0  0  0  0  0  0  0  0  0  0  0  0  # atno 18664 bound_to 18636
  249.5079   14.4714   27.3914 H   0  0  0  0  0  0  0  0  0  0  0  0  # atno 18719 bound_to 18692
  252.4450   15.5957   28.9033 H   0  0  0  0  0  0  0  0  0  0  0  0  # atno 18790 bound_to 18749
  253.5835   17.1457   26.2133 H   0  0  0  0  0  0  0  0  0  0  0  0  # atno 18826 bound_to 18813
  253.0735   18.7692   24.9650 H   0  0  0  0  0  0  0  0  0  0  0  0  # atno 18884 bound_to 18850
  251.8053   20.5628   25.9906 H   0  0  0  0  0  0  0  0  0  0  0  0  # atno 18976 bound_to 18926
  252.7648   19.6037   29.3445 H   0  0  0  0  0  0  0  0  0  0  0  0  # atno 19033 bound_to 19013
  254.8383   20.5467   27.0940 H   0  0  0  0  0  0  0  0  0  0  0  0  # atno 19112 bound_to 19073
  250.4790    6.8935   26.6386 H   0  0  0  0  0  0  0  0  0  0  0  0  # atno 22456 bound_to 22422
  255.9373   15.4534   34.9994 LP  0  0  0  0  0  0  0  0  0  0  0  0  # atno 27193 bound_to 16968
  256.8874   16.0883   36.1659 LP  0  0  0  0  0  0  0  0  0  0  0  0  # atno 27194 bound_to 16968
  254.4097   13.7157   34.2559 LP  0  0  0  0  0  0  0  0  0  0  0  0  # atno 27195 bound_to 18476
  254.9553   14.5937   32.9918 LP  0  0  0  0  0  0  0  0  0  0  0  0  # atno 27196 bound_to 18476
  249.2369    9.4061   29.4438 LP  0  0  0  0  0  0  0  0  0  0  0  0  # atno 27197 bound_to 18537
  250.1310   13.2713   27.5068 LP  0  0  0  0  0  0  0  0  0  0  0  0  # atno 27198 bound_to 18540
  251.2210   12.2269   28.3561 LP  0  0  0  0  0  0  0  0  0  0  0  0  # atno 27199 bound_to 18540
  251.3702   17.5235   26.1155 LP  0  0  0  0  0  0  0  0  0  0  0  0  # atno 27200 bound_to 18633
  249.7663   17.8948   26.6538 LP  0  0  0  0  0  0  0  0  0  0  0  0  # atno 27201 bound_to 18633
  250.3668   15.7363   26.5587 LP  0  0  0  0  0  0  0  0  0  0  0  0  # atno 27202 bound_to 18692
  253.0893   17.8703   29.2956 LP  0  0  0  0  0  0  0  0  0  0  0  0  # atno 27203 bound_to 18695
  251.4213   18.0419   29.7296 LP  0  0  0  0  0  0  0  0  0  0  0  0  # atno 27204 bound_to 18695
  252.2055   15.6589   27.1695 LP  0  0  0  0  0  0  0  0  0  0  0  0  # atno 27209 bound_to 18749
  253.1494   20.8968   28.2323 LP  0  0  0  0  0  0  0  0  0  0  0  0  # atno 27210 bound_to 19013
  252.7174    8.1681   37.4076 LP  0  0  0  0  0  0  0  0  0  0  0  0  # atno 27222 bound_to 17133
  251.4222    9.3128   37.5175 LP  0  0  0  0  0  0  0  0  0  0  0  0  # atno 27223 bound_to 17133
  252.9398   11.0384   37.9886 LP  0  0  0  0  0  0  0  0  0  0  0  0  # atno 27224 bound_to 17180
  251.6813   10.7599   41.0514 LP  0  0  0  0  0  0  0  0  0  0  0  0  # atno 27225 bound_to 17226
  257.6444   13.2212   38.0785 LP  0  0  0  0  0  0  0  0  0  0  0  0  # atno 27226 bound_to 11612
  257.6573   14.9522   38.0194 LP  0  0  0  0  0  0  0  0  0  0  0  0  # atno 27227 bound_to 11612
  256.0288   10.5071   37.4270 LP  0  0  0  0  0  0  0  0  0  0  0  0  # atno 27230 bound_to 17060
  257.5280    9.9926   36.7287 LP  0  0  0  0  0  0  0  0  0  0  0  0  # atno 27231 bound_to 17060
  255.7240   18.3581   27.1406 LP  0  0  0  0  0  0  0  0  0  0  0  0  # atno 27232 bound_to 18752
  254.3849   19.0289   26.2706 LP  0  0  0  0  0  0  0  0  0  0  0  0  # atno 27233 bound_to 18752
  253.1158   13.9158   25.8280 LP  0  0  0  0  0  0  0  0  0  0  0  0  # atno 27234 bound_to 18596
  252.3820   15.1362   24.8420 LP  0  0  0  0  0  0  0  0  0  0  0  0  # atno 27235 bound_to 18596
  254.1292   15.6467   25.4924 LP  0  0  0  0  0  0  0  0  0  0  0  0  # atno 27236 bound_to 18813
  250.7943   19.3890   26.7925 LP  0  0  0  0  0  0  0  0  0  0  0  0  # atno 27237 bound_to 18926
  252.9835   23.1628   27.9443 LP  0  0  0  0  0  0  0  0  0  0  0  0  # atno 27238 bound_to 18929
  253.5676   22.8180   29.5380 LP  0  0  0  0  0  0  0  0  0  0  0  0  # atno 27239 bound_to 18929
  257.1613   21.8204   29.8868 LP  0  0  0  0  0  0  0  0  0  0  0  0  # atno 27240 bound_to 19016
  256.2805   23.0545   29.0495 LP  0  0  0  0  0  0  0  0  0  0  0  0  # atno 27241 bound_to 19016
  255.8684   20.9407   28.4517 LP  0  0  0  0  0  0  0  0  0  0  0  0  # atno 27242 bound_to 19073
  251.6346   16.3430   41.9755 LP  0  0  0  0  0  0  0  0  0  0  0  0  # atno 27243 bound_to 11418
  252.0894   15.0085   42.9817 LP  0  0  0  0  0  0  0  0  0  0  0  0  # atno 27244 bound_to 11418
  253.6840   12.8712   41.4288 LP  0  0  0  0  0  0  0  0  0  0  0  0  # atno 27245 bound_to 17183
  254.0553   11.3732   42.2150 LP  0  0  0  0  0  0  0  0  0  0  0  0  # atno 27246 bound_to 17183
  249.1389    7.8336   31.1309 LP  0  0  0  0  0  0  0  0  0  0  0  0  # atno 27247 bound_to 18378
  249.3184    7.9024   32.8523 LP  0  0  0  0  0  0  0  0  0  0  0  0  # atno 27248 bound_to 18378
  251.1276    7.5795   31.6549 LP  0  0  0  0  0  0  0  0  0  0  0  0  # atno 27249 bound_to 18465
  249.7902    9.4066   40.9260 LP  0  0  0  0  0  0  0  0  0  0  0  0  # atno 27250 bound_to 18217
  251.4601    8.9472   40.9082 LP  0  0  0  0  0  0  0  0  0  0  0  0  # atno 27251 bound_to 18217
  250.1437   10.6057   42.6235 LP  0  0  0  0  0  0  0  0  0  0  0  0  # atno 27254 bound_to 17229
  250.4534   11.1003   44.2543 LP  0  0  0  0  0  0  0  0  0  0  0  0  # atno 27255 bound_to 17229
  250.0730    5.6561   40.8906 LP  0  0  0  0  0  0  0  0  0  0  0  0  # atno 27256 bound_to 18279
  251.1165    6.6989   36.9475 LP  0  0  0  0  0  0  0  0  0  0  0  0  # atno 27257 bound_to 18317
  250.3190    4.9075   33.8850 LP  0  0  0  0  0  0  0  0  0  0  0  0  # atno 27258 bound_to 18375
  252.5369    5.2765   35.8956 LP  0  0  0  0  0  0  0  0  0  0  0  0  # atno 27259 bound_to 18320
  252.5218    4.3896   34.4080 LP  0  0  0  0  0  0  0  0  0  0  0  0  # atno 27260 bound_to 18320
  251.0945    8.2280   27.3667 LP  0  0  0  0  0  0  0  0  0  0  0  0  # atno 27261 bound_to 18468
  250.3890    7.1832   28.5543 LP  0  0  0  0  0  0  0  0  0  0  0  0  # atno 27262 bound_to 18468
  241.2062    8.2305   31.2506 LP  0  0  0  0  0  0  0  0  0  0  0  0  # atno 27263 bound_to 7517
  250.4369    3.8227   38.5003 LP  0  0  0  0  0  0  0  0  0  0  0  0  # atno 27264 bound_to 18282
  249.0063    4.5824   39.1137 LP  0  0  0  0  0  0  0  0  0  0  0  0  # atno 27265 bound_to 18282
  241.4475   10.1175   32.8447 LP  0  0  0  0  0  0  0  0  0  0  0  0  # atno 27266 bound_to 7462
  255.7995    7.0028   33.2195 LP  0  0  0  0  0  0  0  0  0  0  0  0  # atno 27267 bound_to 17020
  256.1367    7.8950   31.7738 LP  0  0  0  0  0  0  0  0  0  0  0  0  # atno 27268 bound_to 17020
  250.5731   10.2439   25.7735 LP  0  0  0  0  0  0  0  0  0  0  0  0  # atno 27269 bound_to 18593
  247.4887    1.2893   35.8125 LP  0  0  0  0  0  0  0  0  0  0  0  0  # atno 27270 bound_to 10100
  248.9468    2.0185   35.9056 LP  0  0  0  0  0  0  0  0  0  0  0  0  # atno 27271 bound_to 10100
  253.4696    4.8500   40.2961 LP  0  0  0  0  0  0  0  0  0  0  0  0  # atno 27272 bound_to 18284
  252.6920    4.4238   38.9249 LP  0  0  0  0  0  0  0  0  0  0  0  0  # atno 27273 bound_to 18284
  253.6210   16.3369   42.4345 LP  0  0  0  0  0  0  0  0  0  0  0  0  # atno 27274 bound_to 11468
  257.5619   10.7995   32.3253 LP  0  0  0  0  0  0  0  0  0  0  0  0  # atno 27275 bound_to 16960
  258.5117   11.2744   30.9570 LP  0  0  0  0  0  0  0  0  0  0  0  0  # atno 27276 bound_to 16960

> <Gold.Score>
     Fitness  S(hb_ext) S(vdw_ext)  S(hb_int)    S(int)      intcor
     44.38       2.26      34.11       0.00      -4.79      -0.76

> <Gold.Goldscore.Fitness>
44.3822

> <Gold.Goldscore.Internal.Vdw>
-4.9319

> <Gold.Goldscore.Internal.Torsion>
-0.6211

> <Gold.Goldscore.External.Vdw>
34.1137

> <Gold.Goldscore.Internal.HBond>
0.0000

> <Gold.Goldscore.External.HBond>
2.2639

> <Gold.Goldscore.Internal.Correction>
-0.7650

> <Gold.Goldscore.Hbonds>
donor molecule, donor type, donor heavy atom, donor atom, acceptor molecule, acceptor atom, score
      P1  H 18375 18419       L1    17  0.85
      L1  H     8    22       P1 18378  0.28

> <Gold.Goldscore.Internal.Vdw.Weighted>
-4.9319

> <Gold.Goldscore.Internal.Torsion.Weighted>
-0.6211

> <Gold.Goldscore.External.Vdw.Weighted>
46.9064

> <Gold.Goldscore.Internal.HBond.Weighted>
0.0000

> <Gold.Goldscore.External.HBond.Weighted>
2.2639

> <Gold.Goldscore.Internal.Correction.Weighted>
-0.7650

> <Gold.Rescore>
     Score     S(PLP)   S(hbond)     S(cho)   S(metal)  DE(clash)   DE(tors)     intcor
     29.13     -28.01       0.98       0.00       0.00       0.00       0.90       ----

> <Gold.PLP.Fitness>
29.1254

> <Gold.PLP.PLP>
-28.0085

> <Gold.PLP.part.hbond>
-2.2508

> <Gold.PLP.part.metal>
0.0000

> <Gold.PLP.part.buried>
20.4749

> <Gold.PLP.part.nonpolar>
-48.5336

> <Gold.PLP.part.repulsive>
0.6391

> <Gold.PLP.ligand.clash>
0.0000

> <Gold.PLP.ligand.torsion>
0.9040

> <Gold.PLP.Chemscore.Hbond>
0.9750

> <Gold.PLP.Chemscore.CHOScore>
0.0000

> <Gold.PLP.Chemscore.Metal>
0.0000

> <Gold.Chemscore.Hbonds>
donor molecule, donor type, donor heavy atom, donor atom, acceptor molecule, acceptor atom, score
      L1  H     8    22       P1 18378  0.66
      P1  H 18375 18419       L1    17  0.03

> <Gold.PLP.Chemscore.Internal.Correction>
   9.000000E+99

