#       Name:                CT1002167954
#       Creating user name   hitesit
#       Creation time:       Sun Apr 16 20:33:17 2023


#       File generated by GOLD software.
#

@<TRIPOS>MOLECULE
CT1002167954|ligand_prepared|mol2|1|dock10
    29    30     1
SMALL
NO_CHARGES


@<TRIPOS>ATOM
      1 C1         249.9976  18.0502  37.5061 C.3            1 RES1               0.0000
      2 C2         250.2561  16.9268  36.4814 C.ar           1 RES1               0.0000
      3 C3         248.4827  18.1504  37.6590 C.2            1 RES1               0.0000
      4 C4         250.7258  17.6402  38.7814 C.2            1 RES1               0.0000
      5 C5         250.5397  19.4311  37.0694 C.3            1 RES1               0.0000
      6 C6         249.7128  15.6592  36.6675 C.ar           1 RES1               0.0000
      7 C7         251.0322  17.1433  35.3459 C.ar           1 RES1               0.0000
      8 N8         247.9301  17.6646  38.8072 N.am           1 RES1               0.0000
      9 O9         247.7799  18.6126  36.7687 O.2            1 RES1               0.0000
     10 N10        249.9707  17.3588  39.8897 N.am           1 RES1               0.0000
     11 O11        251.9457  17.5422  38.8317 O.2            1 RES1               0.0000
     12 C12        250.2099  20.5541  38.0400 C.3            1 RES1               0.0000
     13 C13        249.9347  14.6455  35.7502 C.ar           1 RES1               0.0000
     14 C14        251.2532  16.1281  34.4299 C.ar           1 RES1               0.0000
     15 C15        248.6043  17.3227  39.9518 C.2            1 RES1               0.0000
     16 C16        250.7046  14.8793  34.6307 C.ar           1 RES1               0.0000
     17 O17        247.9971  17.0073  40.9711 O.2            1 RES1               0.0000
     18 H18        251.6295  19.3651  36.9628 H              1 RES1               0.0000
     19 H19        250.1211  19.6799  36.0863 H              1 RES1               0.0000
     20 H20        249.1063  15.4558  37.5437 H              1 RES1               0.0000
     21 H21        251.4747  18.1175  35.1679 H              1 RES1               0.0000
     22 H22        246.9222  17.5444  38.8156 H              1 RES1               0.0000
     23 H23        250.4739  17.1578  40.7481 H              1 RES1               0.0000
     24 H24        250.6131  21.5007  37.6861 H              1 RES1               0.0000
     25 H25        249.1332  20.6647  38.1507 H              1 RES1               0.0000
     26 H26        250.6326  20.3517  39.0220 H              1 RES1               0.0000
     27 H27        249.5019  13.6640  35.9135 H              1 RES1               0.0000
     28 H28        251.8602  16.3164  33.5506 H              1 RES1               0.0000
     29 H29        250.8780  14.0852  33.9120 H              1 RES1               0.0000
@<TRIPOS>BOND
    1    1    2 1     
    2    1    3 1     
    3    1    4 1     
    4    1    5 1     
    5    2    6 ar    
    6    2    7 ar    
    7    3    8 1     
    8    3    9 2     
    9    4   10 1     
   10    4   11 2     
   11    5   12 1     
   12    5   18 1     
   13    5   19 1     
   14    6   13 ar    
   15    6   20 1     
   16    7   14 ar    
   17    7   21 1     
   18    8   15 1     
   19    8   22 1     
   20   10   15 1     
   21   10   23 1     
   22   12   24 1     
   23   12   25 1     
   24   12   26 1     
   25   13   16 ar    
   26   13   27 1     
   27   14   16 ar    
   28   14   28 1     
   29   15   17 2     
   30   16   29 1     
@<TRIPOS>SUBSTRUCTURE
      1 RES1           1
@<TRIPOS>SET
DONOR_HYDROGENS      STATIC     ATOMS    <user>   **** ""
2 22 23
ATOM$RED        STATIC     ATOMS    COLORGROUP SYSTEM
2 22 23
@<TRIPOS>COMMENT
> <Gold.Version>
2022.3.0

> <Gold.Id.Protein>
unknown|4d1n_clean|pdb

> <Gold.Protein.RotatedTorsions>
[ 17004 16968 16967 16965 ] final -157.42 input   59.98 | X-H torsion
[ 18512 18476 18475 18473 ] final   15.73 input   59.98 | X-H torsion
[ 18572 18537 18538 18539 ] final   28.45 input   87.04 | X-H torsion
[ 18719 18692 18693 18694 ] final -151.31 input  124.02 | X-H torsion
[ 18790 18749 18750 18751 ] final   66.66 input   91.60 | X-H torsion
[ 19033 19013 19014 19015 ] final -110.77 input  122.46 | X-H torsion
[ 17200 17180 17181 17182 ] final -132.58 input   47.21 | X-H torsion
[ 17260 17226 17227 17228 ] final -132.24 input  117.85 | X-H torsion
[ 18826 18813 18814 18815 ] final  -98.84 input  116.01 | X-H torsion
[ 18976 18926 18927 18928 ] final -168.82 input  102.20 | X-H torsion
[ 19112 19073 19074 19075 ] final  -37.34 input   89.03 | X-H torsion
[ 18504 18465 18466 18467 ] final   10.51 input  102.26 | X-H torsion
[ 18300 18279 18280 18281 ] final   30.95 input   28.27 | X-H torsion
[ 18330 18317 18318 18319 ] final   77.24 input   50.43 | X-H torsion
[ 18419 18375 18376 18377 ] final  -51.35 input   32.92 | X-H torsion
[ 7530 7517 7518 7519 ] final  -59.62 input   89.56 | X-H torsion
[ 7496 7462 7463 7464 ] final  135.95 input  103.52 | X-H torsion
[ 18606 18593 18594 18595 ] final   46.67 input  124.70 | X-H torsion
[ 10120 10100 10099 10096 ] final -160.21 input   60.00 | X-H torsion
[ 18304 18284 18283 18280 ] final  179.64 input   60.01 | X-H torsion
[ 11501 11468 11469 11470 ] final -135.77 input   45.03 | X-H torsion
[ 18664 18636 18634 18631 ] final  -33.35 input   60.01 | X-H torsion
[ 18884 18850 18851 18852 ] final  126.52 input   84.91 | X-H torsion
[ 17308 17287 17288 17289 ] final -145.49 input   50.16 | X-H torsion
[ 22456 22422 22423 22424 ] final  126.89 input   54.84 | X-H torsion
[ 11440 11420 11419 11416 ] final -165.97 input   60.01 | X-H torsion
[ 11650 11609 11610 11611 ] final  -27.01 input   61.57 | X-H torsion
[ 11832 11793 11794 11795 ] final   56.07 input   91.14 | X-H torsion
[ 16996 16957 16958 16959 ] final -129.72 input   91.87 | X-H torsion
[ 27198 18540 18539 18538 ] final  141.02 input   -0.00 | X-H torsion
[ 27200 18633 18632 18631 ] final -139.23 input    0.00 | X-H torsion
[ 27203 18695 18694 18693 ] final   45.37 input   -0.00 | X-H torsion
[ 27222 17133 17132 17131 ] final  114.68 input    0.00 | X-H torsion
[ 27226 11612 11611 11610 ] final  113.26 input    0.00 | X-H torsion
[ 27230 17060 17059 17058 ] final  159.40 input   -0.00 | X-H torsion
[ 27232 18752 18751 18750 ] final  -89.22 input    0.00 | X-H torsion
[ 27234 18596 18595 18594 ] final -168.12 input   -0.00 | X-H torsion
[ 27238 18929 18928 18927 ] final  -90.95 input   -0.00 | X-H torsion
[ 27240 19016 19015 19014 ] final -137.84 input   -0.00 | X-H torsion
[ 27243 11418 11417 11416 ] final  -15.40 input    0.00 | X-H torsion
[ 27245 17183 17182 17181 ] final -127.60 input   -0.00 | X-H torsion
[ 27247 18378 18377 18376 ] final -105.37 input   -0.00 | X-H torsion
[ 27250 18217 18216 18215 ] final   28.21 input    0.00 | X-H torsion
[ 27254 17229 17228 17227 ] final -122.16 input   -0.00 | X-H torsion
[ 27259 18320 18319 18318 ] final   29.57 input    0.00 | X-H torsion
[ 27261 18468 18467 18466 ] final -128.07 input    0.00 | X-H torsion
[ 27264 18282 18281 18280 ] final  102.52 input   -0.00 | X-H torsion
[ 27267 17020 17019 17018 ] final  -45.46 input   -0.00 | X-H torsion
[ 27275 16960 16959 16958 ] final  138.53 input    0.00 | X-H torsion

> <Gold.Protein.ActiveResidues>
 TRP414  CYS420  VAL421  GLY422  LEU460  SER462  SER482  GLN483  ILE485  ARG486 
 TYR487  ASP500  ASN503  TRP566  TYR567  GLY568  LEU569  PRO570  ALA571  VAL572 
 SER573  ASN574  PHE589  SER590  GLY591  TRP592  TYR593  MET594  GLY595  THR596 
 GLU597  ILE598  GLY599  VAL600  ARG601  ASP602  TYR603  ARG608  ILE653  VAL654 
 TRP683  PRO687  HEM750  H4B760 

> <Gold.Protein.RotatedAtoms>
  241.3825   11.5211   32.0129 H   0  0  0  0  0  0  0  0  0  0  0  0  # atno 7496 bound_to 7462
  241.0656    8.1621   31.4203 H   0  0  0  0  0  0  0  0  0  0  0  0  # atno 7530 bound_to 7517
  247.1256    2.3188   36.1584 H   0  0  0  0  0  0  0  0  0  0  0  0  # atno 10120 bound_to 10100
  254.0411   20.1951   41.5557 H   0  0  0  0  0  0  0  0  0  0  0  0  # atno 11440 bound_to 11420
  253.6181   16.2312   42.6186 H   0  0  0  0  0  0  0  0  0  0  0  0  # atno 11501 bound_to 11468
  257.7558   13.2028   41.0878 H   0  0  0  0  0  0  0  0  0  0  0  0  # atno 11650 bound_to 11609
  260.1413   18.4196   37.3199 H   0  0  0  0  0  0  0  0  0  0  0  0  # atno 11832 bound_to 11793
  261.5198   12.7444   31.5131 H   0  0  0  0  0  0  0  0  0  0  0  0  # atno 16996 bound_to 16957
  256.6810   16.1549   35.4462 H   0  0  0  0  0  0  0  0  0  0  0  0  # atno 17004 bound_to 16968
  253.2796   10.1376   37.7617 H   0  0  0  0  0  0  0  0  0  0  0  0  # atno 17200 bound_to 17180
  252.1602   11.8894   39.9191 H   0  0  0  0  0  0  0  0  0  0  0  0  # atno 17260 bound_to 17226
  251.2446   12.5400   43.0066 H   0  0  0  0  0  0  0  0  0  0  0  0  # atno 17308 bound_to 17287
  249.8553    5.6685   40.7722 H   0  0  0  0  0  0  0  0  0  0  0  0  # atno 18300 bound_to 18279
  253.5973    4.7667   39.8673 H   0  0  0  0  0  0  0  0  0  0  0  0  # atno 18304 bound_to 18284
  250.1409    7.1674   36.9186 H   0  0  0  0  0  0  0  0  0  0  0  0  # atno 18330 bound_to 18317
  250.1921    6.5947   34.3062 H   0  0  0  0  0  0  0  0  0  0  0  0  # atno 18419 bound_to 18375
  251.5567    7.0713   30.5983 H   0  0  0  0  0  0  0  0  0  0  0  0  # atno 18504 bound_to 18465
  254.2402   14.2960   33.7380 H   0  0  0  0  0  0  0  0  0  0  0  0  # atno 18512 bound_to 18476
  250.2410   10.7434   29.3412 H   0  0  0  0  0  0  0  0  0  0  0  0  # atno 18572 bound_to 18537
  249.5286   11.4788   25.5097 H   0  0  0  0  0  0  0  0  0  0  0  0  # atno 18606 bound_to 18593
  248.0416   14.1070   25.8606 H   0  0  0  0  0  0  0  0  0  0  0  0  # atno 18664 bound_to 18636
  249.1000   15.2999   27.1126 H   0  0  0  0  0  0  0  0  0  0  0  0  # atno 18719 bound_to 18692
  252.4008   15.1549   27.2690 H   0  0  0  0  0  0  0  0  0  0  0  0  # atno 18790 bound_to 18749
  254.6474   16.7036   26.1138 H   0  0  0  0  0  0  0  0  0  0  0  0  # atno 18826 bound_to 18813
  251.6921   17.8513   24.4087 H   0  0  0  0  0  0  0  0  0  0  0  0  # atno 18884 bound_to 18850
  250.4476   20.1492   26.2612 H   0  0  0  0  0  0  0  0  0  0  0  0  # atno 18976 bound_to 18926
  252.6085   20.8135   29.3762 H   0  0  0  0  0  0  0  0  0  0  0  0  # atno 19033 bound_to 19013
  255.1290   21.5548   28.0655 H   0  0  0  0  0  0  0  0  0  0  0  0  # atno 19112 bound_to 19073
  250.4818    6.1566   26.7262 H   0  0  0  0  0  0  0  0  0  0  0  0  # atno 22456 bound_to 22422
  256.4481   15.2716   36.7929 LP  0  0  0  0  0  0  0  0  0  0  0  0  # atno 27193 bound_to 16968
  255.6413   14.9032   35.4218 LP  0  0  0  0  0  0  0  0  0  0  0  0  # atno 27194 bound_to 16968
  255.6640   14.2263   32.9538 LP  0  0  0  0  0  0  0  0  0  0  0  0  # atno 27195 bound_to 18476
  255.3672   13.2194   34.2047 LP  0  0  0  0  0  0  0  0  0  0  0  0  # atno 27196 bound_to 18476
  249.5875    9.1240   29.2345 LP  0  0  0  0  0  0  0  0  0  0  0  0  # atno 27197 bound_to 18537
  251.4651   12.6903   27.5795 LP  0  0  0  0  0  0  0  0  0  0  0  0  # atno 27198 bound_to 18540
  249.8869   12.8079   28.2834 LP  0  0  0  0  0  0  0  0  0  0  0  0  # atno 27199 bound_to 18540
  251.1771   17.5344   26.9752 LP  0  0  0  0  0  0  0  0  0  0  0  0  # atno 27200 bound_to 18633
  249.9594   17.8839   25.7940 LP  0  0  0  0  0  0  0  0  0  0  0  0  # atno 27201 bound_to 18633
  250.7740   14.9092   26.8370 LP  0  0  0  0  0  0  0  0  0  0  0  0  # atno 27202 bound_to 18692
  251.8138   17.6684   30.1999 LP  0  0  0  0  0  0  0  0  0  0  0  0  # atno 27203 bound_to 18695
  252.6969   18.2437   28.8254 LP  0  0  0  0  0  0  0  0  0  0  0  0  # atno 27204 bound_to 18695
  252.2481   16.0841   28.7457 LP  0  0  0  0  0  0  0  0  0  0  0  0  # atno 27209 bound_to 18749
  253.3015   19.7196   28.2014 LP  0  0  0  0  0  0  0  0  0  0  0  0  # atno 27210 bound_to 19013
  252.6204    8.2506   37.9174 LP  0  0  0  0  0  0  0  0  0  0  0  0  # atno 27222 bound_to 17133
  251.5192    9.2303   37.0077 LP  0  0  0  0  0  0  0  0  0  0  0  0  # atno 27223 bound_to 17133
  254.2099   11.4214   38.5005 LP  0  0  0  0  0  0  0  0  0  0  0  0  # atno 27224 bound_to 17180
  251.2371   10.6857   40.7939 LP  0  0  0  0  0  0  0  0  0  0  0  0  # atno 27225 bound_to 17226
  257.2368   14.6264   38.5848 LP  0  0  0  0  0  0  0  0  0  0  0  0  # atno 27226 bound_to 11612
  258.0650   13.5470   37.5130 LP  0  0  0  0  0  0  0  0  0  0  0  0  # atno 27227 bound_to 11612
  256.2228   10.8877   36.8924 LP  0  0  0  0  0  0  0  0  0  0  0  0  # atno 27230 bound_to 17060
  257.3340    9.6119   37.2633 LP  0  0  0  0  0  0  0  0  0  0  0  0  # atno 27231 bound_to 17060
  254.2716   19.0275   26.8657 LP  0  0  0  0  0  0  0  0  0  0  0  0  # atno 27232 bound_to 18752
  255.8373   18.3595   26.5455 LP  0  0  0  0  0  0  0  0  0  0  0  0  # atno 27233 bound_to 18752
  252.2291   15.2023   25.4845 LP  0  0  0  0  0  0  0  0  0  0  0  0  # atno 27234 bound_to 18596
  253.2687   13.8496   25.1854 LP  0  0  0  0  0  0  0  0  0  0  0  0  # atno 27235 bound_to 18596
  253.1008   16.0739   25.5886 LP  0  0  0  0  0  0  0  0  0  0  0  0  # atno 27236 bound_to 18813
  252.1357   19.7977   26.5251 LP  0  0  0  0  0  0  0  0  0  0  0  0  # atno 27237 bound_to 18926
  253.6245   22.9335   27.9506 LP  0  0  0  0  0  0  0  0  0  0  0  0  # atno 27238 bound_to 18929
  252.9266   23.0473   29.5317 LP  0  0  0  0  0  0  0  0  0  0  0  0  # atno 27239 bound_to 18929
  256.5715   22.9558   28.7907 LP  0  0  0  0  0  0  0  0  0  0  0  0  # atno 27240 bound_to 19016
  256.8703   21.9190   30.1456 LP  0  0  0  0  0  0  0  0  0  0  0  0  # atno 27241 bound_to 19016
  255.5858   19.9611   27.5078 LP  0  0  0  0  0  0  0  0  0  0  0  0  # atno 27242 bound_to 19073
  251.5185   16.1351   43.1274 LP  0  0  0  0  0  0  0  0  0  0  0  0  # atno 27243 bound_to 11418
  252.2055   15.2164   41.8298 LP  0  0  0  0  0  0  0  0  0  0  0  0  # atno 27244 bound_to 11418
  253.3205   12.0119   42.4824 LP  0  0  0  0  0  0  0  0  0  0  0  0  # atno 27245 bound_to 17183
  254.4188   12.2326   41.1614 LP  0  0  0  0  0  0  0  0  0  0  0  0  # atno 27246 bound_to 17183
  249.0608    7.5293   31.2124 LP  0  0  0  0  0  0  0  0  0  0  0  0  # atno 27247 bound_to 18378
  249.3965    8.2067   32.7708 LP  0  0  0  0  0  0  0  0  0  0  0  0  # atno 27248 bound_to 18378
  252.2219    8.0226   31.9076 LP  0  0  0  0  0  0  0  0  0  0  0  0  # atno 27249 bound_to 18465
  250.7880    9.3567   41.7485 LP  0  0  0  0  0  0  0  0  0  0  0  0  # atno 27250 bound_to 18217
  250.4622    8.9971   40.0858 LP  0  0  0  0  0  0  0  0  0  0  0  0  # atno 27251 bound_to 18217
  249.7448   11.2674   43.9600 LP  0  0  0  0  0  0  0  0  0  0  0  0  # atno 27254 bound_to 17229
  250.8524   10.4385   42.9178 LP  0  0  0  0  0  0  0  0  0  0  0  0  # atno 27255 bound_to 17229
  250.1754    7.3486   41.1252 LP  0  0  0  0  0  0  0  0  0  0  0  0  # atno 27256 bound_to 18279
  250.6782    5.7860   37.8465 LP  0  0  0  0  0  0  0  0  0  0  0  0  # atno 27257 bound_to 18317
  250.1986    4.9232   33.7850 LP  0  0  0  0  0  0  0  0  0  0  0  0  # atno 27258 bound_to 18375
  252.2262    4.2533   35.7192 LP  0  0  0  0  0  0  0  0  0  0  0  0  # atno 27259 bound_to 18320
  252.8325    5.4128   34.5844 LP  0  0  0  0  0  0  0  0  0  0  0  0  # atno 27260 bound_to 18320
  250.8007    8.2524   27.2916 LP  0  0  0  0  0  0  0  0  0  0  0  0  # atno 27261 bound_to 18468
  250.6829    7.1588   28.6295 LP  0  0  0  0  0  0  0  0  0  0  0  0  # atno 27262 bound_to 18468
  242.4224    8.8417   32.2878 LP  0  0  0  0  0  0  0  0  0  0  0  0  # atno 27263 bound_to 7517
  248.9109    4.5066   38.7874 LP  0  0  0  0  0  0  0  0  0  0  0  0  # atno 27264 bound_to 18282
  250.5322    3.8985   38.8266 LP  0  0  0  0  0  0  0  0  0  0  0  0  # atno 27265 bound_to 18282
  240.8378   10.1563   32.9667 LP  0  0  0  0  0  0  0  0  0  0  0  0  # atno 27266 bound_to 7462
  256.0718    8.0044   31.8404 LP  0  0  0  0  0  0  0  0  0  0  0  0  # atno 27267 bound_to 17020
  255.8644    6.8934   33.1529 LP  0  0  0  0  0  0  0  0  0  0  0  0  # atno 27268 bound_to 17020
  250.7278   10.4836   26.3105 LP  0  0  0  0  0  0  0  0  0  0  0  0  # atno 27269 bound_to 18593
  248.1928    1.1725   35.7157 LP  0  0  0  0  0  0  0  0  0  0  0  0  # atno 27270 bound_to 10100
  248.7153    2.6655   36.1214 LP  0  0  0  0  0  0  0  0  0  0  0  0  # atno 27271 bound_to 10100
  252.2497    4.3931   39.0355 LP  0  0  0  0  0  0  0  0  0  0  0  0  # atno 27272 bound_to 18284
  252.1570    4.7591   40.6242 LP  0  0  0  0  0  0  0  0  0  0  0  0  # atno 27273 bound_to 18284
  255.3051   16.5575   42.2770 LP  0  0  0  0  0  0  0  0  0  0  0  0  # atno 27274 bound_to 11468
  258.0161   10.3558   31.1067 LP  0  0  0  0  0  0  0  0  0  0  0  0  # atno 27275 bound_to 16960
  258.0575   11.7181   32.1756 LP  0  0  0  0  0  0  0  0  0  0  0  0  # atno 27276 bound_to 16960

> <Gold.Score>
     Fitness  S(hb_ext) S(vdw_ext)  S(hb_int)    S(int)      intcor
     33.61       6.92      19.45       0.00      -0.05      -0.76

> <Gold.Goldscore.Fitness>
33.6137

> <Gold.Goldscore.Internal.Vdw>
-0.4313

> <Gold.Goldscore.Internal.Torsion>
-0.3886

> <Gold.Goldscore.External.Vdw>
19.4538

> <Gold.Goldscore.Internal.HBond>
0.0000

> <Gold.Goldscore.External.HBond>
6.9196

> <Gold.Goldscore.Internal.Correction>
-0.7650

> <Gold.Goldscore.Hbonds>
donor molecule, donor type, donor heavy atom, donor atom, acceptor molecule, acceptor atom, score
      P1  H 11475 11508       L1    11  0.30
      P1  H 17343 17367       L1    17  1.00
      L1  H     8    22       P1 26912  0.70
      L1  H    10    23       P1 11418  0.05

> <Gold.Goldscore.Internal.Vdw.Weighted>
-0.4313

> <Gold.Goldscore.Internal.Torsion.Weighted>
-0.3886

> <Gold.Goldscore.External.Vdw.Weighted>
26.7490

> <Gold.Goldscore.Internal.HBond.Weighted>
0.0000

> <Gold.Goldscore.External.HBond.Weighted>
6.9196

> <Gold.Goldscore.Internal.Correction.Weighted>
-0.7650

> <Gold.Rescore>
     Score     S(PLP)   S(hbond)     S(cho)   S(metal)  DE(clash)   DE(tors)     intcor
     31.42     -22.56       3.00       0.00       0.00       0.00       0.07       ----

> <Gold.PLP.Fitness>
31.4182

> <Gold.PLP.PLP>
-22.5594

> <Gold.PLP.part.hbond>
-3.6207

> <Gold.PLP.part.metal>
0.0000

> <Gold.PLP.part.buried>
-5.8865

> <Gold.PLP.part.nonpolar>
-14.7851

> <Gold.PLP.part.repulsive>
0.4756

> <Gold.PLP.ligand.clash>
0.0000

> <Gold.PLP.ligand.torsion>
0.0706

> <Gold.PLP.Chemscore.Hbond>
3.0000

> <Gold.PLP.Chemscore.CHOScore>
0.0000

> <Gold.PLP.Chemscore.Metal>
0.0000

> <Gold.Chemscore.Hbonds>
donor molecule, donor type, donor heavy atom, donor atom, acceptor molecule, acceptor atom, score
      L1  H     8    22       P1 26912  1.00
      P1  H 11475 11508       L1    11  0.80
      P1  H 17343 17367       L1    17  0.96

> <Gold.PLP.Chemscore.Internal.Correction>
   9.000000E+99

