@<TRIPOS>MOLECULE
A:AQZ1354
    80    85     1     0     1
SMALL
NO_CHARGES
****
Generated from the CSD

@<TRIPOS>ATOM
     1 C1      -3.9910  -1.7880  26.9670   C.3       1 AQZ1354   0.0000
     2 O2      -3.8760  -0.5170  26.3300   O.3       1 AQZ1354   0.0000
     3 C3      -3.9240  -0.4240  24.9350   C.ar      1 AQZ1354   0.0000
     4 C4      -3.8950  -1.4880  24.0170   C.ar      1 AQZ1354   0.0000
     5 C5      -3.9490  -1.2820  22.6480   C.ar      1 AQZ1354   0.0000
     6 N6      -3.9180  -2.3630  21.8790   N.ar      1 AQZ1354   0.0000
     7 C7      -3.9760  -2.1700  20.5700   C.ar      1 AQZ1354   0.0000
     8 N8      -4.0660  -0.9810  19.9650   N.ar      1 AQZ1354   0.0000
     9 C9      -4.0760   0.1020  20.7500   C.ar      1 AQZ1354   0.0000
    10 N10     -4.1350   1.3720  20.1410   N.pl3     1 AQZ1354   0.0000
    11 C11     -4.4030   1.6230  18.7890   C.ar      1 AQZ1354   0.0000
    12 C12     -3.4230   2.2170  17.9790   C.ar      1 AQZ1354   0.0000
    13 C13     -3.7160   2.5190  16.6400   C.ar      1 AQZ1354   0.0000
    14 N14     -2.7210   3.1140  15.8370   N.am      1 AQZ1354   0.0000
    15 C15     -1.3610   2.8650  15.9100   C.2       1 AQZ1354   0.0000
    16 O16     -0.8250   2.0720  16.7100   O.2       1 AQZ1354   0.0000
    17 C17     -0.4980   3.5800  14.8970   C.ar      1 AQZ1354   0.0000
    18 C18     -0.7710   4.8250  14.2880   C.ar      1 AQZ1354   0.0000
    19 C19      0.1480   5.2990  13.3450   C.ar      1 AQZ1354   0.0000
    20 N20      1.2830   4.6040  12.9770   N.ar      1 AQZ1354   0.0000
    21 C21      1.5260   3.4010  13.5310   C.ar      1 AQZ1354   0.0000
    22 C22      0.6350   2.8700  14.4870   C.ar      1 AQZ1354   0.0000
    23 N23      2.6750   2.6730  13.1370   N.pl3     1 AQZ1354   0.0000
    24 C24      2.9320   1.4260  13.8580   C.3       1 AQZ1354   0.0000
    25 C25      3.7180   0.6310  12.8450   C.3       1 AQZ1354   0.0000
    26 O26      5.0310   1.2170  12.8090   O.3       1 AQZ1354   0.0000
    27 C27      4.9340   2.4080  12.0260   C.3       1 AQZ1354   0.0000
    28 C28      3.8810   3.3910  12.6360   C.3       1 AQZ1354   0.0000
    29 C29     -4.9690   2.1930  16.1300   C.ar      1 AQZ1354   0.0000
    30 C30     -5.9360   1.6210  16.9270   C.ar      1 AQZ1354   0.0000
    31 C31     -5.6920   1.3110  18.2530   C.ar      1 AQZ1354   0.0000
    32 C32     -6.8440   0.6870  19.0230   C.3       1 AQZ1354   0.0000
    33 C33     -4.0350   0.0250  22.1370   C.ar      1 AQZ1354   0.0000
    34 C34     -4.0460   1.1320  23.0200   C.ar      1 AQZ1354   0.0000
    35 C35     -3.9960   0.8840  24.4260   C.ar      1 AQZ1354   0.0000
    36 O36     -4.0130   1.8410  25.3990   O.3       1 AQZ1354   0.0000
    37 C37     -3.8520   3.1850  24.9290   C.3       1 AQZ1354   0.0000
    38 C38     -3.8090   4.1810  26.1220   C.3       1 AQZ1354   0.0000
    39 N39     -2.9750   3.7180  27.2460   N.3       1 AQZ1354   0.0000
    40 C40     -1.5130   3.7320  27.0630   C.3       1 AQZ1354   0.0000
    41 C41     -1.0010   3.4880  28.4930   C.3       1 AQZ1354   0.0000
    42 C42     -2.2410   3.4330  29.3810   C.3       1 AQZ1354   0.0000
    43 C43     -3.1890   4.3090  28.5760   C.3       1 AQZ1354   0.0000
    44 H1      -4.8252   4.3281  26.4848   H         1 AQZ1354   0.0000
    45 H2      -3.4102   5.1293  25.7649   H         1 AQZ1354   0.0000
    46 H3      -4.6887   3.4398  24.2802   H         1 AQZ1354   0.0000
    47 H4      -2.9217   3.2587  24.3676   H         1 AQZ1354   0.0000
    48 H5      -5.1889   2.3936  15.0825   H         1 AQZ1354   0.0000
    49 H6      -2.4392   2.4427  18.3877   H         1 AQZ1354   0.0000
    50 H7       4.6323   2.1455  11.0131   H         1 AQZ1354   0.0000
    51 H8       5.9062   2.8979  11.9997   H         1 AQZ1354   0.0000
    52 H9      -1.1726   4.6933  26.6809   H         1 AQZ1354   0.0000
    53 H10     -1.1924   2.9392  26.3887   H         1 AQZ1354   0.0000
    54 H11      3.2476   0.6975  11.8651   H         1 AQZ1354   0.0000
    55 H12      3.7784  -0.4131  13.1486   H         1 AQZ1354   0.0000
    56 H13     -4.0916   2.1499  22.6357   H         1 AQZ1354   0.0000
    57 H14     -3.9481  -3.0532  19.9335   H         1 AQZ1354   0.0000
    58 H15     -3.9682   2.1774  20.7358   H         1 AQZ1354   0.0000
    59 H16     -4.2212   4.2057  28.9075   H         1 AQZ1354   0.0000
    60 H17     -2.9010   5.3587  28.6075   H         1 AQZ1354   0.0000
    61 H18      2.0027   0.9226  14.1206   H         1 AQZ1354   0.0000
    62 H19      3.5158   1.6040  14.7599   H         1 AQZ1354   0.0000
    63 H20      0.8332   1.8881  14.9141   H         1 AQZ1354   0.0000
    64 H21     -6.9162   1.4077  16.5031   H         1 AQZ1354   0.0000
    65 H22     -7.1183   1.3350  19.8542   H         1 AQZ1354   0.0000
    66 H23     -7.6995   0.5647  18.3604   H         1 AQZ1354   0.0000
    67 H24     -6.5397  -0.2859  19.4062   H         1 AQZ1354   0.0000
    68 H25     -0.0415   6.2644  12.8780   H         1 AQZ1354   0.0000
    69 H26     -2.0483   3.8491  30.3687   H         1 AQZ1354   0.0000
    70 H27     -2.6193   2.4169  29.4827   H         1 AQZ1354   0.0000
    71 H28     -0.3481   4.3018  28.8050   H         1 AQZ1354   0.0000
    72 H29     -0.4569   2.5461  28.5444   H         1 AQZ1354   0.0000
    73 H30     -1.6634   5.3948  14.5428   H         1 AQZ1354   0.0000
    74 H31     -3.1817  -2.4358  26.6333   H         1 AQZ1354   0.0000
    75 H32     -3.9315  -1.6596  28.0468   H         1 AQZ1354   0.0000
    76 H33     -4.9476  -2.2390  26.7072   H         1 AQZ1354   0.0000
    77 H34     -3.0301   3.7861  15.1421   H         1 AQZ1354   0.0000
    78 H35     -3.8279  -2.5074  24.3941   H         1 AQZ1354   0.0000
    79 H36      4.3399   3.9288  13.4643   H         1 AQZ1354   0.0000
    80 H37      3.5749   4.0999  11.8681   H         1 AQZ1354   0.0000
@<TRIPOS>BOND
     1     1     2    1
     2     2     3    1
     3     3     4   ar
     4     4     5   ar
     5     5     6   ar
     6     6     7   ar
     7     7     8   ar
     8     8     9   ar
     9     9    10    1
    10    10    11    1
    11    11    12   ar
    12    12    13   ar
    13    13    14    1
    14    14    15   am
    15    15    16    2
    16    15    17    1
    17    17    18   ar
    18    18    19   ar
    19    19    20   ar
    20    20    21   ar
    21    17    22   ar
    22    21    22   ar
    23    21    23    1
    24    23    24    1
    25    24    25    1
    26    25    26    1
    27    26    27    1
    28    23    28    1
    29    27    28    1
    30    13    29   ar
    31    29    30   ar
    32    11    31   ar
    33    30    31   ar
    34    31    32    1
    35     5    33   ar
    36     9    33   ar
    37    33    34   ar
    38     3    35   ar
    39    34    35   ar
    40    35    36    1
    41    36    37    1
    42    37    38    1
    43    38    39    1
    44    39    40    1
    45    40    41    1
    46    41    42    1
    47    39    43    1
    48    42    43    1
    49    38    44    1
    50    38    45    1
    51    37    46    1
    52    37    47    1
    53    29    48    1
    54    12    49    1
    55    27    50    1
    56    27    51    1
    57    40    52    1
    58    40    53    1
    59    25    54    1
    60    25    55    1
    61    34    56    1
    62     7    57    1
    63    10    58    1
    64    43    59    1
    65    43    60    1
    66    24    61    1
    67    24    62    1
    68    22    63    1
    69    30    64    1
    70    32    65    1
    71    32    66    1
    72    32    67    1
    73    19    68    1
    74    42    69    1
    75    42    70    1
    76    41    71    1
    77    41    72    1
    78    18    73    1
    79     1    74    1
    80     1    75    1
    81     1    76    1
    82    14    77    1
    83     4    78    1
    84    28    79    1
    85    28    80    1
@<TRIPOS>SUBSTRUCTURE
     1 AQZ1354     1 GROUP             0 A     AQZ     0  
@<TRIPOS>SET
CCDC_LIGAND STATIC ATOMS
80 1 2 3 4 5 6 7 8 9 \
10 11 12 13 14 15 16 17 18 19 \
20 21 22 23 24 25 26 27 28 29 \
30 31 32 33 34 35 36 37 38 39 \
40 41 42 43 44 45 46 47 48 49 \
50 51 52 53 54 55 56 57 58 59 \
60 61 62 63 64 65 66 67 68 69 \
70 71 72 73 74 75 76 77 78 79 \
80 
