#       Name:                CT1002167954
#       Creating user name   hitesit
#       Creation time:       Sun Apr 16 20:17:47 2023


#       File generated by GOLD software.
#

@<TRIPOS>MOLECULE
CT1002167954|ligand_prepared|mol2|1|dock8
    29    30     1
SMALL
NO_CHARGES


@<TRIPOS>ATOM
      1 C1         117.4456 244.9191 323.4634 C.3            1 RES1               0.0000
      2 C2         116.1426 245.4069 324.1288 C.ar           1 RES1               0.0000
      3 C3         117.0261 243.9712 322.3437 C.2            1 RES1               0.0000
      4 C4         118.1720 246.1696 322.9803 C.2            1 RES1               0.0000
      5 C5         118.3904 244.1584 324.4227 C.3            1 RES1               0.0000
      6 C6         115.2731 244.5026 324.7313 C.ar           1 RES1               0.0000
      7 C7         115.7984 246.7558 324.1505 C.ar           1 RES1               0.0000
      8 N8         117.1334 244.4217 321.0610 N.am           1 RES1               0.0000
      9 O9         116.5708 242.8598 322.5844 O.2            1 RES1               0.0000
     10 N10        118.3253 246.3416 321.6295 N.am           1 RES1               0.0000
     11 O11        118.5983 247.0157 323.7566 O.2            1 RES1               0.0000
     12 C12        119.4551 243.3379 323.7120 C.3            1 RES1               0.0000
     13 C13        114.1033 244.9316 325.3362 C.ar           1 RES1               0.0000
     14 C14        114.6279 247.1827 324.7558 C.ar           1 RES1               0.0000
     15 C15        117.8120 245.5397 320.6469 C.2            1 RES1               0.0000
     16 C16        113.7801 246.2717 325.3493 C.ar           1 RES1               0.0000
     17 O17        117.9458 245.7898 319.4524 O.2            1 RES1               0.0000
     18 H18        118.8844 244.8840 325.0806 H              1 RES1               0.0000
     19 H19        117.7906 243.4893 325.0520 H              1 RES1               0.0000
     20 H20        115.5094 243.4438 324.7288 H              1 RES1               0.0000
     21 H21        116.4497 247.4902 323.6889 H              1 RES1               0.0000
     22 H22        116.6659 243.8771 320.3432 H              1 RES1               0.0000
     23 H23        118.8729 247.1415 321.3286 H              1 RES1               0.0000
     24 H24        120.0905 242.8248 324.4309 H              1 RES1               0.0000
     25 H25        118.9990 242.5891 323.0678 H              1 RES1               0.0000
     26 H26        120.0863 243.9755 323.0963 H              1 RES1               0.0000
     27 H27        113.4388 244.2105 325.8007 H              1 RES1               0.0000
     28 H28        114.3773 248.2383 324.7632 H              1 RES1               0.0000
     29 H29        112.8639 246.6076 325.8236 H              1 RES1               0.0000
@<TRIPOS>BOND
    1    1    2 1     
    2    1    3 1     
    3    1    4 1     
    4    1    5 1     
    5    2    6 ar    
    6    2    7 ar    
    7    3    8 1     
    8    3    9 2     
    9    4   10 1     
   10    4   11 2     
   11    5   12 1     
   12    5   18 1     
   13    5   19 1     
   14    6   13 ar    
   15    6   20 1     
   16    7   14 ar    
   17    7   21 1     
   18    8   15 1     
   19    8   22 1     
   20   10   15 1     
   21   10   23 1     
   22   12   24 1     
   23   12   25 1     
   24   12   26 1     
   25   13   16 ar    
   26   13   27 1     
   27   14   16 ar    
   28   14   28 1     
   29   15   17 2     
   30   16   29 1     
@<TRIPOS>SUBSTRUCTURE
      1 RES1           1
@<TRIPOS>SET
DONOR_HYDROGENS      STATIC     ATOMS    <user>   **** ""
2 22 23
ATOM$RED        STATIC     ATOMS    COLORGROUP SYSTEM
2 22 23
@<TRIPOS>COMMENT
> <Gold.Version>
2022.3.0

> <Gold.Id.Protein>
unknown|5adf_clean|pdb

> <Gold.Protein.RotatedTorsions>
[ 8428 8423 8424 8425 ] final   16.02 input   46.96 | X-H torsion
[ 8452 8445 8446 8447 ] final   -6.79 input  111.34 | X-H torsion
[ 8996 8992 8993 8994 ] final  176.81 input   44.62 | X-H torsion
[ 9030 9016 9017 9018 ] final   64.91 input   32.56 | X-H torsion
[ 9077 9062 9063 9064 ] final    9.28 input   99.28 | X-H torsion
[ 9085 9073 9072 9070 ] final   64.21 input   59.99 | X-H torsion
[ 9117 9100 9101 9102 ] final  122.26 input   89.92 | X-H torsion
[ 9192 9177 9178 9179 ] final   46.25 input  116.56 | X-H torsion
[ 3601 3592 3593 3594 ] final  -18.08 input   84.58 | X-H torsion
[ 8978 8972 8973 8974 ] final  -31.24 input   29.23 | X-H torsion
[ 9137 9130 9131 9132 ] final  102.25 input  126.15 | X-H torsion
[ 4895 4885 4884 4881 ] final   62.82 input   60.00 | X-H torsion
[ 8982 8977 8976 8973 ] final  -10.32 input   60.00 | X-H torsion
[ 3579 3563 3564 3565 ] final   26.08 input  100.61 | X-H torsion
[ 3552 3542 3543 3544 ] final -176.49 input   82.26 | X-H torsion
[ 8482 8476 8477 8478 ] final  171.41 input   53.28 | X-H torsion
[ 8948 8937 8938 8939 ] final   49.72 input   48.32 | X-H torsion
[ 12881 12863 12862 12860 ] final   78.31 input   60.03 | X-H torsion
[ 5550 5545 5544 5541 ] final  103.59 input   60.00 | X-H torsion
[ 5574 5565 5566 5567 ] final -133.64 input   49.17 | X-H torsion
[ 8328 8319 8318 8316 ] final  134.54 input   60.00 | X-H torsion
[ 5546 5540 5541 5542 ] final   20.87 input  103.84 | X-H torsion
[ 8513 8500 8501 8502 ] final   59.08 input   63.30 | X-H torsion
[ 8486 8481 8480 8477 ] final -105.92 input   60.02 | X-H torsion
[ 8545 8528 8529 8530 ] final  -39.88 input   88.08 | X-H torsion
[ 12873 12852 12853 12854 ] final   58.63 input  106.44 | X-H torsion
[ 12908 12891 12892 12893 ] final  132.09 input   37.87 | X-H torsion
[ 9225 9206 9207 9208 ] final  -51.30 input   89.32 | X-H torsion
[ 11050 11043 11044 11045 ] final -132.83 input   52.80 | X-H torsion
[ 5606 5598 5599 5600 ] final   99.58 input  119.27 | X-H torsion
[ 8581 8562 8563 8564 ] final   43.18 input   68.50 | X-H torsion
[ 13460 8400 8399 8398 ] final  102.66 input   -0.00 | X-H torsion
[ 13464 8940 8939 8938 ] final -165.94 input   -0.00 | X-H torsion
[ 13467 8995 8994 8993 ] final  180.00 input    0.00 | X-H torsion
[ 13470 9019 9018 9017 ] final -171.56 input    0.00 | X-H torsion
[ 13473 9065 9064 9063 ] final   68.91 input   -0.00 | X-H torsion
[ 13478 9103 9102 9101 ] final  140.62 input   -0.00 | X-H torsion
[ 13491 8975 8974 8973 ] final   32.34 input    0.00 | X-H torsion
[ 13493 8345 8344 8343 ] final   71.72 input    0.00 | X-H torsion
[ 13501 8448 8447 8446 ] final  -40.78 input    0.00 | X-H torsion
[ 13503 3502 3501 3500 ] final   25.31 input    0.00 | X-H torsion
[ 13506 8426 8425 8424 ] final  -56.25 input    0.00 | X-H torsion
[ 13514 5543 5542 5541 ] final  126.56 input   -0.00 | X-H torsion
[ 13525 9180 9179 9178 ] final -122.34 input    0.00 | X-H torsion
[ 13531 5517 5516 5515 ] final  135.00 input    0.00 | X-H torsion
[ 13535 8503 8502 8501 ] final   63.28 input   -0.00 | X-H torsion
[ 13538 5568 5567 5566 ] final  -85.78 input   -0.00 | X-H torsion
[ 13540 8479 8478 8477 ] final   46.41 input   -0.00 | X-H torsion
[ 13545 12894 12893 12892 ] final   77.34 input    0.00 | X-H torsion
[ 13547 12822 12821 12820 ] final  122.34 input   -0.00 | X-H torsion

> <Gold.Protein.ActiveResidues>
 TRP311  MET341  HIS342  TRP414  ALA417  ARG419  CYS420  VAL421  GLY422  LEU460 
 SER462  ASN481  SER482  GLN483  LEU484  ARG486  ALA502  ASN503  TRP566  TYR567 
 GLY568  LEU569  PRO570  ALA571  VAL572  SER573  ASN574  MET575  LEU576  PHE589 
 SER590  GLY591  TRP592  TYR593  MET594  GLY595  GLU597  ILE598  ARG601  ASP602 
 ARG608  ILE653  VAL654  TRP683  PHE709  GLU710  TYR711  GLN712  ASP714  HEM750 
 H4B760 

> <Gold.Protein.RotatedAtoms>
  119.5605  251.3570  328.7899 H   0  0  0  0  0  0  0  0  0  0  0  0  # atno 3552 bound_to 3542
  122.4917  248.1951  328.3550 H   0  0  0  0  0  0  0  0  0  0  0  0  # atno 3579 bound_to 3563
  124.7152  248.6491  327.9225 H   0  0  0  0  0  0  0  0  0  0  0  0  # atno 3601 bound_to 3592
  126.1028  245.4534  318.0680 H   0  0  0  0  0  0  0  0  0  0  0  0  # atno 4895 bound_to 4885
  106.9930  243.6838  317.7568 H   0  0  0  0  0  0  0  0  0  0  0  0  # atno 5546 bound_to 5540
  107.8441  242.9894  321.4341 H   0  0  0  0  0  0  0  0  0  0  0  0  # atno 5550 bound_to 5545
  109.1000  244.4396  319.0165 H   0  0  0  0  0  0  0  0  0  0  0  0  # atno 5574 bound_to 5565
  112.2954  242.7786  316.2369 H   0  0  0  0  0  0  0  0  0  0  0  0  # atno 5606 bound_to 5598
  112.9442  238.2569  321.8094 H   0  0  0  0  0  0  0  0  0  0  0  0  # atno 8328 bound_to 8319
  115.0094  242.1731  318.8521 H   0  0  0  0  0  0  0  0  0  0  0  0  # atno 8428 bound_to 8423
  114.8876  245.4297  317.7419 H   0  0  0  0  0  0  0  0  0  0  0  0  # atno 8452 bound_to 8445
  112.4042  246.3321  317.7227 H   0  0  0  0  0  0  0  0  0  0  0  0  # atno 8482 bound_to 8476
  110.5132  244.8978  316.3016 H   0  0  0  0  0  0  0  0  0  0  0  0  # atno 8486 bound_to 8481
  110.4188  248.6577  318.9709 H   0  0  0  0  0  0  0  0  0  0  0  0  # atno 8513 bound_to 8500
  109.5195  251.4756  318.5876 H   0  0  0  0  0  0  0  0  0  0  0  0  # atno 8545 bound_to 8528
  111.0422  255.1613  320.3945 H   0  0  0  0  0  0  0  0  0  0  0  0  # atno 8581 bound_to 8562
  115.4517  248.3839  316.4357 H   0  0  0  0  0  0  0  0  0  0  0  0  # atno 8948 bound_to 8937
  119.5289  247.4287  316.9690 H   0  0  0  0  0  0  0  0  0  0  0  0  # atno 8978 bound_to 8972
  120.5579  245.0819  315.1018 H   0  0  0  0  0  0  0  0  0  0  0  0  # atno 8982 bound_to 8977
  120.7739  245.3484  318.4425 H   0  0  0  0  0  0  0  0  0  0  0  0  # atno 8996 bound_to 8992
  123.5139  242.8632  320.9307 H   0  0  0  0  0  0  0  0  0  0  0  0  # atno 9030 bound_to 9016
  123.0706  239.4627  322.5465 H   0  0  0  0  0  0  0  0  0  0  0  0  # atno 9077 bound_to 9062
  114.9421  238.9924  322.2706 H   0  0  0  0  0  0  0  0  0  0  0  0  # atno 9085 bound_to 9073
  121.5694  240.6505  326.0840 H   0  0  0  0  0  0  0  0  0  0  0  0  # atno 9117 bound_to 9100
  123.1646  237.2894  328.9291 H   0  0  0  0  0  0  0  0  0  0  0  0  # atno 9137 bound_to 9130
  118.6738  237.1745  329.2077 H   0  0  0  0  0  0  0  0  0  0  0  0  # atno 9192 bound_to 9177
  116.3748  236.7996  328.9380 H   0  0  0  0  0  0  0  0  0  0  0  0  # atno 9225 bound_to 9206
  126.5558  237.0223  324.8859 H   0  0  0  0  0  0  0  0  0  0  0  0  # atno 11050 bound_to 11043
  109.6309  256.8820  324.7480 H   0  0  0  0  0  0  0  0  0  0  0  0  # atno 12873 bound_to 12852
  112.1644  251.4527  328.3644 H   0  0  0  0  0  0  0  0  0  0  0  0  # atno 12881 bound_to 12863
  107.5747  254.9921  322.1745 H   0  0  0  0  0  0  0  0  0  0  0  0  # atno 12908 bound_to 12891
  118.4830  242.9058  317.9118 LP  0  0  0  0  0  0  0  0  0  0  0  0  # atno 13460 bound_to 8400
  118.2584  243.4490  319.5411 LP  0  0  0  0  0  0  0  0  0  0  0  0  # atno 13461 bound_to 8400
  116.6724  241.9814  318.3548 LP  0  0  0  0  0  0  0  0  0  0  0  0  # atno 13462 bound_to 8423
  115.1347  244.8001  319.3541 LP  0  0  0  0  0  0  0  0  0  0  0  0  # atno 13463 bound_to 8445
  117.1399  245.7634  317.9318 LP  0  0  0  0  0  0  0  0  0  0  0  0  # atno 13464 bound_to 8940
  115.9642  246.7822  317.1704 LP  0  0  0  0  0  0  0  0  0  0  0  0  # atno 13465 bound_to 8940
  120.4691  243.6265  318.3828 LP  0  0  0  0  0  0  0  0  0  0  0  0  # atno 13466 bound_to 8992
  122.5970  240.8951  318.4187 LP  0  0  0  0  0  0  0  0  0  0  0  0  # atno 13467 bound_to 8995
  122.2715  242.2278  317.3614 LP  0  0  0  0  0  0  0  0  0  0  0  0  # atno 13468 bound_to 8995
  122.2513  242.6112  319.7519 LP  0  0  0  0  0  0  0  0  0  0  0  0  # atno 13469 bound_to 9016
  122.1262  241.5848  323.9004 LP  0  0  0  0  0  0  0  0  0  0  0  0  # atno 13470 bound_to 9019
  122.4363  242.5982  322.5305 LP  0  0  0  0  0  0  0  0  0  0  0  0  # atno 13471 bound_to 9019
  121.4982  239.6419  321.8020 LP  0  0  0  0  0  0  0  0  0  0  0  0  # atno 13472 bound_to 9062
  124.2170  239.2663  324.3671 LP  0  0  0  0  0  0  0  0  0  0  0  0  # atno 13473 bound_to 9065
  123.8156  237.9203  325.3806 LP  0  0  0  0  0  0  0  0  0  0  0  0  # atno 13474 bound_to 9065
  114.6734  237.6626  323.1693 LP  0  0  0  0  0  0  0  0  0  0  0  0  # atno 13475 bound_to 9073
  115.1002  237.5182  321.5997 LP  0  0  0  0  0  0  0  0  0  0  0  0  # atno 13476 bound_to 9073
  121.9231  239.0582  325.4522 LP  0  0  0  0  0  0  0  0  0  0  0  0  # atno 13477 bound_to 9100
  119.9785  237.3026  327.4664 LP  0  0  0  0  0  0  0  0  0  0  0  0  # atno 13478 bound_to 9103
  119.9310  238.9647  327.9515 LP  0  0  0  0  0  0  0  0  0  0  0  0  # atno 13479 bound_to 9103
  118.5059  238.3668  330.4692 LP  0  0  0  0  0  0  0  0  0  0  0  0  # atno 13480 bound_to 9177
  123.9225  247.0979  327.8088 LP  0  0  0  0  0  0  0  0  0  0  0  0  # atno 13489 bound_to 3592
  118.3657  246.7046  315.8860 LP  0  0  0  0  0  0  0  0  0  0  0  0  # atno 13490 bound_to 8972
  121.4248  246.8502  316.7055 LP  0  0  0  0  0  0  0  0  0  0  0  0  # atno 13491 bound_to 8975
  122.6111  245.6124  316.9520 LP  0  0  0  0  0  0  0  0  0  0  0  0  # atno 13492 bound_to 8975
  121.2816  236.8558  318.6145 LP  0  0  0  0  0  0  0  0  0  0  0  0  # atno 13493 bound_to 8345
  120.0448  237.3710  319.7122 LP  0  0  0  0  0  0  0  0  0  0  0  0  # atno 13494 bound_to 8345
  121.9564  237.7174  327.7393 LP  0  0  0  0  0  0  0  0  0  0  0  0  # atno 13495 bound_to 9130
  124.5452  245.6773  318.4836 LP  0  0  0  0  0  0  0  0  0  0  0  0  # atno 13496 bound_to 4885
  125.6831  246.7450  318.9651 LP  0  0  0  0  0  0  0  0  0  0  0  0  # atno 13497 bound_to 4885
  119.5262  244.2453  314.1622 LP  0  0  0  0  0  0  0  0  0  0  0  0  # atno 13498 bound_to 8977
  120.6179  243.4561  315.0853 LP  0  0  0  0  0  0  0  0  0  0  0  0  # atno 13499 bound_to 8977
  122.1430  249.0680  329.8308 LP  0  0  0  0  0  0  0  0  0  0  0  0  # atno 13500 bound_to 3563
  114.5609  248.3184  318.0116 LP  0  0  0  0  0  0  0  0  0  0  0  0  # atno 13501 bound_to 8448
  113.7639  247.9685  316.5141 LP  0  0  0  0  0  0  0  0  0  0  0  0  # atno 13502 bound_to 8448
  118.4897  249.3457  330.6832 LP  0  0  0  0  0  0  0  0  0  0  0  0  # atno 13503 bound_to 3502
  120.1073  248.9205  330.2330 LP  0  0  0  0  0  0  0  0  0  0  0  0  # atno 13504 bound_to 3502
  120.9581  251.5366  329.8221 LP  0  0  0  0  0  0  0  0  0  0  0  0  # atno 13505 bound_to 3542
  113.3047  244.2803  316.2503 LP  0  0  0  0  0  0  0  0  0  0  0  0  # atno 13506 bound_to 8426
  112.5616  244.0145  317.7921 LP  0  0  0  0  0  0  0  0  0  0  0  0  # atno 13507 bound_to 8426
  111.4429  247.3707  318.7443 LP  0  0  0  0  0  0  0  0  0  0  0  0  # atno 13510 bound_to 8476
  115.8242  248.8053  314.7817 LP  0  0  0  0  0  0  0  0  0  0  0  0  # atno 13511 bound_to 8937
  110.6183  245.2622  319.9887 LP  0  0  0  0  0  0  0  0  0  0  0  0  # atno 13514 bound_to 5543
  109.8302  246.4647  319.0228 LP  0  0  0  0  0  0  0  0  0  0  0  0  # atno 13515 bound_to 5543
  110.8656  250.5697  328.7912 LP  0  0  0  0  0  0  0  0  0  0  0  0  # atno 13516 bound_to 12863
  111.2932  251.8765  329.6721 LP  0  0  0  0  0  0  0  0  0  0  0  0  # atno 13517 bound_to 12863
  107.0953  242.8245  319.9989 LP  0  0  0  0  0  0  0  0  0  0  0  0  # atno 13518 bound_to 5545
  106.2184  242.9678  321.3690 LP  0  0  0  0  0  0  0  0  0  0  0  0  # atno 13519 bound_to 5545
  108.4733  242.8740  318.5512 LP  0  0  0  0  0  0  0  0  0  0  0  0  # atno 13520 bound_to 5565
  111.5830  237.3664  321.7591 LP  0  0  0  0  0  0  0  0  0  0  0  0  # atno 13523 bound_to 8319
  111.8186  238.5647  320.6751 LP  0  0  0  0  0  0  0  0  0  0  0  0  # atno 13524 bound_to 8319
  114.3524  236.8249  329.1751 LP  0  0  0  0  0  0  0  0  0  0  0  0  # atno 13525 bound_to 9180
  114.4070  238.2061  328.1314 LP  0  0  0  0  0  0  0  0  0  0  0  0  # atno 13526 bound_to 9180
  105.7396  244.8440  318.1171 LP  0  0  0  0  0  0  0  0  0  0  0  0  # atno 13529 bound_to 5540
  109.9915  248.7460  317.2835 LP  0  0  0  0  0  0  0  0  0  0  0  0  # atno 13530 bound_to 8500
  107.2070  246.8265  317.3839 LP  0  0  0  0  0  0  0  0  0  0  0  0  # atno 13531 bound_to 5517
  107.7800  246.0519  315.9446 LP  0  0  0  0  0  0  0  0  0  0  0  0  # atno 13532 bound_to 5517
  109.1767  245.5648  315.6553 LP  0  0  0  0  0  0  0  0  0  0  0  0  # atno 13533 bound_to 8481
  109.6944  246.0336  317.1313 LP  0  0  0  0  0  0  0  0  0  0  0  0  # atno 13534 bound_to 8481
  107.5816  251.4172  320.5752 LP  0  0  0  0  0  0  0  0  0  0  0  0  # atno 13535 bound_to 8503
  107.8944  252.7186  319.4758 LP  0  0  0  0  0  0  0  0  0  0  0  0  # atno 13536 bound_to 8503
  110.7222  250.6502  319.5437 LP  0  0  0  0  0  0  0  0  0  0  0  0  # atno 13537 bound_to 8528
  109.1307  241.0483  316.6366 LP  0  0  0  0  0  0  0  0  0  0  0  0  # atno 13538 bound_to 5568
  108.5699  242.5251  315.9262 LP  0  0  0  0  0  0  0  0  0  0  0  0  # atno 13539 bound_to 5568
  109.1681  248.7479  315.2611 LP  0  0  0  0  0  0  0  0  0  0  0  0  # atno 13540 bound_to 8479
  109.3016  250.2710  316.0749 LP  0  0  0  0  0  0  0  0  0  0  0  0  # atno 13541 bound_to 8479
  104.7139  253.2487  323.3679 LP  0  0  0  0  0  0  0  0  0  0  0  0  # atno 13545 bound_to 12894
  104.4544  252.7656  321.7249 LP  0  0  0  0  0  0  0  0  0  0  0  0  # atno 13546 bound_to 12894
  110.5887  254.5361  322.2692 LP  0  0  0  0  0  0  0  0  0  0  0  0  # atno 13547 bound_to 12822
  110.4127  256.0216  321.3962 LP  0  0  0  0  0  0  0  0  0  0  0  0  # atno 13548 bound_to 12822
  110.6398  255.6542  324.0229 LP  0  0  0  0  0  0  0  0  0  0  0  0  # atno 13549 bound_to 12852
  106.5739  254.7058  323.5787 LP  0  0  0  0  0  0  0  0  0  0  0  0  # atno 13550 bound_to 12891

> <Gold.Score>
     Fitness  S(hb_ext) S(vdw_ext)  S(hb_int)    S(int)      intcor
     30.96       0.60      26.01       0.00      -5.40      -0.76

> <Gold.Goldscore.Fitness>
30.9570

> <Gold.Goldscore.Internal.Vdw>
-5.3607

> <Gold.Goldscore.Internal.Torsion>
-0.8046

> <Gold.Goldscore.External.Vdw>
26.0055

> <Gold.Goldscore.Internal.HBond>
0.0000

> <Gold.Goldscore.External.HBond>
0.5998

> <Gold.Goldscore.Internal.Correction>
-0.7650

> <Gold.Goldscore.Hbonds>
donor molecule, donor type, donor heavy atom, donor atom, acceptor molecule, acceptor atom, score
      L1  H     8    22       P1  8423  0.10

> <Gold.Goldscore.Internal.Vdw.Weighted>
-5.3607

> <Gold.Goldscore.Internal.Torsion.Weighted>
-0.8046

> <Gold.Goldscore.External.Vdw.Weighted>
35.7575

> <Gold.Goldscore.Internal.HBond.Weighted>
0.0000

> <Gold.Goldscore.External.HBond.Weighted>
0.5998

> <Gold.Goldscore.Internal.Correction.Weighted>
-0.7650

> <Gold.Rescore>
     Score     S(PLP)   S(hbond)     S(cho)   S(metal)  DE(clash)   DE(tors)     intcor
     52.34     -47.90       0.00       0.00       1.00       1.45       0.06       ----

> <Gold.PLP.Fitness>
52.3395

> <Gold.PLP.PLP>
-47.9041

> <Gold.PLP.part.hbond>
-1.8250

> <Gold.PLP.part.metal>
-1.0000

> <Gold.PLP.part.buried>
8.5975

> <Gold.PLP.part.nonpolar>
-62.0729

> <Gold.PLP.part.repulsive>
7.4260

> <Gold.PLP.ligand.clash>
1.4468

> <Gold.PLP.ligand.torsion>
0.0589

> <Gold.PLP.Chemscore.Hbond>
0.0000

> <Gold.PLP.Chemscore.CHOScore>
0.0000

> <Gold.PLP.Chemscore.Metal>
1.0000

> <Gold.Chemscore.Hbonds>
donor molecule, donor type, donor heavy atom, donor atom, acceptor molecule, acceptor atom, score
      P1  M 13326 13326       L1    11  0.99

> <Gold.PLP.Chemscore.Internal.Correction>
   9.000000E+99

