#       Name:                CT1002167954
#       Creating user name   hitesit
#       Creation time:       Sun Apr 16 20:17:42 2023


#       File generated by GOLD software.
#

@<TRIPOS>MOLECULE
CT1002167954|ligand_prepared|mol2|1|dock3
    29    30     1
SMALL
NO_CHARGES


@<TRIPOS>ATOM
      1 C1         112.7805 241.5970 326.0405 C.3            1 RES1               0.0000
      2 C2         112.5102 242.9373 325.3269 C.ar           1 RES1               0.0000
      3 C3         111.4192 241.0588 326.4712 C.2            1 RES1               0.0000
      4 C4         113.5071 240.7152 325.0310 C.2            1 RES1               0.0000
      5 C5         113.6766 241.7262 327.2942 C.3            1 RES1               0.0000
      6 C6         113.5318 243.8664 325.1534 C.ar           1 RES1               0.0000
      7 C7         111.2475 243.2573 324.8353 C.ar           1 RES1               0.0000
      8 N8         110.9062 240.0060 325.7724 N.am           1 RES1               0.0000
      9 O9         110.7877 241.5755 327.3847 O.2            1 RES1               0.0000
     10 N10        112.8661 239.5901 324.5827 N.am           1 RES1               0.0000
     11 O11        114.6221 240.9933 324.6072 O.2            1 RES1               0.0000
     12 C12        113.7619 240.4528 328.1209 C.3            1 RES1               0.0000
     13 C13        113.3001 245.0703 324.5091 C.ar           1 RES1               0.0000
     14 C14        111.0179 244.4620 324.1914 C.ar           1 RES1               0.0000
     15 C15        111.5862 239.2119 324.8843 C.2            1 RES1               0.0000
     16 C16        112.0434 245.3688 324.0273 C.ar           1 RES1               0.0000
     17 O17        111.0596 238.2150 324.3985 O.2            1 RES1               0.0000
     18 H18        114.6879 242.0101 326.9777 H              1 RES1               0.0000
     19 H19        113.2847 242.5322 327.9268 H              1 RES1               0.0000
     20 H20        114.5267 243.6500 325.5280 H              1 RES1               0.0000
     21 H21        110.4254 242.5595 324.9540 H              1 RES1               0.0000
     22 H22        109.9262 239.7891 325.9241 H              1 RES1               0.0000
     23 H23        113.3918 238.9777 323.9671 H              1 RES1               0.0000
     24 H24        114.4026 240.5981 328.9881 H              1 RES1               0.0000
     25 H25        112.7766 240.1552 328.4735 H              1 RES1               0.0000
     26 H26        114.1714 239.6361 327.5300 H              1 RES1               0.0000
     27 H27        114.1102 245.7812 324.3837 H              1 RES1               0.0000
     28 H28        110.0271 244.6929 323.8145 H              1 RES1               0.0000
     29 H29        111.8623 246.3118 323.5223 H              1 RES1               0.0000
@<TRIPOS>BOND
    1    1    2 1     
    2    1    3 1     
    3    1    4 1     
    4    1    5 1     
    5    2    6 ar    
    6    2    7 ar    
    7    3    8 1     
    8    3    9 2     
    9    4   10 1     
   10    4   11 2     
   11    5   12 1     
   12    5   18 1     
   13    5   19 1     
   14    6   13 ar    
   15    6   20 1     
   16    7   14 ar    
   17    7   21 1     
   18    8   15 1     
   19    8   22 1     
   20   10   15 1     
   21   10   23 1     
   22   12   24 1     
   23   12   25 1     
   24   12   26 1     
   25   13   16 ar    
   26   13   27 1     
   27   14   16 ar    
   28   14   28 1     
   29   15   17 2     
   30   16   29 1     
@<TRIPOS>SUBSTRUCTURE
      1 RES1           1
@<TRIPOS>SET
DONOR_HYDROGENS      STATIC     ATOMS    <user>   **** ""
2 22 23
ATOM$RED        STATIC     ATOMS    COLORGROUP SYSTEM
2 22 23
@<TRIPOS>COMMENT
> <Gold.Version>
2022.3.0

> <Gold.Id.Protein>
unknown|5adf_clean|pdb

> <Gold.Protein.RotatedTorsions>
[ 8428 8423 8424 8425 ] final  -40.70 input   46.96 | X-H torsion
[ 8452 8445 8446 8447 ] final  165.82 input  111.34 | X-H torsion
[ 8996 8992 8993 8994 ] final   82.42 input   44.62 | X-H torsion
[ 9030 9016 9017 9018 ] final  146.12 input   32.56 | X-H torsion
[ 9077 9062 9063 9064 ] final  -67.09 input   99.28 | X-H torsion
[ 9085 9073 9072 9070 ] final  137.28 input   59.99 | X-H torsion
[ 9117 9100 9101 9102 ] final   45.29 input   89.92 | X-H torsion
[ 9192 9177 9178 9179 ] final  133.69 input  116.56 | X-H torsion
[ 3601 3592 3593 3594 ] final  -84.98 input   84.58 | X-H torsion
[ 8978 8972 8973 8974 ] final  -96.91 input   29.23 | X-H torsion
[ 9137 9130 9131 9132 ] final  -22.01 input  126.15 | X-H torsion
[ 4895 4885 4884 4881 ] final -161.73 input   60.00 | X-H torsion
[ 8982 8977 8976 8973 ] final  130.77 input   60.00 | X-H torsion
[ 3579 3563 3564 3565 ] final  117.14 input  100.61 | X-H torsion
[ 3552 3542 3543 3544 ] final  131.14 input   82.26 | X-H torsion
[ 8482 8476 8477 8478 ] final  -85.69 input   53.28 | X-H torsion
[ 8948 8937 8938 8939 ] final   54.87 input   48.32 | X-H torsion
[ 12881 12863 12862 12860 ] final -139.05 input   60.03 | X-H torsion
[ 5550 5545 5544 5541 ] final  143.14 input   60.00 | X-H torsion
[ 5574 5565 5566 5567 ] final  -75.98 input   49.17 | X-H torsion
[ 8328 8319 8318 8316 ] final  134.48 input   60.00 | X-H torsion
[ 5546 5540 5541 5542 ] final   61.00 input  103.84 | X-H torsion
[ 8513 8500 8501 8502 ] final   38.30 input   63.30 | X-H torsion
[ 8486 8481 8480 8477 ] final   35.09 input   60.02 | X-H torsion
[ 8545 8528 8529 8530 ] final -136.82 input   88.08 | X-H torsion
[ 12873 12852 12853 12854 ] final -177.03 input  106.44 | X-H torsion
[ 12908 12891 12892 12893 ] final  -62.07 input   37.87 | X-H torsion
[ 9225 9206 9207 9208 ] final  -20.06 input   89.32 | X-H torsion
[ 11050 11043 11044 11045 ] final  -57.68 input   52.80 | X-H torsion
[ 5606 5598 5599 5600 ] final   68.37 input  119.27 | X-H torsion
[ 8581 8562 8563 8564 ] final -106.59 input   68.50 | X-H torsion
[ 13460 8400 8399 8398 ] final    2.40 input   -0.00 | X-H torsion
[ 13464 8940 8939 8938 ] final  -31.62 input   -0.00 | X-H torsion
[ 13467 8995 8994 8993 ] final  -86.52 input    0.00 | X-H torsion
[ 13470 9019 9018 9017 ] final   58.33 input    0.00 | X-H torsion
[ 13473 9065 9064 9063 ] final   86.24 input   -0.00 | X-H torsion
[ 13478 9103 9102 9101 ] final  144.01 input   -0.00 | X-H torsion
[ 13491 8975 8974 8973 ] final  174.54 input    0.00 | X-H torsion
[ 13493 8345 8344 8343 ] final  -76.60 input    0.00 | X-H torsion
[ 13501 8448 8447 8446 ] final   22.12 input    0.00 | X-H torsion
[ 13503 3502 3501 3500 ] final  107.81 input    0.00 | X-H torsion
[ 13506 8426 8425 8424 ] final -102.02 input    0.00 | X-H torsion
[ 13514 5543 5542 5541 ] final  -42.83 input   -0.00 | X-H torsion
[ 13525 9180 9179 9178 ] final  -39.75 input    0.00 | X-H torsion
[ 13531 5517 5516 5515 ] final  -40.00 input    0.00 | X-H torsion
[ 13535 8503 8502 8501 ] final   -3.51 input   -0.00 | X-H torsion
[ 13538 5568 5567 5566 ] final  -13.50 input   -0.00 | X-H torsion
[ 13540 8479 8478 8477 ] final   65.84 input   -0.00 | X-H torsion
[ 13545 12894 12893 12892 ] final  -67.36 input    0.00 | X-H torsion
[ 13547 12822 12821 12820 ] final  -85.66 input   -0.00 | X-H torsion

> <Gold.Protein.ActiveResidues>
 TRP311  MET341  HIS342  TRP414  ALA417  ARG419  CYS420  VAL421  GLY422  LEU460 
 SER462  ASN481  SER482  GLN483  LEU484  ARG486  ALA502  ASN503  TRP566  TYR567 
 GLY568  LEU569  PRO570  ALA571  VAL572  SER573  ASN574  MET575  LEU576  PHE589 
 SER590  GLY591  TRP592  TYR593  MET594  GLY595  GLU597  ILE598  ARG601  ASP602 
 ARG608  ILE653  VAL654  TRP683  PHE709  GLU710  TYR711  GLN712  ASP714  HEM750 
 H4B760 

> <Gold.Protein.RotatedAtoms>
  120.0912  251.8790  328.5619 H   0  0  0  0  0  0  0  0  0  0  0  0  # atno 3552 bound_to 3542
  121.9152  247.9247  329.4517 H   0  0  0  0  0  0  0  0  0  0  0  0  # atno 3579 bound_to 3563
  124.9909  247.8690  328.4297 H   0  0  0  0  0  0  0  0  0  0  0  0  # atno 3601 bound_to 3592
  125.4338  246.7480  319.0069 H   0  0  0  0  0  0  0  0  0  0  0  0  # atno 4895 bound_to 4885
  106.6242  243.4650  318.1822 H   0  0  0  0  0  0  0  0  0  0  0  0  # atno 5546 bound_to 5540
  107.3435  243.0278  321.8199 H   0  0  0  0  0  0  0  0  0  0  0  0  # atno 5550 bound_to 5545
  108.7572  244.3470  318.2372 H   0  0  0  0  0  0  0  0  0  0  0  0  # atno 5574 bound_to 5565
  112.1664  242.3584  316.4168 H   0  0  0  0  0  0  0  0  0  0  0  0  # atno 5606 bound_to 5598
  112.9440  238.2562  321.8101 H   0  0  0  0  0  0  0  0  0  0  0  0  # atno 8328 bound_to 8319
  115.6046  242.5647  319.2934 H   0  0  0  0  0  0  0  0  0  0  0  0  # atno 8428 bound_to 8423
  115.2011  244.8856  319.3942 H   0  0  0  0  0  0  0  0  0  0  0  0  # atno 8452 bound_to 8445
  112.4606  247.5310  318.3953 H   0  0  0  0  0  0  0  0  0  0  0  0  # atno 8482 bound_to 8476
  109.4277  246.1350  316.9414 H   0  0  0  0  0  0  0  0  0  0  0  0  # atno 8486 bound_to 8481
  110.5799  248.9148  318.8848 H   0  0  0  0  0  0  0  0  0  0  0  0  # atno 8513 bound_to 8500
  109.6043  250.8655  319.7472 H   0  0  0  0  0  0  0  0  0  0  0  0  # atno 8545 bound_to 8528
  110.7321  254.2016  319.0143 H   0  0  0  0  0  0  0  0  0  0  0  0  # atno 8581 bound_to 8562
  115.4550  248.4613  316.4525 H   0  0  0  0  0  0  0  0  0  0  0  0  # atno 8948 bound_to 8937
  118.6108  247.3012  317.2042 H   0  0  0  0  0  0  0  0  0  0  0  0  # atno 8978 bound_to 8972
  120.3743  243.3417  314.8712 H   0  0  0  0  0  0  0  0  0  0  0  0  # atno 8982 bound_to 8977
  120.3302  244.4273  319.2507 H   0  0  0  0  0  0  0  0  0  0  0  0  # atno 8996 bound_to 8992
  123.5752  242.6131  319.8143 H   0  0  0  0  0  0  0  0  0  0  0  0  # atno 9030 bound_to 9016
  122.4774  240.3772  322.4271 H   0  0  0  0  0  0  0  0  0  0  0  0  # atno 9077 bound_to 9062
  115.1515  238.2522  321.4636 H   0  0  0  0  0  0  0  0  0  0  0  0  # atno 9085 bound_to 9073
  120.9319  239.7485  326.0973 H   0  0  0  0  0  0  0  0  0  0  0  0  # atno 9117 bound_to 9100
  121.7947  237.9273  328.5131 H   0  0  0  0  0  0  0  0  0  0  0  0  # atno 9137 bound_to 9130
  119.1060  238.2962  329.3631 H   0  0  0  0  0  0  0  0  0  0  0  0  # atno 9192 bound_to 9177
  116.7303  236.5338  329.1213 H   0  0  0  0  0  0  0  0  0  0  0  0  # atno 9225 bound_to 9206
  125.8699  236.5709  325.5767 H   0  0  0  0  0  0  0  0  0  0  0  0  # atno 11050 bound_to 11043
  110.5469  255.6205  324.8325 H   0  0  0  0  0  0  0  0  0  0  0  0  # atno 12873 bound_to 12852
  111.0160  251.6351  329.7045 H   0  0  0  0  0  0  0  0  0  0  0  0  # atno 12881 bound_to 12863
  106.6215  254.9058  323.6466 H   0  0  0  0  0  0  0  0  0  0  0  0  # atno 12908 bound_to 12891
  118.8364  242.5842  319.1523 LP  0  0  0  0  0  0  0  0  0  0  0  0  # atno 13460 bound_to 8400
  117.9051  243.7706  318.3006 LP  0  0  0  0  0  0  0  0  0  0  0  0  # atno 13461 bound_to 8400
  116.0893  241.5977  317.9224 LP  0  0  0  0  0  0  0  0  0  0  0  0  # atno 13462 bound_to 8423
  114.8293  245.3300  317.7447 LP  0  0  0  0  0  0  0  0  0  0  0  0  # atno 13463 bound_to 8445
  116.1916  247.0345  317.7507 LP  0  0  0  0  0  0  0  0  0  0  0  0  # atno 13464 bound_to 8940
  116.9126  245.5111  317.3515 LP  0  0  0  0  0  0  0  0  0  0  0  0  # atno 13465 bound_to 8940
  120.8995  244.5200  317.5989 LP  0  0  0  0  0  0  0  0  0  0  0  0  # atno 13466 bound_to 8992
  121.5795  241.5287  318.0256 LP  0  0  0  0  0  0  0  0  0  0  0  0  # atno 13467 bound_to 8995
  123.2890  241.5943  317.7544 LP  0  0  0  0  0  0  0  0  0  0  0  0  # atno 13468 bound_to 8995
  122.1910  242.8571  320.8496 LP  0  0  0  0  0  0  0  0  0  0  0  0  # atno 13469 bound_to 9016
  121.7307  242.4561  322.6552 LP  0  0  0  0  0  0  0  0  0  0  0  0  # atno 13470 bound_to 9019
  122.8318  241.7268  323.7757 LP  0  0  0  0  0  0  0  0  0  0  0  0  # atno 13471 bound_to 9019
  122.0747  238.7532  321.9180 LP  0  0  0  0  0  0  0  0  0  0  0  0  # atno 13472 bound_to 9062
  124.2843  239.3690  324.5974 LP  0  0  0  0  0  0  0  0  0  0  0  0  # atno 13473 bound_to 9065
  123.7483  237.8175  325.1502 LP  0  0  0  0  0  0  0  0  0  0  0  0  # atno 13474 bound_to 9065
  114.7483  238.7620  322.9556 LP  0  0  0  0  0  0  0  0  0  0  0  0  # atno 13475 bound_to 9073
  114.8144  237.1640  322.6257 LP  0  0  0  0  0  0  0  0  0  0  0  0  # atno 13476 bound_to 9073
  122.5420  239.9340  325.4394 LP  0  0  0  0  0  0  0  0  0  0  0  0  # atno 13477 bound_to 9100
  119.9723  237.2897  327.5155 LP  0  0  0  0  0  0  0  0  0  0  0  0  # atno 13478 bound_to 9103
  119.9372  238.9776  327.9023 LP  0  0  0  0  0  0  0  0  0  0  0  0  # atno 13479 bound_to 9103
  118.0786  237.2578  330.3156 LP  0  0  0  0  0  0  0  0  0  0  0  0  # atno 13480 bound_to 9177
  123.6514  247.8649  327.3101 LP  0  0  0  0  0  0  0  0  0  0  0  0  # atno 13489 bound_to 3592
  119.2659  246.8296  315.6554 LP  0  0  0  0  0  0  0  0  0  0  0  0  # atno 13490 bound_to 8972
  122.6079  245.9526  317.3983 LP  0  0  0  0  0  0  0  0  0  0  0  0  # atno 13491 bound_to 8975
  121.4281  246.5100  316.2593 LP  0  0  0  0  0  0  0  0  0  0  0  0  # atno 13492 bound_to 8975
  120.2039  236.9591  319.8811 LP  0  0  0  0  0  0  0  0  0  0  0  0  # atno 13493 bound_to 8345
  121.1226  237.2677  318.4456 LP  0  0  0  0  0  0  0  0  0  0  0  0  # atno 13494 bound_to 8345
  123.2889  237.0970  328.1439 LP  0  0  0  0  0  0  0  0  0  0  0  0  # atno 13495 bound_to 9130
  126.2587  245.6313  318.1575 LP  0  0  0  0  0  0  0  0  0  0  0  0  # atno 13496 bound_to 4885
  124.6430  245.4881  318.3464 LP  0  0  0  0  0  0  0  0  0  0  0  0  # atno 13497 bound_to 4885
  120.7669  244.8688  315.2725 LP  0  0  0  0  0  0  0  0  0  0  0  0  # atno 13498 bound_to 8977
  119.5621  244.5854  314.2073 LP  0  0  0  0  0  0  0  0  0  0  0  0  # atno 13499 bound_to 8977
  122.7017  249.3301  328.7680 LP  0  0  0  0  0  0  0  0  0  0  0  0  # atno 13500 bound_to 3563
  114.8128  247.6209  317.4951 LP  0  0  0  0  0  0  0  0  0  0  0  0  # atno 13501 bound_to 8448
  113.5119  248.6659  317.0307 LP  0  0  0  0  0  0  0  0  0  0  0  0  # atno 13502 bound_to 8448
  118.9224  248.9707  329.6952 LP  0  0  0  0  0  0  0  0  0  0  0  0  # atno 13503 bound_to 3502
  119.6747  249.2956  331.2211 LP  0  0  0  0  0  0  0  0  0  0  0  0  # atno 13504 bound_to 3502
  120.4381  251.0250  330.0456 LP  0  0  0  0  0  0  0  0  0  0  0  0  # atno 13505 bound_to 3542
  113.0548  244.8440  316.5212 LP  0  0  0  0  0  0  0  0  0  0  0  0  # atno 13506 bound_to 8426
  112.8116  243.4508  317.5212 LP  0  0  0  0  0  0  0  0  0  0  0  0  # atno 13507 bound_to 8426
  111.3873  246.1906  318.0823 LP  0  0  0  0  0  0  0  0  0  0  0  0  # atno 13510 bound_to 8476
  115.8209  248.7296  314.7653 LP  0  0  0  0  0  0  0  0  0  0  0  0  # atno 13511 bound_to 8937
  109.7536  246.5020  319.1583 LP  0  0  0  0  0  0  0  0  0  0  0  0  # atno 13514 bound_to 5543
  110.6950  245.2250  319.8532 LP  0  0  0  0  0  0  0  0  0  0  0  0  # atno 13515 bound_to 5543
  112.2098  251.7310  328.6025 LP  0  0  0  0  0  0  0  0  0  0  0  0  # atno 13516 bound_to 12863
  111.1052  250.5317  328.5116 LP  0  0  0  0  0  0  0  0  0  0  0  0  # atno 13517 bound_to 12863
  107.6857  242.8553  320.2385 LP  0  0  0  0  0  0  0  0  0  0  0  0  # atno 13518 bound_to 5545
  106.1325  242.8982  320.7408 LP  0  0  0  0  0  0  0  0  0  0  0  0  # atno 13519 bound_to 5545
  108.8059  242.9638  319.3072 LP  0  0  0  0  0  0  0  0  0  0  0  0  # atno 13520 bound_to 5565
  111.5823  237.3665  321.7584 LP  0  0  0  0  0  0  0  0  0  0  0  0  # atno 13523 bound_to 8319
  111.8194  238.5652  320.6751 LP  0  0  0  0  0  0  0  0  0  0  0  0  # atno 13524 bound_to 8319
  114.4616  237.9395  329.4039 LP  0  0  0  0  0  0  0  0  0  0  0  0  # atno 13525 bound_to 9180
  114.2978  237.0915  327.9026 LP  0  0  0  0  0  0  0  0  0  0  0  0  # atno 13526 bound_to 9180
  106.1020  245.0590  317.6991 LP  0  0  0  0  0  0  0  0  0  0  0  0  # atno 13529 bound_to 5540
  109.8317  248.4908  317.3689 LP  0  0  0  0  0  0  0  0  0  0  0  0  # atno 13530 bound_to 8500
  107.7191  246.0795  315.9095 LP  0  0  0  0  0  0  0  0  0  0  0  0  # atno 13531 bound_to 5517
  107.2678  246.7988  317.4191 LP  0  0  0  0  0  0  0  0  0  0  0  0  # atno 13532 bound_to 5517
  110.5757  245.0292  316.6120 LP  0  0  0  0  0  0  0  0  0  0  0  0  # atno 13533 bound_to 8481
  109.3879  245.3240  315.5308 LP  0  0  0  0  0  0  0  0  0  0  0  0  # atno 13534 bound_to 8481
  107.1413  251.5116  319.7348 LP  0  0  0  0  0  0  0  0  0  0  0  0  # atno 13535 bound_to 8503
  108.3347  252.6242  320.3162 LP  0  0  0  0  0  0  0  0  0  0  0  0  # atno 13536 bound_to 8503
  110.6383  251.2534  318.3972 LP  0  0  0  0  0  0  0  0  0  0  0  0  # atno 13537 bound_to 8528
  108.6239  241.7936  317.1173 LP  0  0  0  0  0  0  0  0  0  0  0  0  # atno 13538 bound_to 5568
  109.0767  241.7798  315.4455 LP  0  0  0  0  0  0  0  0  0  0  0  0  # atno 13539 bound_to 5568
  108.9224  248.7410  315.4194 LP  0  0  0  0  0  0  0  0  0  0  0  0  # atno 13540 bound_to 8479
  109.5473  250.2780  315.9166 LP  0  0  0  0  0  0  0  0  0  0  0  0  # atno 13541 bound_to 8479
  104.9680  252.8573  321.7847 LP  0  0  0  0  0  0  0  0  0  0  0  0  # atno 13545 bound_to 12894
  104.2003  253.1571  323.3081 LP  0  0  0  0  0  0  0  0  0  0  0  0  # atno 13546 bound_to 12894
  110.0190  255.9092  321.4853 LP  0  0  0  0  0  0  0  0  0  0  0  0  # atno 13547 bound_to 12822
  110.9824  254.6485  322.1800 LP  0  0  0  0  0  0  0  0  0  0  0  0  # atno 13548 bound_to 12822
  109.7432  256.8890  323.9401 LP  0  0  0  0  0  0  0  0  0  0  0  0  # atno 13549 bound_to 12852
  107.5040  254.7900  322.1423 LP  0  0  0  0  0  0  0  0  0  0  0  0  # atno 13550 bound_to 12891

> <Gold.Score>
     Fitness  S(hb_ext) S(vdw_ext)  S(hb_int)    S(int)      intcor
     35.68       4.66      23.34       0.00      -1.08      -0.76

> <Gold.Goldscore.Fitness>
35.6782

> <Gold.Goldscore.Internal.Vdw>
-1.3409

> <Gold.Goldscore.Internal.Torsion>
-0.5075

> <Gold.Goldscore.External.Vdw>
23.3444

> <Gold.Goldscore.Internal.HBond>
0.0000

> <Gold.Goldscore.External.HBond>
4.6632

> <Gold.Goldscore.Internal.Correction>
-0.7650

> <Gold.Goldscore.Hbonds>
donor molecule, donor type, donor heavy atom, donor atom, acceptor molecule, acceptor atom, score
      P1  H  9513  9525       L1    17  0.46
      L1  H    10    23       P1  9073  0.95

> <Gold.Goldscore.Internal.Vdw.Weighted>
-1.3409

> <Gold.Goldscore.Internal.Torsion.Weighted>
-0.5075

> <Gold.Goldscore.External.Vdw.Weighted>
32.0985

> <Gold.Goldscore.Internal.HBond.Weighted>
0.0000

> <Gold.Goldscore.External.HBond.Weighted>
4.6632

> <Gold.Goldscore.Internal.Correction.Weighted>
-0.7650

> <Gold.Rescore>
     Score     S(PLP)   S(hbond)     S(cho)   S(metal)  DE(clash)   DE(tors)     intcor
     10.69     -10.44       0.66       0.00       0.00       0.73       0.49       ----

> <Gold.PLP.Fitness>
10.6875

> <Gold.PLP.PLP>
-10.4397

> <Gold.PLP.part.hbond>
-3.5144

> <Gold.PLP.part.metal>
0.0000

> <Gold.PLP.part.buried>
10.1989

> <Gold.PLP.part.nonpolar>
-20.6724

> <Gold.PLP.part.repulsive>
3.7526

> <Gold.PLP.ligand.clash>
0.7294

> <Gold.PLP.ligand.torsion>
0.4950

> <Gold.PLP.Chemscore.Hbond>
0.6557

> <Gold.PLP.Chemscore.CHOScore>
0.0000

> <Gold.PLP.Chemscore.Metal>
0.0000

> <Gold.Chemscore.Hbonds>
donor molecule, donor type, donor heavy atom, donor atom, acceptor molecule, acceptor atom, score
      P1  H  5687  5700       L1    17  0.20
      P1  H  9513  9525       L1    17  1.00

> <Gold.PLP.Chemscore.Internal.Correction>
   9.000000E+99

