#       Name:                CT1002167954
#       Creating user name   hitesit
#       Creation time:       Sun Apr 16 20:17:49 2023


#       File generated by GOLD software.
#

@<TRIPOS>MOLECULE
CT1002167954|ligand_prepared|mol2|1|dock10
    29    30     1
SMALL
NO_CHARGES


@<TRIPOS>ATOM
      1 C1         115.0602 242.9173 324.6073 C.3            1 RES1               0.0000
      2 C2         116.3509 243.7380 324.4087 C.ar           1 RES1               0.0000
      3 C3         114.6447 243.1176 326.0618 C.2            1 RES1               0.0000
      4 C4         114.0545 243.4519 323.5937 C.2            1 RES1               0.0000
      5 C5         115.2374 241.4025 324.3513 C.3            1 RES1               0.0000
      6 C6         117.4961 243.1427 323.8883 C.ar           1 RES1               0.0000
      7 C7         116.4107 245.0895 324.7383 C.ar           1 RES1               0.0000
      8 N8         113.5713 243.9223 326.3071 N.am           1 RES1               0.0000
      9 O9         115.2733 242.6091 326.9818 O.2            1 RES1               0.0000
     10 N10        112.9379 244.0870 324.0707 N.am           1 RES1               0.0000
     11 O11        114.2272 243.3437 322.3859 O.2            1 RES1               0.0000
     12 C12        114.0017 240.5774 324.6745 C.3            1 RES1               0.0000
     13 C13        118.6582 243.8727 323.7012 C.ar           1 RES1               0.0000
     14 C14        117.5740 245.8176 324.5506 C.ar           1 RES1               0.0000
     15 C15        112.6658 244.3735 325.3807 C.2            1 RES1               0.0000
     16 C16        118.6978 245.2105 324.0317 C.ar           1 RES1               0.0000
     17 O17        111.6664 244.9967 325.7273 O.2            1 RES1               0.0000
     18 H18        115.4972 241.2508 323.2964 H              1 RES1               0.0000
     19 H19        116.0746 241.0373 324.9587 H              1 RES1               0.0000
     20 H20        117.4845 242.0904 323.6246 H              1 RES1               0.0000
     21 H21        115.5391 245.5877 325.1489 H              1 RES1               0.0000
     22 H22        113.4287 244.2158 327.2683 H              1 RES1               0.0000
     23 H23        112.2452 244.3724 323.3858 H              1 RES1               0.0000
     24 H24        114.1799 239.5224 324.4772 H              1 RES1               0.0000
     25 H25        113.7294 240.6849 325.7225 H              1 RES1               0.0000
     26 H26        113.1555 240.8971 324.0700 H              1 RES1               0.0000
     27 H27        119.5403 243.3899 323.2938 H              1 RES1               0.0000
     28 H28        117.6009 246.8701 324.8127 H              1 RES1               0.0000
     29 H29        119.6082 245.7822 323.8847 H              1 RES1               0.0000
@<TRIPOS>BOND
    1    1    2 1     
    2    1    3 1     
    3    1    4 1     
    4    1    5 1     
    5    2    6 ar    
    6    2    7 ar    
    7    3    8 1     
    8    3    9 2     
    9    4   10 1     
   10    4   11 2     
   11    5   12 1     
   12    5   18 1     
   13    5   19 1     
   14    6   13 ar    
   15    6   20 1     
   16    7   14 ar    
   17    7   21 1     
   18    8   15 1     
   19    8   22 1     
   20   10   15 1     
   21   10   23 1     
   22   12   24 1     
   23   12   25 1     
   24   12   26 1     
   25   13   16 ar    
   26   13   27 1     
   27   14   16 ar    
   28   14   28 1     
   29   15   17 2     
   30   16   29 1     
@<TRIPOS>SUBSTRUCTURE
      1 RES1           1
@<TRIPOS>SET
DONOR_HYDROGENS      STATIC     ATOMS    <user>   **** ""
2 22 23
ATOM$RED        STATIC     ATOMS    COLORGROUP SYSTEM
2 22 23
@<TRIPOS>COMMENT
> <Gold.Version>
2022.3.0

> <Gold.Id.Protein>
unknown|5adf_clean|pdb

> <Gold.Protein.RotatedTorsions>
[ 8428 8423 8424 8425 ] final  -98.53 input   46.96 | X-H torsion
[ 8452 8445 8446 8447 ] final  -67.71 input  111.34 | X-H torsion
[ 8996 8992 8993 8994 ] final   41.20 input   44.62 | X-H torsion
[ 9030 9016 9017 9018 ] final -178.88 input   32.56 | X-H torsion
[ 9077 9062 9063 9064 ] final   29.71 input   99.28 | X-H torsion
[ 9085 9073 9072 9070 ] final   66.32 input   59.99 | X-H torsion
[ 9117 9100 9101 9102 ] final   59.53 input   89.92 | X-H torsion
[ 9192 9177 9178 9179 ] final    4.12 input  116.56 | X-H torsion
[ 3601 3592 3593 3594 ] final   76.96 input   84.58 | X-H torsion
[ 8978 8972 8973 8974 ] final -158.46 input   29.23 | X-H torsion
[ 9137 9130 9131 9132 ] final   35.23 input  126.15 | X-H torsion
[ 4895 4885 4884 4881 ] final  -55.81 input   60.00 | X-H torsion
[ 8982 8977 8976 8973 ] final -168.70 input   60.00 | X-H torsion
[ 3579 3563 3564 3565 ] final  -80.23 input  100.61 | X-H torsion
[ 3552 3542 3543 3544 ] final   42.07 input   82.26 | X-H torsion
[ 8482 8476 8477 8478 ] final  -27.72 input   53.28 | X-H torsion
[ 8948 8937 8938 8939 ] final -107.43 input   48.32 | X-H torsion
[ 12881 12863 12862 12860 ] final -175.93 input   60.03 | X-H torsion
[ 5550 5545 5544 5541 ] final  -24.04 input   60.00 | X-H torsion
[ 5574 5565 5566 5567 ] final -162.85 input   49.17 | X-H torsion
[ 8328 8319 8318 8316 ] final -153.96 input   60.00 | X-H torsion
[ 5546 5540 5541 5542 ] final  178.63 input  103.84 | X-H torsion
[ 8513 8500 8501 8502 ] final  107.08 input   63.30 | X-H torsion
[ 8486 8481 8480 8477 ] final  -10.30 input   60.02 | X-H torsion
[ 8545 8528 8529 8530 ] final -106.11 input   88.08 | X-H torsion
[ 12873 12852 12853 12854 ] final   10.76 input  106.44 | X-H torsion
[ 12908 12891 12892 12893 ] final   -2.99 input   37.87 | X-H torsion
[ 9225 9206 9207 9208 ] final -111.78 input   89.32 | X-H torsion
[ 11050 11043 11044 11045 ] final   21.67 input   52.80 | X-H torsion
[ 5606 5598 5599 5600 ] final  127.47 input  119.27 | X-H torsion
[ 8581 8562 8563 8564 ] final   64.02 input   68.50 | X-H torsion
[ 13460 8400 8399 8398 ] final   15.16 input   -0.00 | X-H torsion
[ 13464 8940 8939 8938 ] final -135.26 input   -0.00 | X-H torsion
[ 13467 8995 8994 8993 ] final   30.43 input    0.00 | X-H torsion
[ 13470 9019 9018 9017 ] final   88.13 input    0.00 | X-H torsion
[ 13473 9065 9064 9063 ] final   36.13 input   -0.00 | X-H torsion
[ 13478 9103 9102 9101 ] final -127.17 input   -0.00 | X-H torsion
[ 13491 8975 8974 8973 ] final  151.15 input    0.00 | X-H torsion
[ 13493 8345 8344 8343 ] final -125.98 input    0.00 | X-H torsion
[ 13501 8448 8447 8446 ] final -108.04 input    0.00 | X-H torsion
[ 13503 3502 3501 3500 ] final  -66.94 input    0.00 | X-H torsion
[ 13506 8426 8425 8424 ] final   69.41 input    0.00 | X-H torsion
[ 13514 5543 5542 5541 ] final  169.31 input   -0.00 | X-H torsion
[ 13525 9180 9179 9178 ] final  150.81 input    0.00 | X-H torsion
[ 13531 5517 5516 5515 ] final   91.58 input    0.00 | X-H torsion
[ 13535 8503 8502 8501 ] final -105.05 input   -0.00 | X-H torsion
[ 13538 5568 5567 5566 ] final  -15.20 input   -0.00 | X-H torsion
[ 13540 8479 8478 8477 ] final  154.87 input   -0.00 | X-H torsion
[ 13545 12894 12893 12892 ] final  -78.68 input    0.00 | X-H torsion
[ 13547 12822 12821 12820 ] final -175.70 input   -0.00 | X-H torsion

> <Gold.Protein.ActiveResidues>
 TRP311  MET341  HIS342  TRP414  ALA417  ARG419  CYS420  VAL421  GLY422  LEU460 
 SER462  ASN481  SER482  GLN483  LEU484  ARG486  ALA502  ASN503  TRP566  TYR567 
 GLY568  LEU569  PRO570  ALA571  VAL572  SER573  ASN574  MET575  LEU576  PHE589 
 SER590  GLY591  TRP592  TYR593  MET594  GLY595  GLU597  ILE598  ARG601  ASP602 
 ARG608  ILE653  VAL654  TRP683  PHE709  GLU710  TYR711  GLN712  ASP714  HEM750 
 H4B760 

> <Gold.Protein.RotatedAtoms>
  121.0199  251.9015  329.3793 H   0  0  0  0  0  0  0  0  0  0  0  0  # atno 3552 bound_to 3542
  122.6635  249.4493  329.0030 H   0  0  0  0  0  0  0  0  0  0  0  0  # atno 3579 bound_to 3563
  123.7161  248.1294  327.2763 H   0  0  0  0  0  0  0  0  0  0  0  0  # atno 3601 bound_to 3592
  124.5567  245.6629  318.4691 H   0  0  0  0  0  0  0  0  0  0  0  0  # atno 4895 bound_to 4885
  105.6450  244.6001  318.3296 H   0  0  0  0  0  0  0  0  0  0  0  0  # atno 5546 bound_to 5540
  106.9705  242.8263  320.0085 H   0  0  0  0  0  0  0  0  0  0  0  0  # atno 5550 bound_to 5545
  109.1751  244.1778  319.3718 H   0  0  0  0  0  0  0  0  0  0  0  0  # atno 5574 bound_to 5565
  112.1946  243.1647  316.0892 H   0  0  0  0  0  0  0  0  0  0  0  0  # atno 5606 bound_to 5598
  112.5080  238.7757  320.9505 H   0  0  0  0  0  0  0  0  0  0  0  0  # atno 8328 bound_to 8319
  116.4334  242.5104  319.0995 H   0  0  0  0  0  0  0  0  0  0  0  0  # atno 8428 bound_to 8423
  114.4603  244.6872  318.0110 H   0  0  0  0  0  0  0  0  0  0  0  0  # atno 8452 bound_to 8445
  111.6820  247.5356  318.7422 H   0  0  0  0  0  0  0  0  0  0  0  0  # atno 8482 bound_to 8476
  110.0228  245.8252  317.2103 H   0  0  0  0  0  0  0  0  0  0  0  0  # atno 8486 bound_to 8481
  109.9845  248.1372  318.7547 H   0  0  0  0  0  0  0  0  0  0  0  0  # atno 8513 bound_to 8500
  109.3344  251.0968  319.4480 H   0  0  0  0  0  0  0  0  0  0  0  0  # atno 8545 bound_to 8528
  110.7339  255.2274  320.4503 H   0  0  0  0  0  0  0  0  0  0  0  0  # atno 8581 bound_to 8562
  115.8049  248.4615  314.7428 H   0  0  0  0  0  0  0  0  0  0  0  0  # atno 8948 bound_to 8937
  118.0857  246.9186  316.5779 H   0  0  0  0  0  0  0  0  0  0  0  0  # atno 8978 bound_to 8972
  119.7016  243.6683  314.2960 H   0  0  0  0  0  0  0  0  0  0  0  0  # atno 8982 bound_to 8977
  120.3215  243.8624  318.9830 H   0  0  0  0  0  0  0  0  0  0  0  0  # atno 8996 bound_to 8992
  123.1413  242.5522  319.5170 H   0  0  0  0  0  0  0  0  0  0  0  0  # atno 9030 bound_to 9016
  123.0136  239.1645  322.4641 H   0  0  0  0  0  0  0  0  0  0  0  0  # atno 9077 bound_to 9062
  114.9511  238.9888  322.2375 H   0  0  0  0  0  0  0  0  0  0  0  0  # atno 9085 bound_to 9073
  120.9577  239.9610  326.1478 H   0  0  0  0  0  0  0  0  0  0  0  0  # atno 9117 bound_to 9100
  122.3347  237.7605  329.1470 H   0  0  0  0  0  0  0  0  0  0  0  0  # atno 9137 bound_to 9130
  118.3120  236.9588  329.6767 H   0  0  0  0  0  0  0  0  0  0  0  0  # atno 9192 bound_to 9177
  116.2109  237.1520  328.1286 H   0  0  0  0  0  0  0  0  0  0  0  0  # atno 9225 bound_to 9206
  125.1649  237.4132  325.8121 H   0  0  0  0  0  0  0  0  0  0  0  0  # atno 11050 bound_to 11043
  109.6901  256.9376  324.0364 H   0  0  0  0  0  0  0  0  0  0  0  0  # atno 12873 bound_to 12852
  111.4815  251.9810  329.5828 H   0  0  0  0  0  0  0  0  0  0  0  0  # atno 12881 bound_to 12863
  106.5603  254.1798  323.1670 H   0  0  0  0  0  0  0  0  0  0  0  0  # atno 12908 bound_to 12891
  118.8687  242.5142  318.9760 LP  0  0  0  0  0  0  0  0  0  0  0  0  # atno 13460 bound_to 8400
  117.8728  243.8405  318.4769 LP  0  0  0  0  0  0  0  0  0  0  0  0  # atno 13461 bound_to 8400
  115.2772  241.6509  318.1124 LP  0  0  0  0  0  0  0  0  0  0  0  0  # atno 13462 bound_to 8423
  115.5509  245.5233  319.0919 LP  0  0  0  0  0  0  0  0  0  0  0  0  # atno 13463 bound_to 8445
  117.0935  246.1241  318.2105 LP  0  0  0  0  0  0  0  0  0  0  0  0  # atno 13464 bound_to 8940
  116.0107  246.4215  316.8917 LP  0  0  0  0  0  0  0  0  0  0  0  0  # atno 13465 bound_to 8940
  120.9078  245.0679  317.8585 LP  0  0  0  0  0  0  0  0  0  0  0  0  # atno 13466 bound_to 8992
  122.7226  242.1732  317.3491 LP  0  0  0  0  0  0  0  0  0  0  0  0  # atno 13467 bound_to 8995
  122.1459  240.9497  318.4309 LP  0  0  0  0  0  0  0  0  0  0  0  0  # atno 13468 bound_to 8995
  122.6176  242.9170  321.1419 LP  0  0  0  0  0  0  0  0  0  0  0  0  # atno 13469 bound_to 9016
  121.4722  242.2312  322.9399 LP  0  0  0  0  0  0  0  0  0  0  0  0  # atno 13470 bound_to 9019
  123.0903  241.9517  323.4910 LP  0  0  0  0  0  0  0  0  0  0  0  0  # atno 13471 bound_to 9019
  121.5536  239.9317  321.8821 LP  0  0  0  0  0  0  0  0  0  0  0  0  # atno 13472 bound_to 9062
  124.0463  238.9170  324.0711 LP  0  0  0  0  0  0  0  0  0  0  0  0  # atno 13473 bound_to 9065
  123.9863  238.2696  325.6765 LP  0  0  0  0  0  0  0  0  0  0  0  0  # atno 13474 bound_to 9065
  114.6701  237.6943  323.1829 LP  0  0  0  0  0  0  0  0  0  0  0  0  # atno 13475 bound_to 9073
  115.0945  237.4902  321.6193 LP  0  0  0  0  0  0  0  0  0  0  0  0  # atno 13476 bound_to 9073
  122.5169  239.7276  325.3903 LP  0  0  0  0  0  0  0  0  0  0  0  0  # atno 13477 bound_to 9100
  119.8507  237.9222  328.5423 LP  0  0  0  0  0  0  0  0  0  0  0  0  # atno 13478 bound_to 9103
  120.0589  238.3451  326.8756 LP  0  0  0  0  0  0  0  0  0  0  0  0  # atno 13479 bound_to 9103
  118.8635  238.5801  330.0056 LP  0  0  0  0  0  0  0  0  0  0  0  0  # atno 13480 bound_to 9177
  124.9048  247.6089  328.4442 LP  0  0  0  0  0  0  0  0  0  0  0  0  # atno 13489 bound_to 3592
  119.7808  247.2048  316.2695 LP  0  0  0  0  0  0  0  0  0  0  0  0  # atno 13490 bound_to 8972
  122.4772  246.2335  317.5630 LP  0  0  0  0  0  0  0  0  0  0  0  0  # atno 13491 bound_to 8975
  121.5588  246.2291  316.0945 LP  0  0  0  0  0  0  0  0  0  0  0  0  # atno 13492 bound_to 8975
  120.0354  237.5751  319.5411 LP  0  0  0  0  0  0  0  0  0  0  0  0  # atno 13493 bound_to 8345
  121.2911  236.6517  318.7856 LP  0  0  0  0  0  0  0  0  0  0  0  0  # atno 13494 bound_to 8345
  122.7636  237.2592  327.5274 LP  0  0  0  0  0  0  0  0  0  0  0  0  # atno 13495 bound_to 9130
  125.6613  246.7479  318.9708 LP  0  0  0  0  0  0  0  0  0  0  0  0  # atno 13496 bound_to 4885
  126.1231  245.4636  318.0743 LP  0  0  0  0  0  0  0  0  0  0  0  0  # atno 13497 bound_to 4885
  120.9066  243.9326  315.3569 LP  0  0  0  0  0  0  0  0  0  0  0  0  # atno 13498 bound_to 8977
  120.1001  245.1926  314.7022 LP  0  0  0  0  0  0  0  0  0  0  0  0  # atno 13499 bound_to 8977
  121.9765  247.8526  329.2028 LP  0  0  0  0  0  0  0  0  0  0  0  0  # atno 13500 bound_to 3563
  113.8306  248.8349  317.6651 LP  0  0  0  0  0  0  0  0  0  0  0  0  # atno 13501 bound_to 8448
  114.4941  247.4520  316.8606 LP  0  0  0  0  0  0  0  0  0  0  0  0  # atno 13502 bound_to 8448
  119.6030  249.3165  331.2479 LP  0  0  0  0  0  0  0  0  0  0  0  0  # atno 13503 bound_to 3502
  118.9941  248.9498  329.6684 LP  0  0  0  0  0  0  0  0  0  0  0  0  # atno 13504 bound_to 3502
  119.5281  251.0030  329.2446 LP  0  0  0  0  0  0  0  0  0  0  0  0  # atno 13505 bound_to 3542
  112.8726  243.3851  317.4278 LP  0  0  0  0  0  0  0  0  0  0  0  0  # atno 13506 bound_to 8426
  112.9938  244.9096  316.6146 LP  0  0  0  0  0  0  0  0  0  0  0  0  # atno 13507 bound_to 8426
  112.1538  246.1861  317.7409 LP  0  0  0  0  0  0  0  0  0  0  0  0  # atno 13510 bound_to 8476
  115.4786  248.7293  316.4382 LP  0  0  0  0  0  0  0  0  0  0  0  0  # atno 13511 bound_to 8937
  110.8212  245.2466  319.3911 LP  0  0  0  0  0  0  0  0  0  0  0  0  # atno 13514 bound_to 5543
  109.6274  246.4804  319.6204 LP  0  0  0  0  0  0  0  0  0  0  0  0  # atno 13515 bound_to 5543
  112.0877  251.2620  328.2547 LP  0  0  0  0  0  0  0  0  0  0  0  0  # atno 13516 bound_to 12863
  110.7587  250.6525  328.9819 LP  0  0  0  0  0  0  0  0  0  0  0  0  # atno 13517 bound_to 12863
  106.2838  242.9800  321.4757 LP  0  0  0  0  0  0  0  0  0  0  0  0  # atno 13518 bound_to 5545
  107.9101  242.9766  321.3284 LP  0  0  0  0  0  0  0  0  0  0  0  0  # atno 13519 bound_to 5545
  108.4004  243.1280  318.2064 LP  0  0  0  0  0  0  0  0  0  0  0  0  # atno 13520 bound_to 5565
  112.5665  237.6752  322.1480 LP  0  0  0  0  0  0  0  0  0  0  0  0  # atno 13523 bound_to 8319
  111.2743  237.7335  321.1513 LP  0  0  0  0  0  0  0  0  0  0  0  0  # atno 13524 bound_to 8319
  114.2922  236.9610  327.9938 LP  0  0  0  0  0  0  0  0  0  0  0  0  # atno 13525 bound_to 9180
  114.4672  238.0700  329.3127 LP  0  0  0  0  0  0  0  0  0  0  0  0  # atno 13526 bound_to 9180
  107.0644  243.9435  317.5542 LP  0  0  0  0  0  0  0  0  0  0  0  0  # atno 13529 bound_to 5540
  110.4226  249.2625  317.4981 LP  0  0  0  0  0  0  0  0  0  0  0  0  # atno 13530 bound_to 8500
  106.8139  246.9271  316.8882 LP  0  0  0  0  0  0  0  0  0  0  0  0  # atno 13531 bound_to 5517
  108.1730  245.9513  316.4404 LP  0  0  0  0  0  0  0  0  0  0  0  0  # atno 13532 bound_to 5517
  110.3288  244.8342  315.9560 LP  0  0  0  0  0  0  0  0  0  0  0  0  # atno 13533 bound_to 8481
  109.0359  245.8309  315.9161 LP  0  0  0  0  0  0  0  0  0  0  0  0  # atno 13534 bound_to 8481
  107.7735  252.6391  319.3755 LP  0  0  0  0  0  0  0  0  0  0  0  0  # atno 13535 bound_to 8503
  107.7025  251.4966  320.6754 LP  0  0  0  0  0  0  0  0  0  0  0  0  # atno 13536 bound_to 8503
  110.9051  251.0247  318.6930 LP  0  0  0  0  0  0  0  0  0  0  0  0  # atno 13537 bound_to 8528
  108.6349  241.7706  317.1200 LP  0  0  0  0  0  0  0  0  0  0  0  0  # atno 13538 bound_to 5568
  109.0657  241.8028  315.4427 LP  0  0  0  0  0  0  0  0  0  0  0  0  # atno 13539 bound_to 5568
  108.5447  249.6072  316.1820 LP  0  0  0  0  0  0  0  0  0  0  0  0  # atno 13540 bound_to 8479
  109.9250  249.4117  315.1540 LP  0  0  0  0  0  0  0  0  0  0  0  0  # atno 13541 bound_to 8479
  104.8100  252.8197  321.7316 LP  0  0  0  0  0  0  0  0  0  0  0  0  # atno 13545 bound_to 12894
  104.3584  253.1946  323.3612 LP  0  0  0  0  0  0  0  0  0  0  0  0  # atno 13546 bound_to 12894
  109.7826  254.8817  322.1094 LP  0  0  0  0  0  0  0  0  0  0  0  0  # atno 13547 bound_to 12822
  111.2188  255.6760  321.5560 LP  0  0  0  0  0  0  0  0  0  0  0  0  # atno 13548 bound_to 12822
  110.5818  255.5998  324.7194 LP  0  0  0  0  0  0  0  0  0  0  0  0  # atno 13549 bound_to 12852
  107.5637  255.4984  322.6103 LP  0  0  0  0  0  0  0  0  0  0  0  0  # atno 13550 bound_to 12891

> <Gold.Score>
     Fitness  S(hb_ext) S(vdw_ext)  S(hb_int)    S(int)      intcor
     36.24       1.29      25.99       0.00      -0.79      -0.76

> <Gold.Goldscore.Fitness>
36.2403

> <Gold.Goldscore.Internal.Vdw>
-1.1355

> <Gold.Goldscore.Internal.Torsion>
-0.4187

> <Gold.Goldscore.External.Vdw>
25.9911

> <Gold.Goldscore.Internal.HBond>
0.0000

> <Gold.Goldscore.External.HBond>
1.2918

> <Gold.Goldscore.Internal.Correction>
-0.7650

> <Gold.Goldscore.Hbonds>
donor molecule, donor type, donor heavy atom, donor atom, acceptor molecule, acceptor atom, score
      L1  H     8    22       P1 13315  0.22

> <Gold.Goldscore.Internal.Vdw.Weighted>
-1.1355

> <Gold.Goldscore.Internal.Torsion.Weighted>
-0.4187

> <Gold.Goldscore.External.Vdw.Weighted>
35.7377

> <Gold.Goldscore.Internal.HBond.Weighted>
0.0000

> <Gold.Goldscore.External.HBond.Weighted>
1.2918

> <Gold.Goldscore.Internal.Correction.Weighted>
-0.7650

> <Gold.Rescore>
     Score     S(PLP)   S(hbond)     S(cho)   S(metal)  DE(clash)   DE(tors)     intcor
      8.19      -6.99       1.00       0.00       0.00       0.00       0.90       ----

> <Gold.PLP.Fitness>
8.1941

> <Gold.PLP.PLP>
-6.9926

> <Gold.PLP.part.hbond>
-2.2927

> <Gold.PLP.part.metal>
0.0000

> <Gold.PLP.part.buried>
21.8000

> <Gold.PLP.part.nonpolar>
-36.5639

> <Gold.PLP.part.repulsive>
9.8042

> <Gold.PLP.ligand.clash>
0.0000

> <Gold.PLP.ligand.torsion>
0.8993

> <Gold.PLP.Chemscore.Hbond>
1.0000

> <Gold.PLP.Chemscore.CHOScore>
0.0000

> <Gold.PLP.Chemscore.Metal>
0.0000

> <Gold.Chemscore.Hbonds>
donor molecule, donor type, donor heavy atom, donor atom, acceptor molecule, acceptor atom, score
      L1  H     8    22       P1 13315  0.88

> <Gold.PLP.Chemscore.Internal.Correction>
   9.000000E+99

