#       Name:                CT1002167954
#       Creating user name   hitesit
#       Creation time:       Sun Apr 16 20:17:40 2023


#       File generated by GOLD software.
#

@<TRIPOS>MOLECULE
CT1002167954|ligand_prepared|mol2|1|dock1
    29    30     1
SMALL
NO_CHARGES


@<TRIPOS>ATOM
      1 C1         117.7391 244.7260 323.3135 C.3            1 RES1               0.0000
      2 C2         116.6365 245.5567 324.0012 C.ar           1 RES1               0.0000
      3 C3         117.2188 244.3954 321.9177 C.2            1 RES1               0.0000
      4 C4         118.9934 245.5927 323.3208 C.2            1 RES1               0.0000
      5 C5         118.0691 243.4018 324.0411 C.3            1 RES1               0.0000
      6 C6         115.6265 244.9315 324.7263 C.ar           1 RES1               0.0000
      7 C7         116.6176 246.9467 323.9218 C.ar           1 RES1               0.0000
      8 N8         117.7676 245.0648 320.8639 N.am           1 RES1               0.0000
      9 O9         116.3131 243.5884 321.7479 O.2            1 RES1               0.0000
     10 N10        119.4848 246.0211 322.1155 N.am           1 RES1               0.0000
     11 O11        119.5511 245.9224 324.3603 O.2            1 RES1               0.0000
     12 C12        119.4007 242.7925 323.6313 C.3            1 RES1               0.0000
     13 C13        114.6351 245.6692 325.3519 C.ar           1 RES1               0.0000
     14 C14        115.6251 247.6825 324.5480 C.ar           1 RES1               0.0000
     15 C15        118.9112 245.8219 320.8893 C.2            1 RES1               0.0000
     16 C16        114.6340 247.0450 325.2636 C.ar           1 RES1               0.0000
     17 O17        119.3838 246.2853 319.8554 O.2            1 RES1               0.0000
     18 H18        118.0834 243.5870 325.1222 H              1 RES1               0.0000
     19 H19        117.2713 242.6776 323.8354 H              1 RES1               0.0000
     20 H20        115.6096 243.8496 324.8049 H              1 RES1               0.0000
     21 H21        117.3867 247.4694 323.3634 H              1 RES1               0.0000
     22 H22        117.2829 244.9962 319.9747 H              1 RES1               0.0000
     23 H23        120.3593 246.5361 322.1340 H              1 RES1               0.0000
     24 H24        119.5832 241.8657 324.1711 H              1 RES1               0.0000
     25 H25        119.4124 242.5721 322.5659 H              1 RES1               0.0000
     26 H26        120.2197 243.4761 323.8450 H              1 RES1               0.0000
     27 H27        113.8566 245.1627 325.9127 H              1 RES1               0.0000
     28 H28        115.6278 248.7650 324.4753 H              1 RES1               0.0000
     29 H29        113.8575 247.6227 325.7541 H              1 RES1               0.0000
@<TRIPOS>BOND
    1    1    2 1     
    2    1    3 1     
    3    1    4 1     
    4    1    5 1     
    5    2    6 ar    
    6    2    7 ar    
    7    3    8 1     
    8    3    9 2     
    9    4   10 1     
   10    4   11 2     
   11    5   12 1     
   12    5   18 1     
   13    5   19 1     
   14    6   13 ar    
   15    6   20 1     
   16    7   14 ar    
   17    7   21 1     
   18    8   15 1     
   19    8   22 1     
   20   10   15 1     
   21   10   23 1     
   22   12   24 1     
   23   12   25 1     
   24   12   26 1     
   25   13   16 ar    
   26   13   27 1     
   27   14   16 ar    
   28   14   28 1     
   29   15   17 2     
   30   16   29 1     
@<TRIPOS>SUBSTRUCTURE
      1 RES1           1
@<TRIPOS>SET
DONOR_HYDROGENS      STATIC     ATOMS    <user>   **** ""
2 22 23
ATOM$RED        STATIC     ATOMS    COLORGROUP SYSTEM
2 22 23
@<TRIPOS>COMMENT
> <Gold.Version>
2022.3.0

> <Gold.Id.Protein>
unknown|5adf_clean|pdb

> <Gold.Protein.RotatedTorsions>
[ 8428 8423 8424 8425 ] final  147.85 input   46.96 | X-H torsion
[ 8452 8445 8446 8447 ] final -166.94 input  111.34 | X-H torsion
[ 8996 8992 8993 8994 ] final   -4.01 input   44.62 | X-H torsion
[ 9030 9016 9017 9018 ] final   -3.66 input   32.56 | X-H torsion
[ 9077 9062 9063 9064 ] final  131.07 input   99.28 | X-H torsion
[ 9085 9073 9072 9070 ] final  157.21 input   59.99 | X-H torsion
[ 9117 9100 9101 9102 ] final -178.77 input   89.92 | X-H torsion
[ 9192 9177 9178 9179 ] final -158.24 input  116.56 | X-H torsion
[ 3601 3592 3593 3594 ] final  -49.66 input   84.58 | X-H torsion
[ 8978 8972 8973 8974 ] final  118.64 input   29.23 | X-H torsion
[ 9137 9130 9131 9132 ] final  -52.97 input  126.15 | X-H torsion
[ 4895 4885 4884 4881 ] final  128.61 input   60.00 | X-H torsion
[ 8982 8977 8976 8973 ] final  -35.44 input   60.00 | X-H torsion
[ 3579 3563 3564 3565 ] final -118.99 input  100.61 | X-H torsion
[ 3552 3542 3543 3544 ] final  -69.64 input   82.26 | X-H torsion
[ 8482 8476 8477 8478 ] final   62.94 input   53.28 | X-H torsion
[ 8948 8937 8938 8939 ] final -171.37 input   48.32 | X-H torsion
[ 12881 12863 12862 12860 ] final -121.29 input   60.03 | X-H torsion
[ 5550 5545 5544 5541 ] final  111.02 input   60.00 | X-H torsion
[ 5574 5565 5566 5567 ] final   97.10 input   49.17 | X-H torsion
[ 8328 8319 8318 8316 ] final -111.19 input   60.00 | X-H torsion
[ 5546 5540 5541 5542 ] final -146.11 input  103.84 | X-H torsion
[ 8513 8500 8501 8502 ] final  -24.62 input   63.30 | X-H torsion
[ 8486 8481 8480 8477 ] final  -65.34 input   60.02 | X-H torsion
[ 8545 8528 8529 8530 ] final  -57.20 input   88.08 | X-H torsion
[ 12873 12852 12853 12854 ] final -155.09 input  106.44 | X-H torsion
[ 12908 12891 12892 12893 ] final -120.67 input   37.87 | X-H torsion
[ 9225 9206 9207 9208 ] final  138.22 input   89.32 | X-H torsion
[ 11050 11043 11044 11045 ] final   86.32 input   52.80 | X-H torsion
[ 5606 5598 5599 5600 ] final -119.63 input  119.27 | X-H torsion
[ 8581 8562 8563 8564 ] final  -77.83 input   68.50 | X-H torsion
[ 13460 8400 8399 8398 ] final   55.09 input   -0.00 | X-H torsion
[ 13464 8940 8939 8938 ] final  128.84 input   -0.00 | X-H torsion
[ 13467 8995 8994 8993 ] final  -51.94 input    0.00 | X-H torsion
[ 13470 9019 9018 9017 ] final  -37.82 input    0.00 | X-H torsion
[ 13473 9065 9064 9063 ] final -179.73 input   -0.00 | X-H torsion
[ 13478 9103 9102 9101 ] final  133.10 input   -0.00 | X-H torsion
[ 13491 8975 8974 8973 ] final   40.03 input    0.00 | X-H torsion
[ 13493 8345 8344 8343 ] final   64.62 input    0.00 | X-H torsion
[ 13501 8448 8447 8446 ] final   99.80 input    0.00 | X-H torsion
[ 13503 3502 3501 3500 ] final  -67.66 input    0.00 | X-H torsion
[ 13506 8426 8425 8424 ] final  -48.37 input    0.00 | X-H torsion
[ 13514 5543 5542 5541 ] final  164.13 input   -0.00 | X-H torsion
[ 13525 9180 9179 9178 ] final -150.04 input    0.00 | X-H torsion
[ 13531 5517 5516 5515 ] final  -30.38 input    0.00 | X-H torsion
[ 13535 8503 8502 8501 ] final -179.79 input   -0.00 | X-H torsion
[ 13538 5568 5567 5566 ] final -103.95 input   -0.00 | X-H torsion
[ 13540 8479 8478 8477 ] final  -43.72 input   -0.00 | X-H torsion
[ 13545 12894 12893 12892 ] final  113.89 input    0.00 | X-H torsion
[ 13547 12822 12821 12820 ] final   35.96 input   -0.00 | X-H torsion

> <Gold.Protein.ActiveResidues>
 TRP311  MET341  HIS342  TRP414  ALA417  ARG419  CYS420  VAL421  GLY422  LEU460 
 SER462  ASN481  SER482  GLN483  LEU484  ARG486  ALA502  ASN503  TRP566  TYR567 
 GLY568  LEU569  PRO570  ALA571  VAL572  SER573  ASN574  MET575  LEU576  PHE589 
 SER590  GLY591  TRP592  TYR593  MET594  GLY595  GLU597  ILE598  ARG601  ASP602 
 ARG608  ILE653  VAL654  TRP683  PHE709  GLU710  TYR711  GLN712  ASP714  HEM750 
 H4B760 

> <Gold.Protein.RotatedAtoms>
  120.1622  250.8855  329.9831 H   0  0  0  0  0  0  0  0  0  0  0  0  # atno 3552 bound_to 3542
  122.4159  249.4082  329.5366 H   0  0  0  0  0  0  0  0  0  0  0  0  # atno 3579 bound_to 3563
  124.9516  248.3596  328.2223 H   0  0  0  0  0  0  0  0  0  0  0  0  # atno 3601 bound_to 3592
  126.3099  246.3100  318.5766 H   0  0  0  0  0  0  0  0  0  0  0  0  # atno 4895 bound_to 4885
  105.8201  244.9624  317.9797 H   0  0  0  0  0  0  0  0  0  0  0  0  # atno 5546 bound_to 5540
  107.7725  242.9995  321.5314 H   0  0  0  0  0  0  0  0  0  0  0  0  # atno 5550 bound_to 5545
  108.7750  242.8840  319.2380 H   0  0  0  0  0  0  0  0  0  0  0  0  # atno 5574 bound_to 5565
  110.7347  243.3445  316.1331 H   0  0  0  0  0  0  0  0  0  0  0  0  # atno 5606 bound_to 5598
  111.9012  238.6087  320.6858 H   0  0  0  0  0  0  0  0  0  0  0  0  # atno 8328 bound_to 8319
  116.2168  241.6254  317.9377 H   0  0  0  0  0  0  0  0  0  0  0  0  # atno 8428 bound_to 8423
  114.9326  244.5910  319.2713 H   0  0  0  0  0  0  0  0  0  0  0  0  # atno 8452 bound_to 8445
  111.1375  246.4740  318.3653 H   0  0  0  0  0  0  0  0  0  0  0  0  # atno 8482 bound_to 8476
  110.5343  245.2172  316.8667 H   0  0  0  0  0  0  0  0  0  0  0  0  # atno 8486 bound_to 8481
  110.7235  249.4060  318.1286 H   0  0  0  0  0  0  0  0  0  0  0  0  # atno 8513 bound_to 8500
  109.3695  251.4150  318.7963 H   0  0  0  0  0  0  0  0  0  0  0  0  # atno 8545 bound_to 8528
  111.1469  254.2616  319.1476 H   0  0  0  0  0  0  0  0  0  0  0  0  # atno 8581 bound_to 8562
  115.8032  249.3183  315.1173 H   0  0  0  0  0  0  0  0  0  0  0  0  # atno 8948 bound_to 8937
  118.7489  246.6991  315.6424 H   0  0  0  0  0  0  0  0  0  0  0  0  # atno 8978 bound_to 8972
  120.2616  245.1965  314.8472 H   0  0  0  0  0  0  0  0  0  0  0  0  # atno 8982 bound_to 8977
  120.4839  243.5973  318.3752 H   0  0  0  0  0  0  0  0  0  0  0  0  # atno 8996 bound_to 8992
  122.5441  242.9200  321.1301 H   0  0  0  0  0  0  0  0  0  0  0  0  # atno 9030 bound_to 9016
  121.8322  238.8598  321.8358 H   0  0  0  0  0  0  0  0  0  0  0  0  # atno 9077 bound_to 9062
  115.1498  237.9283  321.4520 H   0  0  0  0  0  0  0  0  0  0  0  0  # atno 9085 bound_to 9073
  122.3428  240.4996  325.7070 H   0  0  0  0  0  0  0  0  0  0  0  0  # atno 9117 bound_to 9100
  121.7837  237.8490  328.0466 H   0  0  0  0  0  0  0  0  0  0  0  0  # atno 9137 bound_to 9130
  118.7328  238.5439  330.2366 H   0  0  0  0  0  0  0  0  0  0  0  0  # atno 9192 bound_to 9177
  117.4325  236.6315  327.5201 H   0  0  0  0  0  0  0  0  0  0  0  0  # atno 9225 bound_to 9206
  125.4417  238.1689  325.3249 H   0  0  0  0  0  0  0  0  0  0  0  0  # atno 11050 bound_to 11043
  110.6436  255.5491  324.5188 H   0  0  0  0  0  0  0  0  0  0  0  0  # atno 12873 bound_to 12852
  110.8431  251.4094  329.6522 H   0  0  0  0  0  0  0  0  0  0  0  0  # atno 12881 bound_to 12863
  107.1098  255.5731  323.3892 H   0  0  0  0  0  0  0  0  0  0  0  0  # atno 12908 bound_to 12891
  118.8108  242.5130  318.3875 LP  0  0  0  0  0  0  0  0  0  0  0  0  # atno 13460 bound_to 8400
  117.9307  243.8418  319.0654 LP  0  0  0  0  0  0  0  0  0  0  0  0  # atno 13461 bound_to 8400
  115.4894  242.5180  319.2507 LP  0  0  0  0  0  0  0  0  0  0  0  0  # atno 13462 bound_to 8423
  115.0908  245.6170  317.8645 LP  0  0  0  0  0  0  0  0  0  0  0  0  # atno 13463 bound_to 8445
  116.7348  245.5443  317.1199 LP  0  0  0  0  0  0  0  0  0  0  0  0  # atno 13464 bound_to 8940
  116.3694  247.0013  317.9823 LP  0  0  0  0  0  0  0  0  0  0  0  0  # atno 13465 bound_to 8940
  120.7503  245.3250  318.4481 LP  0  0  0  0  0  0  0  0  0  0  0  0  # atno 13466 bound_to 8992
  121.6675  241.9144  317.6964 LP  0  0  0  0  0  0  0  0  0  0  0  0  # atno 13467 bound_to 8995
  123.2010  241.2085  318.0836 LP  0  0  0  0  0  0  0  0  0  0  0  0  # atno 13468 bound_to 8995
  123.2048  242.5553  319.5559 LP  0  0  0  0  0  0  0  0  0  0  0  0  # atno 13469 bound_to 9016
  123.0029  242.4057  322.8542 LP  0  0  0  0  0  0  0  0  0  0  0  0  # atno 13470 bound_to 9019
  121.5597  241.7772  323.5767 LP  0  0  0  0  0  0  0  0  0  0  0  0  # atno 13471 bound_to 9019
  122.7017  240.2278  322.4927 LP  0  0  0  0  0  0  0  0  0  0  0  0  # atno 13472 bound_to 9062
  124.1820  238.7648  325.7064 LP  0  0  0  0  0  0  0  0  0  0  0  0  # atno 13473 bound_to 9065
  123.8506  238.4218  324.0413 LP  0  0  0  0  0  0  0  0  0  0  0  0  # atno 13474 bound_to 9065
  114.8238  238.9343  322.6890 LP  0  0  0  0  0  0  0  0  0  0  0  0  # atno 13475 bound_to 9073
  114.7407  237.3177  322.9040 LP  0  0  0  0  0  0  0  0  0  0  0  0  # atno 13476 bound_to 9073
  121.1722  239.2047  325.8183 LP  0  0  0  0  0  0  0  0  0  0  0  0  # atno 13477 bound_to 9100
  119.9918  237.3417  327.3605 LP  0  0  0  0  0  0  0  0  0  0  0  0  # atno 13478 bound_to 9103
  119.9177  238.9256  328.0574 LP  0  0  0  0  0  0  0  0  0  0  0  0  # atno 13479 bound_to 9103
  118.4476  237.0129  329.4520 LP  0  0  0  0  0  0  0  0  0  0  0  0  # atno 13480 bound_to 9177
  123.6901  247.3825  327.5141 LP  0  0  0  0  0  0  0  0  0  0  0  0  # atno 13489 bound_to 3592
  119.1305  247.4200  317.1867 LP  0  0  0  0  0  0  0  0  0  0  0  0  # atno 13490 bound_to 8972
  121.4566  246.8905  316.8096 LP  0  0  0  0  0  0  0  0  0  0  0  0  # atno 13491 bound_to 8975
  122.5793  245.5721  316.8479 LP  0  0  0  0  0  0  0  0  0  0  0  0  # atno 13492 bound_to 8975
  121.2926  236.7699  318.6777 LP  0  0  0  0  0  0  0  0  0  0  0  0  # atno 13493 bound_to 8345
  120.0338  237.4569  319.6490 LP  0  0  0  0  0  0  0  0  0  0  0  0  # atno 13494 bound_to 8345
  123.2996  237.1732  328.5977 LP  0  0  0  0  0  0  0  0  0  0  0  0  # atno 13495 bound_to 9130
  125.2999  245.1597  318.0238 LP  0  0  0  0  0  0  0  0  0  0  0  0  # atno 13496 bound_to 4885
  124.7200  246.4005  318.9131 LP  0  0  0  0  0  0  0  0  0  0  0  0  # atno 13497 bound_to 4885
  119.6070  243.8469  314.2168 LP  0  0  0  0  0  0  0  0  0  0  0  0  # atno 13498 bound_to 8977
  120.8356  243.7390  315.2871 LP  0  0  0  0  0  0  0  0  0  0  0  0  # atno 13499 bound_to 8977
  122.2165  247.8924  328.6857 LP  0  0  0  0  0  0  0  0  0  0  0  0  # atno 13500 bound_to 3563
  114.1891  247.5787  316.6068 LP  0  0  0  0  0  0  0  0  0  0  0  0  # atno 13501 bound_to 8448
  114.1357  248.7081  317.9189 LP  0  0  0  0  0  0  0  0  0  0  0  0  # atno 13502 bound_to 8448
  119.6130  249.3137  331.2446 LP  0  0  0  0  0  0  0  0  0  0  0  0  # atno 13503 bound_to 3502
  118.9841  248.9525  329.6717 LP  0  0  0  0  0  0  0  0  0  0  0  0  # atno 13504 bound_to 3502
  120.3685  251.9986  328.6529 LP  0  0  0  0  0  0  0  0  0  0  0  0  # atno 13505 bound_to 3542
  113.3276  244.1634  316.2504 LP  0  0  0  0  0  0  0  0  0  0  0  0  # atno 13506 bound_to 8426
  112.5388  244.1313  317.7921 LP  0  0  0  0  0  0  0  0  0  0  0  0  # atno 13507 bound_to 8426
  112.6896  247.2310  318.1118 LP  0  0  0  0  0  0  0  0  0  0  0  0  # atno 13510 bound_to 8476
  115.4802  247.8910  316.0717 LP  0  0  0  0  0  0  0  0  0  0  0  0  # atno 13511 bound_to 8937
  110.8129  245.2294  319.4670 LP  0  0  0  0  0  0  0  0  0  0  0  0  # atno 13514 bound_to 5543
  109.6357  246.4976  319.5445 LP  0  0  0  0  0  0  0  0  0  0  0  0  # atno 13515 bound_to 5543
  112.1573  251.9049  328.8300 LP  0  0  0  0  0  0  0  0  0  0  0  0  # atno 13516 bound_to 12863
  111.3318  250.5850  328.3368 LP  0  0  0  0  0  0  0  0  0  0  0  0  # atno 13517 bound_to 12863
  107.2168  242.8268  320.0119 LP  0  0  0  0  0  0  0  0  0  0  0  0  # atno 13518 bound_to 5545
  106.1691  242.9552  321.2579 LP  0  0  0  0  0  0  0  0  0  0  0  0  # atno 13519 bound_to 5545
  108.7886  244.3831  318.3363 LP  0  0  0  0  0  0  0  0  0  0  0  0  # atno 13520 bound_to 5565
  112.9314  238.1894  321.8739 LP  0  0  0  0  0  0  0  0  0  0  0  0  # atno 13523 bound_to 8319
  111.5206  237.3874  321.6919 LP  0  0  0  0  0  0  0  0  0  0  0  0  # atno 13524 bound_to 8319
  114.3156  236.6636  328.7951 LP  0  0  0  0  0  0  0  0  0  0  0  0  # atno 13525 bound_to 9180
  114.4439  238.3674  328.5114 LP  0  0  0  0  0  0  0  0  0  0  0  0  # atno 13526 bound_to 9180
  106.8923  243.5874  317.8981 LP  0  0  0  0  0  0  0  0  0  0  0  0  # atno 13529 bound_to 5540
  109.6891  248.0034  318.1195 LP  0  0  0  0  0  0  0  0  0  0  0  0  # atno 13530 bound_to 8500
  107.5975  246.1403  315.8582 LP  0  0  0  0  0  0  0  0  0  0  0  0  # atno 13531 bound_to 5517
  107.3894  246.7381  317.4704 LP  0  0  0  0  0  0  0  0  0  0  0  0  # atno 13532 bound_to 5517
  109.6342  245.1197  315.5142 LP  0  0  0  0  0  0  0  0  0  0  0  0  # atno 13533 bound_to 8481
  109.2156  246.1573  316.7037 LP  0  0  0  0  0  0  0  0  0  0  0  0  # atno 13534 bound_to 8481
  108.3278  252.6535  320.2686 LP  0  0  0  0  0  0  0  0  0  0  0  0  # atno 13535 bound_to 8503
  107.1481  251.4823  319.7823 LP  0  0  0  0  0  0  0  0  0  0  0  0  # atno 13536 bound_to 8503
  110.8704  250.7101  319.3373 LP  0  0  0  0  0  0  0  0  0  0  0  0  # atno 13537 bound_to 8528
  109.2187  241.0093  316.3807 LP  0  0  0  0  0  0  0  0  0  0  0  0  # atno 13538 bound_to 5568
  108.4819  242.5641  316.1821 LP  0  0  0  0  0  0  0  0  0  0  0  0  # atno 13539 bound_to 5568
  109.9849  249.6624  315.2629 LP  0  0  0  0  0  0  0  0  0  0  0  0  # atno 13540 bound_to 8479
  108.4848  249.3566  316.0731 LP  0  0  0  0  0  0  0  0  0  0  0  0  # atno 13541 bound_to 8479
  104.1838  253.1525  323.3004 LP  0  0  0  0  0  0  0  0  0  0  0  0  # atno 13545 bound_to 12894
  104.9846  252.8618  321.7924 LP  0  0  0  0  0  0  0  0  0  0  0  0  # atno 13546 bound_to 12894
  111.3651  255.2862  321.7794 LP  0  0  0  0  0  0  0  0  0  0  0  0  # atno 13547 bound_to 12822
  109.6363  255.2715  321.8860 LP  0  0  0  0  0  0  0  0  0  0  0  0  # atno 13548 bound_to 12822
  109.6485  256.9589  324.2473 LP  0  0  0  0  0  0  0  0  0  0  0  0  # atno 13549 bound_to 12852
  107.0276  254.1388  322.3935 LP  0  0  0  0  0  0  0  0  0  0  0  0  # atno 13550 bound_to 12891

> <Gold.Score>
     Fitness  S(hb_ext) S(vdw_ext)  S(hb_int)    S(int)      intcor
     47.81       0.02      35.37       0.00      -0.85      -0.78

> <Gold.Goldscore.Fitness>
47.8093

> <Gold.Goldscore.Internal.Vdw>
-0.8129

> <Gold.Goldscore.Internal.Torsion>
-0.8122

> <Gold.Goldscore.External.Vdw>
35.3704

> <Gold.Goldscore.Internal.HBond>
0.0000

> <Gold.Goldscore.External.HBond>
0.0231

> <Gold.Goldscore.Internal.Correction>
-0.7769

> <Gold.Goldscore.Hbonds>
donor molecule, donor type, donor heavy atom, donor atom, acceptor molecule, acceptor atom, score
      P1  H  8445  8452       L1     9  0.01

> <Gold.Goldscore.Internal.Vdw.Weighted>
-0.8129

> <Gold.Goldscore.Internal.Torsion.Weighted>
-0.8122

> <Gold.Goldscore.External.Vdw.Weighted>
48.6344

> <Gold.Goldscore.Internal.HBond.Weighted>
0.0000

> <Gold.Goldscore.External.HBond.Weighted>
0.0231

> <Gold.Goldscore.Internal.Correction.Weighted>
-0.7769

> <Gold.Rescore>
     Score     S(PLP)   S(hbond)     S(cho)   S(metal)  DE(clash)   DE(tors)     intcor
     50.34     -46.19       0.24       0.00       1.00       0.00       1.28       ----

> <Gold.PLP.Fitness>
50.3444

> <Gold.PLP.PLP>
-46.1895

> <Gold.PLP.part.hbond>
-3.0000

> <Gold.PLP.part.metal>
-0.8953

> <Gold.PLP.part.buried>
16.6579

> <Gold.PLP.part.nonpolar>
-60.2158

> <Gold.PLP.part.repulsive>
1.0668

> <Gold.PLP.ligand.clash>
0.0000

> <Gold.PLP.ligand.torsion>
1.2794

> <Gold.PLP.Chemscore.Hbond>
0.2379

> <Gold.PLP.Chemscore.CHOScore>
0.0000

> <Gold.PLP.Chemscore.Metal>
1.0000

> <Gold.Chemscore.Hbonds>
donor molecule, donor type, donor heavy atom, donor atom, acceptor molecule, acceptor atom, score
      P1  M 13326 13326       L1    11  1.00

> <Gold.PLP.Chemscore.Internal.Correction>
   9.000000E+99

