#       Name:                CT1002167954
#       Creating user name   hitesit
#       Creation time:       Sun Apr 16 20:17:41 2023


#       File generated by GOLD software.
#

@<TRIPOS>MOLECULE
CT1002167954|ligand_prepared|mol2|1|dock2
    29    30     1
SMALL
NO_CHARGES


@<TRIPOS>ATOM
      1 C1         108.9879 245.4145 325.1178 C.3            1 RES1               0.0000
      2 C2         107.6078 244.7278 325.1691 C.ar           1 RES1               0.0000
      3 C3         109.9880 244.3366 324.7102 C.2            1 RES1               0.0000
      4 C4         108.8595 246.5555 324.1146 C.2            1 RES1               0.0000
      5 C5         109.4373 246.0156 326.4699 C.3            1 RES1               0.0000
      6 C6         106.7020 244.8784 324.1234 C.ar           1 RES1               0.0000
      7 C7         107.2280 243.9398 326.2524 C.ar           1 RES1               0.0000
      8 N8         110.4801 244.3794 323.4390 N.am           1 RES1               0.0000
      9 O9         110.3098 243.4397 325.4798 O.2            1 RES1               0.0000
     10 N10        109.5902 246.4785 322.9578 N.am           1 RES1               0.0000
     11 O11        108.1197 247.5123 324.3078 O.2            1 RES1               0.0000
     12 C12        110.6868 246.8768 326.3731 C.3            1 RES1               0.0000
     13 C13        105.4626 244.2612 324.1578 C.ar           1 RES1               0.0000
     14 C14        105.9879 243.3237 326.2849 C.ar           1 RES1               0.0000
     15 C15        110.3711 245.4275 322.5608 C.2            1 RES1               0.0000
     16 C16        105.1049 243.4832 325.2382 C.ar           1 RES1               0.0000
     17 O17        110.9543 245.4084 321.4807 O.2            1 RES1               0.0000
     18 H18        108.6195 246.6242 326.8751 H              1 RES1               0.0000
     19 H19        109.6268 245.1966 327.1748 H              1 RES1               0.0000
     20 H20        106.9650 245.4888 323.2659 H              1 RES1               0.0000
     21 H21        107.9061 243.8011 327.0875 H              1 RES1               0.0000
     22 H22        110.9748 243.5560 323.1111 H              1 RES1               0.0000
     23 H23        109.5481 247.2791 322.3351 H              1 RES1               0.0000
     24 H24        110.9585 247.2734 327.3490 H              1 RES1               0.0000
     25 H25        111.5270 246.2966 325.9972 H              1 RES1               0.0000
     26 H26        110.5257 247.7157 325.6992 H              1 RES1               0.0000
     27 H27        104.7707 244.3911 323.3322 H              1 RES1               0.0000
     28 H28        105.7103 242.7127 327.1375 H              1 RES1               0.0000
     29 H29        104.1340 242.9995 325.2648 H              1 RES1               0.0000
@<TRIPOS>BOND
    1    1    2 1     
    2    1    3 1     
    3    1    4 1     
    4    1    5 1     
    5    2    6 ar    
    6    2    7 ar    
    7    3    8 1     
    8    3    9 2     
    9    4   10 1     
   10    4   11 2     
   11    5   12 1     
   12    5   18 1     
   13    5   19 1     
   14    6   13 ar    
   15    6   20 1     
   16    7   14 ar    
   17    7   21 1     
   18    8   15 1     
   19    8   22 1     
   20   10   15 1     
   21   10   23 1     
   22   12   24 1     
   23   12   25 1     
   24   12   26 1     
   25   13   16 ar    
   26   13   27 1     
   27   14   16 ar    
   28   14   28 1     
   29   15   17 2     
   30   16   29 1     
@<TRIPOS>SUBSTRUCTURE
      1 RES1           1
@<TRIPOS>SET
DONOR_HYDROGENS      STATIC     ATOMS    <user>   **** ""
2 22 23
ATOM$RED        STATIC     ATOMS    COLORGROUP SYSTEM
2 22 23
@<TRIPOS>COMMENT
> <Gold.Version>
2022.3.0

> <Gold.Id.Protein>
unknown|5adf_clean|pdb

> <Gold.Protein.RotatedTorsions>
[ 8428 8423 8424 8425 ] final   65.57 input   46.96 | X-H torsion
[ 8452 8445 8446 8447 ] final  170.61 input  111.34 | X-H torsion
[ 8996 8992 8993 8994 ] final  -64.87 input   44.62 | X-H torsion
[ 9030 9016 9017 9018 ] final  134.08 input   32.56 | X-H torsion
[ 9077 9062 9063 9064 ] final  -12.97 input   99.28 | X-H torsion
[ 9085 9073 9072 9070 ] final  164.28 input   59.99 | X-H torsion
[ 9117 9100 9101 9102 ] final  -32.23 input   89.92 | X-H torsion
[ 9192 9177 9178 9179 ] final  154.70 input  116.56 | X-H torsion
[ 3601 3592 3593 3594 ] final -161.34 input   84.58 | X-H torsion
[ 8978 8972 8973 8974 ] final  108.14 input   29.23 | X-H torsion
[ 9137 9130 9131 9132 ] final   13.88 input  126.15 | X-H torsion
[ 4895 4885 4884 4881 ] final  -46.40 input   60.00 | X-H torsion
[ 8982 8977 8976 8973 ] final   37.67 input   60.00 | X-H torsion
[ 3579 3563 3564 3565 ] final   13.56 input  100.61 | X-H torsion
[ 3552 3542 3543 3544 ] final  -24.52 input   82.26 | X-H torsion
[ 8482 8476 8477 8478 ] final   -5.60 input   53.28 | X-H torsion
[ 8948 8937 8938 8939 ] final  146.90 input   48.32 | X-H torsion
[ 12881 12863 12862 12860 ] final -136.74 input   60.03 | X-H torsion
[ 5550 5545 5544 5541 ] final  144.50 input   60.00 | X-H torsion
[ 5574 5565 5566 5567 ] final   35.20 input   49.17 | X-H torsion
[ 8328 8319 8318 8316 ] final  128.96 input   60.00 | X-H torsion
[ 5546 5540 5541 5542 ] final  -87.38 input  103.84 | X-H torsion
[ 8513 8500 8501 8502 ] final -175.78 input   63.30 | X-H torsion
[ 8486 8481 8480 8477 ] final   59.89 input   60.02 | X-H torsion
[ 8545 8528 8529 8530 ] final  159.66 input   88.08 | X-H torsion
[ 12873 12852 12853 12854 ] final  -69.50 input  106.44 | X-H torsion
[ 12908 12891 12892 12893 ] final   64.54 input   37.87 | X-H torsion
[ 9225 9206 9207 9208 ] final  -29.04 input   89.32 | X-H torsion
[ 11050 11043 11044 11045 ] final   35.76 input   52.80 | X-H torsion
[ 5606 5598 5599 5600 ] final  -62.32 input  119.27 | X-H torsion
[ 8581 8562 8563 8564 ] final -176.40 input   68.50 | X-H torsion
[ 13460 8400 8399 8398 ] final  167.25 input   -0.00 | X-H torsion
[ 13464 8940 8939 8938 ] final  122.22 input   -0.00 | X-H torsion
[ 13467 8995 8994 8993 ] final -177.46 input    0.00 | X-H torsion
[ 13470 9019 9018 9017 ] final  -72.02 input    0.00 | X-H torsion
[ 13473 9065 9064 9063 ] final   10.91 input   -0.00 | X-H torsion
[ 13478 9103 9102 9101 ] final  106.51 input   -0.00 | X-H torsion
[ 13491 8975 8974 8973 ] final  137.44 input    0.00 | X-H torsion
[ 13493 8345 8344 8343 ] final  123.35 input    0.00 | X-H torsion
[ 13501 8448 8447 8446 ] final   16.33 input    0.00 | X-H torsion
[ 13503 3502 3501 3500 ] final  -13.27 input    0.00 | X-H torsion
[ 13506 8426 8425 8424 ] final  -23.15 input    0.00 | X-H torsion
[ 13514 5543 5542 5541 ] final  108.87 input   -0.00 | X-H torsion
[ 13525 9180 9179 9178 ] final  169.50 input    0.00 | X-H torsion
[ 13531 5517 5516 5515 ] final  -86.44 input    0.00 | X-H torsion
[ 13535 8503 8502 8501 ] final  -44.29 input   -0.00 | X-H torsion
[ 13538 5568 5567 5566 ] final  -65.40 input   -0.00 | X-H torsion
[ 13540 8479 8478 8477 ] final  -27.36 input   -0.00 | X-H torsion
[ 13545 12894 12893 12892 ] final  106.48 input    0.00 | X-H torsion
[ 13547 12822 12821 12820 ] final  -75.35 input   -0.00 | X-H torsion

> <Gold.Protein.ActiveResidues>
 TRP311  MET341  HIS342  TRP414  ALA417  ARG419  CYS420  VAL421  GLY422  LEU460 
 SER462  ASN481  SER482  GLN483  LEU484  ARG486  ALA502  ASN503  TRP566  TYR567 
 GLY568  LEU569  PRO570  ALA571  VAL572  SER573  ASN574  MET575  LEU576  PHE589 
 SER590  GLY591  TRP592  TYR593  MET594  GLY595  GLU597  ILE598  ARG601  ASP602 
 ARG608  ILE653  VAL654  TRP683  PHE709  GLU710  TYR711  GLN712  ASP714  HEM750 
 H4B760 

> <Gold.Protein.RotatedAtoms>
  120.7381  251.2387  330.0269 H   0  0  0  0  0  0  0  0  0  0  0  0  # atno 3552 bound_to 3542
  122.5754  248.3615  328.3015 H   0  0  0  0  0  0  0  0  0  0  0  0  # atno 3579 bound_to 3563
  124.3302  247.0428  328.1743 H   0  0  0  0  0  0  0  0  0  0  0  0  # atno 3601 bound_to 3592
  124.6120  245.5465  318.3855 H   0  0  0  0  0  0  0  0  0  0  0  0  # atno 4895 bound_to 4885
  106.4856  244.9766  317.4299 H   0  0  0  0  0  0  0  0  0  0  0  0  # atno 5546 bound_to 5540
  107.3222  243.0283  321.8265 H   0  0  0  0  0  0  0  0  0  0  0  0  # atno 5550 bound_to 5545
  108.4395  242.9249  318.3894 H   0  0  0  0  0  0  0  0  0  0  0  0  # atno 5574 bound_to 5565
  110.5771  242.5775  316.4552 H   0  0  0  0  0  0  0  0  0  0  0  0  # atno 5606 bound_to 5598
  112.9272  238.1893  321.8679 H   0  0  0  0  0  0  0  0  0  0  0  0  # atno 8328 bound_to 8319
  115.1077  241.7435  318.2585 H   0  0  0  0  0  0  0  0  0  0  0  0  # atno 8428 bound_to 8423
  115.1554  244.8281  319.3858 H   0  0  0  0  0  0  0  0  0  0  0  0  # atno 8452 bound_to 8445
  111.4035  247.3453  318.7546 H   0  0  0  0  0  0  0  0  0  0  0  0  # atno 8482 bound_to 8476
  109.1761  246.1473  316.6278 H   0  0  0  0  0  0  0  0  0  0  0  0  # atno 8486 bound_to 8481
  109.6899  248.1324  317.7046 H   0  0  0  0  0  0  0  0  0  0  0  0  # atno 8513 bound_to 8500
  110.4917  250.6116  319.7261 H   0  0  0  0  0  0  0  0  0  0  0  0  # atno 8545 bound_to 8528
  109.8592  254.5476  319.3947 H   0  0  0  0  0  0  0  0  0  0  0  0  # atno 8581 bound_to 8562
  115.6936  249.4703  315.7179 H   0  0  0  0  0  0  0  0  0  0  0  0  # atno 8948 bound_to 8937
  118.9049  246.7235  315.6091 H   0  0  0  0  0  0  0  0  0  0  0  0  # atno 8978 bound_to 8972
  120.9156  244.4751  315.3902 H   0  0  0  0  0  0  0  0  0  0  0  0  # atno 8982 bound_to 8977
  120.8091  244.0387  317.6619 H   0  0  0  0  0  0  0  0  0  0  0  0  # atno 8996 bound_to 8992
  123.6717  242.6462  319.9682 H   0  0  0  0  0  0  0  0  0  0  0  0  # atno 9030 bound_to 9016
  123.0182  239.7990  322.5829 H   0  0  0  0  0  0  0  0  0  0  0  0  # atno 9077 bound_to 9062
  115.1421  237.8153  321.4740 H   0  0  0  0  0  0  0  0  0  0  0  0  # atno 9085 bound_to 9073
  121.5723  238.9882  325.6008 H   0  0  0  0  0  0  0  0  0  0  0  0  # atno 9117 bound_to 9100
  122.0730  237.8665  328.9792 H   0  0  0  0  0  0  0  0  0  0  0  0  # atno 9137 bound_to 9130
  119.0517  238.4841  329.6161 H   0  0  0  0  0  0  0  0  0  0  0  0  # atno 9192 bound_to 9177
  116.6164  236.6093  329.0929 H   0  0  0  0  0  0  0  0  0  0  0  0  # atno 9225 bound_to 9206
  125.1526  237.6184  325.7469 H   0  0  0  0  0  0  0  0  0  0  0  0  # atno 11050 bound_to 11043
  110.3389  256.1529  323.5282 H   0  0  0  0  0  0  0  0  0  0  0  0  # atno 12873 bound_to 12852
  110.9909  251.6071  329.7018 H   0  0  0  0  0  0  0  0  0  0  0  0  # atno 12881 bound_to 12863
  107.0710  254.1611  322.3267 H   0  0  0  0  0  0  0  0  0  0  0  0  # atno 12908 bound_to 12891
  117.9731  243.6498  318.1192 LP  0  0  0  0  0  0  0  0  0  0  0  0  # atno 13460 bound_to 8400
  118.7683  242.7050  319.3337 LP  0  0  0  0  0  0  0  0  0  0  0  0  # atno 13461 bound_to 8400
  116.5761  242.4022  318.9364 LP  0  0  0  0  0  0  0  0  0  0  0  0  # atno 13462 bound_to 8423
  114.8739  245.3860  317.7529 LP  0  0  0  0  0  0  0  0  0  0  0  0  # atno 13463 bound_to 8445
  116.6686  245.5751  317.0515 LP  0  0  0  0  0  0  0  0  0  0  0  0  # atno 13464 bound_to 8940
  116.4355  246.9705  318.0507 LP  0  0  0  0  0  0  0  0  0  0  0  0  # atno 13465 bound_to 8940
  120.4349  244.8968  319.1400 LP  0  0  0  0  0  0  0  0  0  0  0  0  # atno 13466 bound_to 8992
  122.5593  240.8925  318.4256 LP  0  0  0  0  0  0  0  0  0  0  0  0  # atno 13467 bound_to 8995
  122.3092  242.2304  317.3544 LP  0  0  0  0  0  0  0  0  0  0  0  0  # atno 13468 bound_to 8995
  122.0961  242.8245  320.6983 LP  0  0  0  0  0  0  0  0  0  0  0  0  # atno 13469 bound_to 9016
  123.1457  242.1262  323.2553 LP  0  0  0  0  0  0  0  0  0  0  0  0  # atno 13470 bound_to 9019
  121.4169  242.0567  323.1756 LP  0  0  0  0  0  0  0  0  0  0  0  0  # atno 13471 bound_to 9019
  121.5491  239.3151  321.7666 LP  0  0  0  0  0  0  0  0  0  0  0  0  # atno 13472 bound_to 9062
  123.9053  238.5706  324.0152 LP  0  0  0  0  0  0  0  0  0  0  0  0  # atno 13473 bound_to 9065
  124.1274  238.6160  325.7324 LP  0  0  0  0  0  0  0  0  0  0  0  0  # atno 13474 bound_to 9065
  114.8534  238.9710  322.5828 LP  0  0  0  0  0  0  0  0  0  0  0  0  # atno 13475 bound_to 9073
  114.7189  237.3948  322.9881 LP  0  0  0  0  0  0  0  0  0  0  0  0  # atno 13476 bound_to 9073
  121.9202  240.6721  325.9214 LP  0  0  0  0  0  0  0  0  0  0  0  0  # atno 13477 bound_to 9100
  120.0323  237.5822  327.0457 LP  0  0  0  0  0  0  0  0  0  0  0  0  # atno 13478 bound_to 9103
  119.8772  238.6851  328.3722 LP  0  0  0  0  0  0  0  0  0  0  0  0  # atno 13479 bound_to 9103
  118.1323  237.0720  330.0655 LP  0  0  0  0  0  0  0  0  0  0  0  0  # atno 13480 bound_to 9177
  124.3010  248.6772  327.5612 LP  0  0  0  0  0  0  0  0  0  0  0  0  # atno 13489 bound_to 3592
  118.9776  247.3961  317.2193 LP  0  0  0  0  0  0  0  0  0  0  0  0  # atno 13490 bound_to 8972
  122.3634  246.4013  317.6045 LP  0  0  0  0  0  0  0  0  0  0  0  0  # atno 13491 bound_to 8975
  121.6725  246.0613  316.0530 LP  0  0  0  0  0  0  0  0  0  0  0  0  # atno 13492 bound_to 8975
  120.9472  237.5112  318.4484 LP  0  0  0  0  0  0  0  0  0  0  0  0  # atno 13493 bound_to 8345
  120.3793  236.7156  319.8783 LP  0  0  0  0  0  0  0  0  0  0  0  0  # atno 13494 bound_to 8345
  123.0181  237.1562  327.6906 LP  0  0  0  0  0  0  0  0  0  0  0  0  # atno 13495 bound_to 9130
  125.5100  246.7558  319.0020 LP  0  0  0  0  0  0  0  0  0  0  0  0  # atno 13496 bound_to 4885
  126.2187  245.5729  318.1272 LP  0  0  0  0  0  0  0  0  0  0  0  0  # atno 13497 bound_to 4885
  119.7368  244.9511  314.3747 LP  0  0  0  0  0  0  0  0  0  0  0  0  # atno 13498 bound_to 8977
  120.0471  243.3614  314.5822 LP  0  0  0  0  0  0  0  0  0  0  0  0  # atno 13499 bound_to 8977
  122.0619  248.9069  329.8827 LP  0  0  0  0  0  0  0  0  0  0  0  0  # atno 13500 bound_to 3563
  114.8211  247.6704  317.5668 LP  0  0  0  0  0  0  0  0  0  0  0  0  # atno 13501 bound_to 8448
  113.5037  248.6164  316.9590 LP  0  0  0  0  0  0  0  0  0  0  0  0  # atno 13502 bound_to 8448
  118.8365  249.4190  331.1325 LP  0  0  0  0  0  0  0  0  0  0  0  0  # atno 13503 bound_to 3502
  119.7606  248.8473  329.7838 LP  0  0  0  0  0  0  0  0  0  0  0  0  # atno 13504 bound_to 3502
  119.8042  251.6525  328.6100 LP  0  0  0  0  0  0  0  0  0  0  0  0  # atno 13505 bound_to 3542
  113.3493  243.7984  316.3466 LP  0  0  0  0  0  0  0  0  0  0  0  0  # atno 13506 bound_to 8426
  112.5171  244.4964  317.6958 LP  0  0  0  0  0  0  0  0  0  0  0  0  # atno 13507 bound_to 8426
  112.4278  246.3734  317.7287 LP  0  0  0  0  0  0  0  0  0  0  0  0  # atno 13510 bound_to 8476
  115.5874  247.7422  315.4841 LP  0  0  0  0  0  0  0  0  0  0  0  0  # atno 13511 bound_to 8937
  110.4620  245.3692  320.1759 LP  0  0  0  0  0  0  0  0  0  0  0  0  # atno 13514 bound_to 5543
  109.9865  246.3578  318.8356 LP  0  0  0  0  0  0  0  0  0  0  0  0  # atno 13515 bound_to 5543
  112.2070  251.7563  328.6307 LP  0  0  0  0  0  0  0  0  0  0  0  0  # atno 13516 bound_to 12863
  111.1333  250.5345  328.4862 LP  0  0  0  0  0  0  0  0  0  0  0  0  # atno 13517 bound_to 12863
  107.7022  242.8571  320.2536 LP  0  0  0  0  0  0  0  0  0  0  0  0  # atno 13518 bound_to 5545
  106.1374  242.8959  320.7190 LP  0  0  0  0  0  0  0  0  0  0  0  0  # atno 13519 bound_to 5545
  109.1141  244.3435  319.1596 LP  0  0  0  0  0  0  0  0  0  0  0  0  # atno 13520 bound_to 5565
  111.5221  237.3868  321.6937 LP  0  0  0  0  0  0  0  0  0  0  0  0  # atno 13523 bound_to 8319
  111.8966  238.6124  320.6816 LP  0  0  0  0  0  0  0  0  0  0  0  0  # atno 13524 bound_to 8319
  114.2896  236.7783  328.2078 LP  0  0  0  0  0  0  0  0  0  0  0  0  # atno 13525 bound_to 9180
  114.4698  238.2527  329.0987 LP  0  0  0  0  0  0  0  0  0  0  0  0  # atno 13526 bound_to 9180
  106.2382  243.5735  318.4384 LP  0  0  0  0  0  0  0  0  0  0  0  0  # atno 13529 bound_to 5540
  110.7150  249.2674  318.5403 LP  0  0  0  0  0  0  0  0  0  0  0  0  # atno 13530 bound_to 8500
  108.1623  245.9500  316.4126 LP  0  0  0  0  0  0  0  0  0  0  0  0  # atno 13531 bound_to 5517
  106.8246  246.9284  316.9159 LP  0  0  0  0  0  0  0  0  0  0  0  0  # atno 13532 bound_to 5517
  110.5124  245.2693  316.9318 LP  0  0  0  0  0  0  0  0  0  0  0  0  # atno 13533 bound_to 8481
  109.7044  245.0717  315.5265 LP  0  0  0  0  0  0  0  0  0  0  0  0  # atno 13534 bound_to 8481
  107.2302  251.9532  319.3334 LP  0  0  0  0  0  0  0  0  0  0  0  0  # atno 13535 bound_to 8503
  108.2457  252.1825  320.7176 LP  0  0  0  0  0  0  0  0  0  0  0  0  # atno 13536 bound_to 8503
  109.7609  251.5044  318.4181 LP  0  0  0  0  0  0  0  0  0  0  0  0  # atno 13537 bound_to 8528
  108.9991  241.1792  316.8804 LP  0  0  0  0  0  0  0  0  0  0  0  0  # atno 13538 bound_to 5568
  108.7014  242.3942  315.6823 LP  0  0  0  0  0  0  0  0  0  0  0  0  # atno 13539 bound_to 5568
  109.9362  249.4417  315.1644 LP  0  0  0  0  0  0  0  0  0  0  0  0  # atno 13540 bound_to 8479
  108.5335  249.5772  316.1716 LP  0  0  0  0  0  0  0  0  0  0  0  0  # atno 13541 bound_to 8479
  104.2848  253.1783  323.3408 LP  0  0  0  0  0  0  0  0  0  0  0  0  # atno 13545 bound_to 12894
  104.8835  252.8360  321.7520 LP  0  0  0  0  0  0  0  0  0  0  0  0  # atno 13546 bound_to 12894
  110.1553  255.9700  321.4415 LP  0  0  0  0  0  0  0  0  0  0  0  0  # atno 13547 bound_to 12822
  110.8461  254.5877  322.2239 LP  0  0  0  0  0  0  0  0  0  0  0  0  # atno 13548 bound_to 12822
  109.9468  256.3679  325.2168 LP  0  0  0  0  0  0  0  0  0  0  0  0  # atno 13549 bound_to 12852
  107.0655  255.5166  323.4302 LP  0  0  0  0  0  0  0  0  0  0  0  0  # atno 13550 bound_to 12891

> <Gold.Score>
     Fitness  S(hb_ext) S(vdw_ext)  S(hb_int)    S(int)      intcor
     31.24      13.42      13.84       0.00      -1.21      -0.76

> <Gold.Goldscore.Fitness>
31.2365

> <Gold.Goldscore.Internal.Vdw>
-1.4845

> <Gold.Goldscore.Internal.Torsion>
-0.4948

> <Gold.Goldscore.External.Vdw>
13.8406

> <Gold.Goldscore.Internal.HBond>
0.0000

> <Gold.Goldscore.External.HBond>
13.4200

> <Gold.Goldscore.Internal.Correction>
-0.7650

> <Gold.Goldscore.Hbonds>
donor molecule, donor type, donor heavy atom, donor atom, acceptor molecule, acceptor atom, score
      P1  H  8506  8517       L1    11  0.71
      L1  H     8    22       P1  5573  1.00
      L1  H    10    23       P1  8507  1.00

> <Gold.Goldscore.Internal.Vdw.Weighted>
-1.4845

> <Gold.Goldscore.Internal.Torsion.Weighted>
-0.4948

> <Gold.Goldscore.External.Vdw.Weighted>
19.0308

> <Gold.Goldscore.Internal.HBond.Weighted>
0.0000

> <Gold.Goldscore.External.HBond.Weighted>
13.4200

> <Gold.Goldscore.Internal.Correction.Weighted>
-0.7650

> <Gold.Rescore>
     Score     S(PLP)   S(hbond)     S(cho)   S(metal)  DE(clash)   DE(tors)     intcor
     17.13     -11.02       2.80       0.00       0.00       1.57       0.37       ----

> <Gold.PLP.Fitness>
17.1253

> <Gold.PLP.PLP>
-11.0243

> <Gold.PLP.part.hbond>
-2.6605

> <Gold.PLP.part.metal>
0.0000

> <Gold.PLP.part.buried>
-1.0388

> <Gold.PLP.part.nonpolar>
-11.7005

> <Gold.PLP.part.repulsive>
4.2198

> <Gold.PLP.ligand.clash>
1.5746

> <Gold.PLP.ligand.torsion>
0.3678

> <Gold.PLP.Chemscore.Hbond>
2.8037

> <Gold.PLP.Chemscore.CHOScore>
0.0000

> <Gold.PLP.Chemscore.Metal>
0.0000

> <Gold.Chemscore.Hbonds>
donor molecule, donor type, donor heavy atom, donor atom, acceptor molecule, acceptor atom, score
      L1  H     8    22       P1  5573  0.96
      L1  H    10    23       P1  8507  0.95
      P1  H  8506  8517       L1    11  1.00

> <Gold.PLP.Chemscore.Internal.Correction>
   9.000000E+99

