#       Name:                CT1002167954
#       Creating user name   hitesit
#       Creation time:       Sun Apr 16 20:17:48 2023


#       File generated by GOLD software.
#

@<TRIPOS>MOLECULE
CT1002167954|ligand_prepared|mol2|1|dock9
    29    30     1
SMALL
NO_CHARGES


@<TRIPOS>ATOM
      1 C1         113.0779 241.2342 325.9328 C.3            1 RES1               0.0000
      2 C2         112.5281 241.3782 327.3665 C.ar           1 RES1               0.0000
      3 C3         113.6194 239.8119 325.8225 C.2            1 RES1               0.0000
      4 C4         111.9113 241.5300 324.9968 C.2            1 RES1               0.0000
      5 C5         114.2202 242.2219 325.5994 C.3            1 RES1               0.0000
      6 C6         113.3439 241.8397 328.3953 C.ar           1 RES1               0.0000
      7 C7         111.2089 241.0567 327.6748 C.ar           1 RES1               0.0000
      8 N8         112.8946 238.9145 325.0950 N.am           1 RES1               0.0000
      9 O9         114.6462 239.4727 326.3977 O.2            1 RES1               0.0000
     10 N10        111.4428 240.5090 324.2120 N.am           1 RES1               0.0000
     11 O11        111.3826 242.6336 324.9439 O.2            1 RES1               0.0000
     12 C12        114.5726 242.2754 324.1212 C.3            1 RES1               0.0000
     13 C13        112.8578 241.9777 329.6848 C.ar           1 RES1               0.0000
     14 C14        110.7249 241.1952 328.9652 C.ar           1 RES1               0.0000
     15 C15        111.8616 239.2067 324.2410 C.2            1 RES1               0.0000
     16 C16        111.5480 241.6560 329.9706 C.ar           1 RES1               0.0000
     17 O17        111.3540 238.3334 323.5432 O.2            1 RES1               0.0000
     18 H18        113.9261 243.2260 325.9289 H              1 RES1               0.0000
     19 H19        115.1142 241.9318 326.1652 H              1 RES1               0.0000
     20 H20        114.3780 242.0955 328.1899 H              1 RES1               0.0000
     21 H21        110.5435 240.6913 326.9000 H              1 RES1               0.0000
     22 H22        113.1435 237.9355 325.1954 H              1 RES1               0.0000
     23 H23        110.7146 240.7414 323.5441 H              1 RES1               0.0000
     24 H24        115.3793 242.9832 323.9424 H              1 RES1               0.0000
     25 H25        114.8939 241.2986 323.7656 H              1 RES1               0.0000
     26 H26        113.7128 242.5851 323.5307 H              1 RES1               0.0000
     27 H27        113.5101 242.3394 330.4728 H              1 RES1               0.0000
     28 H28        109.6936 240.9402 329.1856 H              1 RES1               0.0000
     29 H29        111.1674 241.7645 330.9808 H              1 RES1               0.0000
@<TRIPOS>BOND
    1    1    2 1     
    2    1    3 1     
    3    1    4 1     
    4    1    5 1     
    5    2    6 ar    
    6    2    7 ar    
    7    3    8 1     
    8    3    9 2     
    9    4   10 1     
   10    4   11 2     
   11    5   12 1     
   12    5   18 1     
   13    5   19 1     
   14    6   13 ar    
   15    6   20 1     
   16    7   14 ar    
   17    7   21 1     
   18    8   15 1     
   19    8   22 1     
   20   10   15 1     
   21   10   23 1     
   22   12   24 1     
   23   12   25 1     
   24   12   26 1     
   25   13   16 ar    
   26   13   27 1     
   27   14   16 ar    
   28   14   28 1     
   29   15   17 2     
   30   16   29 1     
@<TRIPOS>SUBSTRUCTURE
      1 RES1           1
@<TRIPOS>SET
DONOR_HYDROGENS      STATIC     ATOMS    <user>   **** ""
2 22 23
ATOM$RED        STATIC     ATOMS    COLORGROUP SYSTEM
2 22 23
@<TRIPOS>COMMENT
> <Gold.Version>
2022.3.0

> <Gold.Id.Protein>
unknown|5adf_clean|pdb

> <Gold.Protein.RotatedTorsions>
[ 8428 8423 8424 8425 ] final   88.39 input   46.96 | X-H torsion
[ 8452 8445 8446 8447 ] final  -15.44 input  111.34 | X-H torsion
[ 8996 8992 8993 8994 ] final -151.75 input   44.62 | X-H torsion
[ 9030 9016 9017 9018 ] final -162.02 input   32.56 | X-H torsion
[ 9077 9062 9063 9064 ] final  -29.86 input   99.28 | X-H torsion
[ 9085 9073 9072 9070 ] final   28.86 input   59.99 | X-H torsion
[ 9117 9100 9101 9102 ] final   83.76 input   89.92 | X-H torsion
[ 9192 9177 9178 9179 ] final  -69.77 input  116.56 | X-H torsion
[ 3601 3592 3593 3594 ] final  164.16 input   84.58 | X-H torsion
[ 8978 8972 8973 8974 ] final  145.48 input   29.23 | X-H torsion
[ 9137 9130 9131 9132 ] final  -96.45 input  126.15 | X-H torsion
[ 4895 4885 4884 4881 ] final   83.79 input   60.00 | X-H torsion
[ 8982 8977 8976 8973 ] final   32.97 input   60.00 | X-H torsion
[ 3579 3563 3564 3565 ] final -158.29 input  100.61 | X-H torsion
[ 3552 3542 3543 3544 ] final -132.96 input   82.26 | X-H torsion
[ 8482 8476 8477 8478 ] final   58.70 input   53.28 | X-H torsion
[ 8948 8937 8938 8939 ] final -136.17 input   48.32 | X-H torsion
[ 12881 12863 12862 12860 ] final  139.25 input   60.03 | X-H torsion
[ 5550 5545 5544 5541 ] final  -33.61 input   60.00 | X-H torsion
[ 5574 5565 5566 5567 ] final -179.97 input   49.17 | X-H torsion
[ 8328 8319 8318 8316 ] final -158.98 input   60.00 | X-H torsion
[ 5546 5540 5541 5542 ] final -125.52 input  103.84 | X-H torsion
[ 8513 8500 8501 8502 ] final  -79.98 input   63.30 | X-H torsion
[ 8486 8481 8480 8477 ] final  -67.80 input   60.02 | X-H torsion
[ 8545 8528 8529 8530 ] final  -90.41 input   88.08 | X-H torsion
[ 12873 12852 12853 12854 ] final  -56.61 input  106.44 | X-H torsion
[ 12908 12891 12892 12893 ] final  128.80 input   37.87 | X-H torsion
[ 9225 9206 9207 9208 ] final -163.33 input   89.32 | X-H torsion
[ 11050 11043 11044 11045 ] final -172.30 input   52.80 | X-H torsion
[ 5606 5598 5599 5600 ] final   23.25 input  119.27 | X-H torsion
[ 8581 8562 8563 8564 ] final   72.82 input   68.50 | X-H torsion
[ 13460 8400 8399 8398 ] final   69.43 input   -0.00 | X-H torsion
[ 13464 8940 8939 8938 ] final  -32.61 input   -0.00 | X-H torsion
[ 13467 8995 8994 8993 ] final -110.15 input    0.00 | X-H torsion
[ 13470 9019 9018 9017 ] final -146.47 input    0.00 | X-H torsion
[ 13473 9065 9064 9063 ] final  144.55 input   -0.00 | X-H torsion
[ 13478 9103 9102 9101 ] final  148.28 input   -0.00 | X-H torsion
[ 13491 8975 8974 8973 ] final  -25.97 input    0.00 | X-H torsion
[ 13493 8345 8344 8343 ] final   -8.24 input    0.00 | X-H torsion
[ 13501 8448 8447 8446 ] final -148.78 input    0.00 | X-H torsion
[ 13503 3502 3501 3500 ] final -156.52 input    0.00 | X-H torsion
[ 13506 8426 8425 8424 ] final -136.65 input    0.00 | X-H torsion
[ 13514 5543 5542 5541 ] final  -30.75 input   -0.00 | X-H torsion
[ 13525 9180 9179 9178 ] final -138.74 input    0.00 | X-H torsion
[ 13531 5517 5516 5515 ] final   63.84 input    0.00 | X-H torsion
[ 13535 8503 8502 8501 ] final   -8.73 input   -0.00 | X-H torsion
[ 13538 5568 5567 5566 ] final  162.55 input   -0.00 | X-H torsion
[ 13540 8479 8478 8477 ] final   94.21 input   -0.00 | X-H torsion
[ 13545 12894 12893 12892 ] final  -82.89 input    0.00 | X-H torsion
[ 13547 12822 12821 12820 ] final  -28.89 input   -0.00 | X-H torsion

> <Gold.Protein.ActiveResidues>
 TRP311  MET341  HIS342  TRP414  ALA417  ARG419  CYS420  VAL421  GLY422  LEU460 
 SER462  ASN481  SER482  GLN483  LEU484  ARG486  ALA502  ASN503  TRP566  TYR567 
 GLY568  LEU569  PRO570  ALA571  VAL572  SER573  ASN574  MET575  LEU576  PHE589 
 SER590  GLY591  TRP592  TYR593  MET594  GLY595  GLU597  ILE598  ARG601  ASP602 
 ARG608  ILE653  VAL654  TRP683  PHE709  GLU710  TYR711  GLN712  ASP714  HEM750 
 H4B760 

> <Gold.Protein.RotatedAtoms>
  119.5323  250.9585  329.3082 H   0  0  0  0  0  0  0  0  0  0  0  0  # atno 3552 bound_to 3542
  122.1235  249.0198  329.8839 H   0  0  0  0  0  0  0  0  0  0  0  0  # atno 3579 bound_to 3563
  123.9351  247.0737  327.8345 H   0  0  0  0  0  0  0  0  0  0  0  0  # atno 3601 bound_to 3592
  126.2929  245.7062  318.1957 H   0  0  0  0  0  0  0  0  0  0  0  0  # atno 4895 bound_to 4885
  106.0216  245.0613  317.7591 H   0  0  0  0  0  0  0  0  0  0  0  0  # atno 5546 bound_to 5540
  106.8168  242.8281  320.0354 H   0  0  0  0  0  0  0  0  0  0  0  0  # atno 5550 bound_to 5545
  109.1738  243.9551  319.5143 H   0  0  0  0  0  0  0  0  0  0  0  0  # atno 5574 bound_to 5565
  111.6201  242.0040  316.6034 H   0  0  0  0  0  0  0  0  0  0  0  0  # atno 5606 bound_to 5598
  112.5714  238.7700  321.0023 H   0  0  0  0  0  0  0  0  0  0  0  0  # atno 8328 bound_to 8319
  115.3486  241.6104  318.0439 H   0  0  0  0  0  0  0  0  0  0  0  0  # atno 8428 bound_to 8423
  114.8046  245.3262  317.7251 H   0  0  0  0  0  0  0  0  0  0  0  0  # atno 8452 bound_to 8445
  111.1213  246.5252  318.4022 H   0  0  0  0  0  0  0  0  0  0  0  0  # atno 8482 bound_to 8476
  110.5439  245.1920  316.8371 H   0  0  0  0  0  0  0  0  0  0  0  0  # atno 8486 bound_to 8481
  110.3776  249.1967  317.4237 H   0  0  0  0  0  0  0  0  0  0  0  0  # atno 8513 bound_to 8500
  109.2795  251.2146  319.2469 H   0  0  0  0  0  0  0  0  0  0  0  0  # atno 8545 bound_to 8528
  110.5984  255.2355  320.4455 H   0  0  0  0  0  0  0  0  0  0  0  0  # atno 8581 bound_to 8562
  115.8330  248.8961  314.7916 H   0  0  0  0  0  0  0  0  0  0  0  0  # atno 8948 bound_to 8937
  118.3911  246.6930  315.8411 H   0  0  0  0  0  0  0  0  0  0  0  0  # atno 8978 bound_to 8972
  120.8987  244.5490  315.3784 H   0  0  0  0  0  0  0  0  0  0  0  0  # atno 8982 bound_to 8977
  120.9016  245.2087  318.0001 H   0  0  0  0  0  0  0  0  0  0  0  0  # atno 8996 bound_to 8992
  122.8864  242.5465  319.4768 H   0  0  0  0  0  0  0  0  0  0  0  0  # atno 9030 bound_to 9016
  122.9030  240.0323  322.5700 H   0  0  0  0  0  0  0  0  0  0  0  0  # atno 9077 bound_to 9062
  114.7941  238.8684  322.8054 H   0  0  0  0  0  0  0  0  0  0  0  0  # atno 9085 bound_to 9073
  121.1113  240.2988  326.1795 H   0  0  0  0  0  0  0  0  0  0  0  0  # atno 9117 bound_to 9100
  122.1249  237.5824  327.5529 H   0  0  0  0  0  0  0  0  0  0  0  0  # atno 9137 bound_to 9130
  118.1023  237.5380  330.5320 H   0  0  0  0  0  0  0  0  0  0  0  0  # atno 9192 bound_to 9177
  116.6812  237.0712  327.5173 H   0  0  0  0  0  0  0  0  0  0  0  0  # atno 9225 bound_to 9206
  126.5114  237.5893  324.7140 H   0  0  0  0  0  0  0  0  0  0  0  0  # atno 11050 bound_to 11043
  110.2245  256.3130  323.5043 H   0  0  0  0  0  0  0  0  0  0  0  0  # atno 12873 bound_to 12852
  112.0070  252.0298  329.1022 H   0  0  0  0  0  0  0  0  0  0  0  0  # atno 12881 bound_to 12863
  107.5622  254.9458  322.1579 H   0  0  0  0  0  0  0  0  0  0  0  0  # atno 12908 bound_to 12891
  118.7351  242.5930  318.2014 LP  0  0  0  0  0  0  0  0  0  0  0  0  # atno 13460 bound_to 8400
  118.0063  243.7618  319.2515 LP  0  0  0  0  0  0  0  0  0  0  0  0  # atno 13461 bound_to 8400
  116.3401  242.5327  319.1467 LP  0  0  0  0  0  0  0  0  0  0  0  0  # atno 13462 bound_to 8423
  115.2155  244.9009  319.3704 LP  0  0  0  0  0  0  0  0  0  0  0  0  # atno 13463 bound_to 8445
  116.1997  247.0349  317.7632 LP  0  0  0  0  0  0  0  0  0  0  0  0  # atno 13464 bound_to 8940
  116.9044  245.5107  317.3390 LP  0  0  0  0  0  0  0  0  0  0  0  0  # atno 13465 bound_to 8940
  120.3452  243.7620  318.8119 LP  0  0  0  0  0  0  0  0  0  0  0  0  # atno 13466 bound_to 8992
  121.6957  241.2630  318.2299 LP  0  0  0  0  0  0  0  0  0  0  0  0  # atno 13467 bound_to 8995
  123.1728  241.8600  317.5502 LP  0  0  0  0  0  0  0  0  0  0  0  0  # atno 13468 bound_to 8995
  122.8682  242.9226  321.1814 LP  0  0  0  0  0  0  0  0  0  0  0  0  # atno 13469 bound_to 9016
  122.5015  241.6114  323.9018 LP  0  0  0  0  0  0  0  0  0  0  0  0  # atno 13470 bound_to 9019
  122.0610  242.5715  322.5291 LP  0  0  0  0  0  0  0  0  0  0  0  0  # atno 13471 bound_to 9019
  121.6610  239.0884  321.7792 LP  0  0  0  0  0  0  0  0  0  0  0  0  # atno 13472 bound_to 9062
  124.3145  239.1936  325.4222 LP  0  0  0  0  0  0  0  0  0  0  0  0  # atno 13473 bound_to 9065
  123.7181  237.9930  324.3255 LP  0  0  0  0  0  0  0  0  0  0  0  0  # atno 13474 bound_to 9065
  114.7696  237.2412  322.7939 LP  0  0  0  0  0  0  0  0  0  0  0  0  # atno 13475 bound_to 9073
  115.1530  238.0645  321.4367 LP  0  0  0  0  0  0  0  0  0  0  0  0  # atno 13476 bound_to 9073
  122.3677  239.3996  325.3595 LP  0  0  0  0  0  0  0  0  0  0  0  0  # atno 13477 bound_to 9100
  119.9645  237.2776  327.5784 LP  0  0  0  0  0  0  0  0  0  0  0  0  # atno 13478 bound_to 9103
  119.9450  238.9897  327.8395 LP  0  0  0  0  0  0  0  0  0  0  0  0  # atno 13479 bound_to 9103
  119.0708  238.0074  329.1599 LP  0  0  0  0  0  0  0  0  0  0  0  0  # atno 13480 bound_to 9177
  124.6895  248.6469  327.8953 LP  0  0  0  0  0  0  0  0  0  0  0  0  # atno 13489 bound_to 3592
  119.4813  247.4260  316.9919 LP  0  0  0  0  0  0  0  0  0  0  0  0  # atno 13490 bound_to 8972
  121.5381  246.2646  316.1086 LP  0  0  0  0  0  0  0  0  0  0  0  0  # atno 13491 bound_to 8975
  122.4979  246.1981  317.5489 LP  0  0  0  0  0  0  0  0  0  0  0  0  # atno 13492 bound_to 8975
  120.8965  236.3681  319.5377 LP  0  0  0  0  0  0  0  0  0  0  0  0  # atno 13493 bound_to 8345
  120.4299  237.8587  318.7890 LP  0  0  0  0  0  0  0  0  0  0  0  0  # atno 13494 bound_to 8345
  122.9676  237.4325  329.0779 LP  0  0  0  0  0  0  0  0  0  0  0  0  # atno 13495 bound_to 9130
  124.6926  245.4279  318.2995 LP  0  0  0  0  0  0  0  0  0  0  0  0  # atno 13496 bound_to 4885
  125.3444  246.7401  319.0207 LP  0  0  0  0  0  0  0  0  0  0  0  0  # atno 13497 bound_to 4885
  119.6971  244.8961  314.3378 LP  0  0  0  0  0  0  0  0  0  0  0  0  # atno 13498 bound_to 8977
  120.1038  243.3420  314.6310 LP  0  0  0  0  0  0  0  0  0  0  0  0  # atno 13499 bound_to 8977
  122.4998  248.2688  328.3491 LP  0  0  0  0  0  0  0  0  0  0  0  0  # atno 13500 bound_to 3563
  113.5383  248.7327  317.1479 LP  0  0  0  0  0  0  0  0  0  0  0  0  # atno 13501 bound_to 8448
  114.7865  247.5541  317.3779 LP  0  0  0  0  0  0  0  0  0  0  0  0  # atno 13502 bound_to 8448
  120.0982  248.9145  330.2076 LP  0  0  0  0  0  0  0  0  0  0  0  0  # atno 13503 bound_to 3502
  118.4989  249.3517  330.7086 LP  0  0  0  0  0  0  0  0  0  0  0  0  # atno 13504 bound_to 3502
  120.9858  251.9271  329.3142 LP  0  0  0  0  0  0  0  0  0  0  0  0  # atno 13505 bound_to 3542
  112.8058  245.0006  316.9447 LP  0  0  0  0  0  0  0  0  0  0  0  0  # atno 13506 bound_to 8426
  113.0606  243.2942  317.0978 LP  0  0  0  0  0  0  0  0  0  0  0  0  # atno 13507 bound_to 8426
  112.7056  247.1806  318.0755 LP  0  0  0  0  0  0  0  0  0  0  0  0  # atno 13510 bound_to 8476
  115.4511  248.3041  316.3904 LP  0  0  0  0  0  0  0  0  0  0  0  0  # atno 13511 bound_to 8937
  109.6859  246.5179  319.3269 LP  0  0  0  0  0  0  0  0  0  0  0  0  # atno 13514 bound_to 5543
  110.7626  245.2091  319.6846 LP  0  0  0  0  0  0  0  0  0  0  0  0  # atno 13515 bound_to 5543
  111.6056  250.7310  328.2074 LP  0  0  0  0  0  0  0  0  0  0  0  0  # atno 13516 bound_to 12863
  110.7117  251.1344  329.5131 LP  0  0  0  0  0  0  0  0  0  0  0  0  # atno 13517 bound_to 12863
  106.3847  242.9939  321.5954 LP  0  0  0  0  0  0  0  0  0  0  0  0  # atno 13518 bound_to 5545
  107.9641  242.9609  321.1816 LP  0  0  0  0  0  0  0  0  0  0  0  0  # atno 13519 bound_to 5545
  108.4017  243.3440  318.0683 LP  0  0  0  0  0  0  0  0  0  0  0  0  # atno 13520 bound_to 5565
  112.5023  237.6237  322.1554 LP  0  0  0  0  0  0  0  0  0  0  0  0  # atno 13523 bound_to 8319
  111.2747  237.7907  321.0916 LP  0  0  0  0  0  0  0  0  0  0  0  0  # atno 13524 bound_to 8319
  114.3292  236.7070  328.9594 LP  0  0  0  0  0  0  0  0  0  0  0  0  # atno 13525 bound_to 9180
  114.4302  238.3240  328.3471 LP  0  0  0  0  0  0  0  0  0  0  0  0  # atno 13526 bound_to 9180
  106.6943  243.4903  318.1149 LP  0  0  0  0  0  0  0  0  0  0  0  0  # atno 13529 bound_to 5540
  110.0324  248.2111  318.8191 LP  0  0  0  0  0  0  0  0  0  0  0  0  # atno 13530 bound_to 8500
  106.7517  246.8487  316.4852 LP  0  0  0  0  0  0  0  0  0  0  0  0  # atno 13531 bound_to 5517
  108.2352  246.0297  316.8433 LP  0  0  0  0  0  0  0  0  0  0  0  0  # atno 13532 bound_to 5517
  109.6017  245.1434  315.5108 LP  0  0  0  0  0  0  0  0  0  0  0  0  # atno 13533 bound_to 8481
  109.2385  246.1590  316.7369 LP  0  0  0  0  0  0  0  0  0  0  0  0  # atno 13534 bound_to 8481
  107.1360  251.5566  319.6702 LP  0  0  0  0  0  0  0  0  0  0  0  0  # atno 13535 bound_to 8503
  108.3400  252.5792  320.3807 LP  0  0  0  0  0  0  0  0  0  0  0  0  # atno 13536 bound_to 8503
  110.9594  250.9082  318.8919 LP  0  0  0  0  0  0  0  0  0  0  0  0  # atno 13537 bound_to 8528
  109.0509  241.8333  315.4402 LP  0  0  0  0  0  0  0  0  0  0  0  0  # atno 13538 bound_to 5568
  108.6497  241.7401  317.1226 LP  0  0  0  0  0  0  0  0  0  0  0  0  # atno 13539 bound_to 5568
  108.6345  248.8859  315.6955 LP  0  0  0  0  0  0  0  0  0  0  0  0  # atno 13540 bound_to 8479
  109.8352  250.1330  315.6405 LP  0  0  0  0  0  0  0  0  0  0  0  0  # atno 13541 bound_to 8479
  104.7486  252.8075  321.7199 LP  0  0  0  0  0  0  0  0  0  0  0  0  # atno 13545 bound_to 12894
  104.4197  253.2068  323.3729 LP  0  0  0  0  0  0  0  0  0  0  0  0  # atno 13546 bound_to 12894
  110.8376  255.9562  321.4111 LP  0  0  0  0  0  0  0  0  0  0  0  0  # atno 13547 bound_to 12822
  110.1638  254.6015  322.2543 LP  0  0  0  0  0  0  0  0  0  0  0  0  # atno 13548 bound_to 12822
  110.0587  256.2112  325.2402 LP  0  0  0  0  0  0  0  0  0  0  0  0  # atno 13549 bound_to 12852
  106.5862  254.7510  323.5949 LP  0  0  0  0  0  0  0  0  0  0  0  0  # atno 13550 bound_to 12891

> <Gold.Score>
     Fitness  S(hb_ext) S(vdw_ext)  S(hb_int)    S(int)      intcor
     34.47       2.40      23.76       0.00      -0.61      -0.76

> <Gold.Goldscore.Fitness>
34.4702

> <Gold.Goldscore.Internal.Vdw>
-0.7998

> <Gold.Goldscore.Internal.Torsion>
-0.5703

> <Gold.Goldscore.External.Vdw>
23.7618

> <Gold.Goldscore.Internal.HBond>
0.0000

> <Gold.Goldscore.External.HBond>
2.4030

> <Gold.Goldscore.Internal.Correction>
-0.7650

> <Gold.Goldscore.Hbonds>
donor molecule, donor type, donor heavy atom, donor atom, acceptor molecule, acceptor atom, score
      P1  H  9513  9525       L1    17  0.01
      L1  H     8    22       P1  9345  0.39

> <Gold.Goldscore.Internal.Vdw.Weighted>
-0.7998

> <Gold.Goldscore.Internal.Torsion.Weighted>
-0.5703

> <Gold.Goldscore.External.Vdw.Weighted>
32.6724

> <Gold.Goldscore.Internal.HBond.Weighted>
0.0000

> <Gold.Goldscore.External.HBond.Weighted>
2.4030

> <Gold.Goldscore.Internal.Correction.Weighted>
-0.7650

> <Gold.Rescore>
     Score     S(PLP)   S(hbond)     S(cho)   S(metal)  DE(clash)   DE(tors)     intcor
     17.89     -18.24       0.84       0.00       0.00       1.59       0.64       ----

> <Gold.PLP.Fitness>
17.8888

> <Gold.PLP.PLP>
-18.2406

> <Gold.PLP.part.hbond>
-4.6222

> <Gold.PLP.part.metal>
0.0000

> <Gold.PLP.part.buried>
6.2345

> <Gold.PLP.part.nonpolar>
-23.6537

> <Gold.PLP.part.repulsive>
2.6027

> <Gold.PLP.ligand.clash>
1.5863

> <Gold.PLP.ligand.torsion>
0.6396

> <Gold.PLP.Chemscore.Hbond>
0.8379

> <Gold.PLP.Chemscore.CHOScore>
0.0000

> <Gold.PLP.Chemscore.Metal>
0.0000

> <Gold.Chemscore.Hbonds>
donor molecule, donor type, donor heavy atom, donor atom, acceptor molecule, acceptor atom, score
      L1  H     8    22       P1  9345  0.71

> <Gold.PLP.Chemscore.Internal.Correction>
   9.000000E+99

