#       Name:                CT1002167954
#       Creating user name   hitesit
#       Creation time:       Sun Apr 16 20:17:43 2023


#       File generated by GOLD software.
#

@<TRIPOS>MOLECULE
CT1002167954|ligand_prepared|mol2|1|dock4
    29    30     1
SMALL
NO_CHARGES


@<TRIPOS>ATOM
      1 C1         111.4701 245.9230 324.8140 C.3            1 RES1               0.0000
      2 C2         113.0112 245.9030 324.8732 C.ar           1 RES1               0.0000
      3 C3         111.0066 246.7627 326.0007 C.2            1 RES1               0.0000
      4 C4         111.1030 246.5099 323.4555 C.2            1 RES1               0.0000
      5 C5         110.8225 244.5227 324.9202 C.3            1 RES1               0.0000
      6 C6         113.7004 244.6992 324.9854 C.ar           1 RES1               0.0000
      7 C7         113.7561 247.0778 324.8142 C.ar           1 RES1               0.0000
      8 N8         110.5308 248.0143 325.7417 N.am           1 RES1               0.0000
      9 O9         111.0942 246.3480 327.1499 O.2            1 RES1               0.0000
     10 N10        110.4612 247.7204 323.4312 N.am           1 RES1               0.0000
     11 O11        111.3786 245.9429 322.4053 O.2            1 RES1               0.0000
     12 C12        109.3032 244.5439 324.8626 C.3            1 RES1               0.0000
     13 C13        115.0843 244.6705 325.0339 C.ar           1 RES1               0.0000
     14 C14        115.1400 247.0469 324.8630 C.ar           1 RES1               0.0000
     15 C15        110.1859 248.5136 324.5115 C.2            1 RES1               0.0000
     16 C16        115.8050 245.8442 324.9723 C.ar           1 RES1               0.0000
     17 O17        109.6546 249.6152 324.4045 O.2            1 RES1               0.0000
     18 H18        111.1983 243.8969 324.1014 H              1 RES1               0.0000
     19 H19        111.1335 244.0607 325.8654 H              1 RES1               0.0000
     20 H20        113.1501 243.7656 325.0377 H              1 RES1               0.0000
     21 H21        113.2542 248.0356 324.7292 H              1 RES1               0.0000
     22 H22        110.4214 248.6365 326.5362 H              1 RES1               0.0000
     23 H23        110.1607 248.0616 322.5237 H              1 RES1               0.0000
     24 H24        108.9001 243.5364 324.9414 H              1 RES1               0.0000
     25 H25        108.8944 245.1372 325.6779 H              1 RES1               0.0000
     26 H26        108.9588 244.9743 323.9245 H              1 RES1               0.0000
     27 H27        115.6028 243.7215 325.1213 H              1 RES1               0.0000
     28 H28        115.7032 247.9731 324.8148 H              1 RES1               0.0000
     29 H29        116.8891 245.8214 325.0099 H              1 RES1               0.0000
@<TRIPOS>BOND
    1    1    2 1     
    2    1    3 1     
    3    1    4 1     
    4    1    5 1     
    5    2    6 ar    
    6    2    7 ar    
    7    3    8 1     
    8    3    9 2     
    9    4   10 1     
   10    4   11 2     
   11    5   12 1     
   12    5   18 1     
   13    5   19 1     
   14    6   13 ar    
   15    6   20 1     
   16    7   14 ar    
   17    7   21 1     
   18    8   15 1     
   19    8   22 1     
   20   10   15 1     
   21   10   23 1     
   22   12   24 1     
   23   12   25 1     
   24   12   26 1     
   25   13   16 ar    
   26   13   27 1     
   27   14   16 ar    
   28   14   28 1     
   29   15   17 2     
   30   16   29 1     
@<TRIPOS>SUBSTRUCTURE
      1 RES1           1
@<TRIPOS>SET
DONOR_HYDROGENS      STATIC     ATOMS    <user>   **** ""
2 22 23
ATOM$RED        STATIC     ATOMS    COLORGROUP SYSTEM
2 22 23
@<TRIPOS>COMMENT
> <Gold.Version>
2022.3.0

> <Gold.Id.Protein>
unknown|5adf_clean|pdb

> <Gold.Protein.RotatedTorsions>
[ 8428 8423 8424 8425 ] final   27.83 input   46.96 | X-H torsion
[ 8452 8445 8446 8447 ] final  153.81 input  111.34 | X-H torsion
[ 8996 8992 8993 8994 ] final   36.74 input   44.62 | X-H torsion
[ 9030 9016 9017 9018 ] final  160.77 input   32.56 | X-H torsion
[ 9077 9062 9063 9064 ] final   62.83 input   99.28 | X-H torsion
[ 9085 9073 9072 9070 ] final   81.93 input   59.99 | X-H torsion
[ 9117 9100 9101 9102 ] final  149.43 input   89.92 | X-H torsion
[ 9192 9177 9178 9179 ] final   -4.43 input  116.56 | X-H torsion
[ 3601 3592 3593 3594 ] final -159.65 input   84.58 | X-H torsion
[ 8978 8972 8973 8974 ] final -110.18 input   29.23 | X-H torsion
[ 9137 9130 9131 9132 ] final  171.05 input  126.15 | X-H torsion
[ 4895 4885 4884 4881 ] final  110.69 input   60.00 | X-H torsion
[ 8982 8977 8976 8973 ] final  120.86 input   60.00 | X-H torsion
[ 3579 3563 3564 3565 ] final   64.15 input  100.61 | X-H torsion
[ 3552 3542 3543 3544 ] final  123.52 input   82.26 | X-H torsion
[ 8482 8476 8477 8478 ] final   93.29 input   53.28 | X-H torsion
[ 8948 8937 8938 8939 ] final   -3.33 input   48.32 | X-H torsion
[ 12881 12863 12862 12860 ] final   26.49 input   60.03 | X-H torsion
[ 5550 5545 5544 5541 ] final  108.64 input   60.00 | X-H torsion
[ 5574 5565 5566 5567 ] final -179.22 input   49.17 | X-H torsion
[ 8328 8319 8318 8316 ] final   64.07 input   60.00 | X-H torsion
[ 5546 5540 5541 5542 ] final  -39.53 input  103.84 | X-H torsion
[ 8513 8500 8501 8502 ] final -177.90 input   63.30 | X-H torsion
[ 8486 8481 8480 8477 ] final -176.77 input   60.02 | X-H torsion
[ 8545 8528 8529 8530 ] final  134.00 input   88.08 | X-H torsion
[ 12873 12852 12853 12854 ] final  105.70 input  106.44 | X-H torsion
[ 12908 12891 12892 12893 ] final  -20.07 input   37.87 | X-H torsion
[ 9225 9206 9207 9208 ] final  -31.94 input   89.32 | X-H torsion
[ 11050 11043 11044 11045 ] final   -2.34 input   52.80 | X-H torsion
[ 5606 5598 5599 5600 ] final   54.30 input  119.27 | X-H torsion
[ 8581 8562 8563 8564 ] final   -3.19 input   68.50 | X-H torsion
[ 13460 8400 8399 8398 ] final  103.15 input   -0.00 | X-H torsion
[ 13464 8940 8939 8938 ] final  -63.25 input   -0.00 | X-H torsion
[ 13467 8995 8994 8993 ] final  170.11 input    0.00 | X-H torsion
[ 13470 9019 9018 9017 ] final   -1.28 input    0.00 | X-H torsion
[ 13473 9065 9064 9063 ] final  142.17 input   -0.00 | X-H torsion
[ 13478 9103 9102 9101 ] final   60.43 input   -0.00 | X-H torsion
[ 13491 8975 8974 8973 ] final  -94.20 input    0.00 | X-H torsion
[ 13493 8345 8344 8343 ] final  -46.56 input    0.00 | X-H torsion
[ 13501 8448 8447 8446 ] final  179.32 input    0.00 | X-H torsion
[ 13503 3502 3501 3500 ] final  142.84 input    0.00 | X-H torsion
[ 13506 8426 8425 8424 ] final  -90.52 input    0.00 | X-H torsion
[ 13514 5543 5542 5541 ] final  119.36 input   -0.00 | X-H torsion
[ 13525 9180 9179 9178 ] final    5.35 input    0.00 | X-H torsion
[ 13531 5517 5516 5515 ] final  -25.92 input    0.00 | X-H torsion
[ 13535 8503 8502 8501 ] final   28.99 input   -0.00 | X-H torsion
[ 13538 5568 5567 5566 ] final  -53.02 input   -0.00 | X-H torsion
[ 13540 8479 8478 8477 ] final -169.68 input   -0.00 | X-H torsion
[ 13545 12894 12893 12892 ] final -120.47 input    0.00 | X-H torsion
[ 13547 12822 12821 12820 ] final   23.97 input   -0.00 | X-H torsion

> <Gold.Protein.ActiveResidues>
 TRP311  MET341  HIS342  TRP414  ALA417  ARG419  CYS420  VAL421  GLY422  LEU460 
 SER462  ASN481  SER482  GLN483  LEU484  ARG486  ALA502  ASN503  TRP566  TYR567 
 GLY568  LEU569  PRO570  ALA571  VAL572  SER573  ASN574  MET575  LEU576  PHE589 
 SER590  GLY591  TRP592  TYR593  MET594  GLY595  GLU597  ILE598  ARG601  ASP602 
 ARG608  ILE653  VAL654  TRP683  PHE709  GLU710  TYR711  GLN712  ASP714  HEM750 
 H4B760 

> <Gold.Protein.RotatedAtoms>
  120.1930  251.9344  328.5791 H   0  0  0  0  0  0  0  0  0  0  0  0  # atno 3552 bound_to 3542
  122.2063  247.8454  328.7186 H   0  0  0  0  0  0  0  0  0  0  0  0  # atno 3579 bound_to 3563
  124.3506  247.0491  328.1890 H   0  0  0  0  0  0  0  0  0  0  0  0  # atno 3601 bound_to 3592
  126.3703  246.0739  318.4161 H   0  0  0  0  0  0  0  0  0  0  0  0  # atno 4895 bound_to 4885
  106.9691  244.4605  317.3316 H   0  0  0  0  0  0  0  0  0  0  0  0  # atno 5546 bound_to 5540
  107.7968  242.9964  321.5013 H   0  0  0  0  0  0  0  0  0  0  0  0  # atno 5550 bound_to 5545
  109.1746  243.9656  319.5093 H   0  0  0  0  0  0  0  0  0  0  0  0  # atno 5574 bound_to 5565
  112.0323  242.2051  316.4893 H   0  0  0  0  0  0  0  0  0  0  0  0  # atno 5606 bound_to 5598
  112.2668  237.4798  322.1324 H   0  0  0  0  0  0  0  0  0  0  0  0  # atno 8328 bound_to 8319
  114.9743  242.0646  318.7110 H   0  0  0  0  0  0  0  0  0  0  0  0  # atno 8428 bound_to 8423
  115.3092  245.0360  319.3899 H   0  0  0  0  0  0  0  0  0  0  0  0  # atno 8452 bound_to 8445
  111.3701  246.1839  318.0937 H   0  0  0  0  0  0  0  0  0  0  0  0  # atno 8482 bound_to 8476
  109.7516  245.0477  315.5423 H   0  0  0  0  0  0  0  0  0  0  0  0  # atno 8486 bound_to 8481
  109.6860  248.1163  317.7324 H   0  0  0  0  0  0  0  0  0  0  0  0  # atno 8513 bound_to 8500
  110.7856  250.6513  319.4738 H   0  0  0  0  0  0  0  0  0  0  0  0  # atno 8545 bound_to 8528
  111.5006  254.8307  319.9863 H   0  0  0  0  0  0  0  0  0  0  0  0  # atno 8581 bound_to 8562
  115.5042  247.7865  315.9233 H   0  0  0  0  0  0  0  0  0  0  0  0  # atno 8948 bound_to 8937
  118.4373  247.2275  317.1267 H   0  0  0  0  0  0  0  0  0  0  0  0  # atno 8978 bound_to 8972
  120.4910  243.3834  314.9750 H   0  0  0  0  0  0  0  0  0  0  0  0  # atno 8982 bound_to 8977
  120.3304  243.8154  318.9330 H   0  0  0  0  0  0  0  0  0  0  0  0  # atno 8996 bound_to 8992
  123.4168  242.5803  319.6585 H   0  0  0  0  0  0  0  0  0  0  0  0  # atno 9030 bound_to 9016
  122.7303  238.7990  322.2597 H   0  0  0  0  0  0  0  0  0  0  0  0  # atno 9077 bound_to 9062
  115.0150  238.9230  322.0002 H   0  0  0  0  0  0  0  0  0  0  0  0  # atno 9085 bound_to 9073
  121.9544  240.6898  325.9295 H   0  0  0  0  0  0  0  0  0  0  0  0  # atno 9117 bound_to 9100
  123.2325  237.0780  327.9523 H   0  0  0  0  0  0  0  0  0  0  0  0  # atno 9137 bound_to 9130
  118.2512  236.9665  329.7920 H   0  0  0  0  0  0  0  0  0  0  0  0  # atno 9192 bound_to 9177
  116.5812  236.6342  329.0794 H   0  0  0  0  0  0  0  0  0  0  0  0  # atno 9225 bound_to 9206
  125.2810  237.0680  325.8483 H   0  0  0  0  0  0  0  0  0  0  0  0  # atno 11050 bound_to 11043
  109.8998  256.4270  325.2145 H   0  0  0  0  0  0  0  0  0  0  0  0  # atno 12873 bound_to 12852
  111.6957  250.8057  328.1872 H   0  0  0  0  0  0  0  0  0  0  0  0  # atno 12881 bound_to 12863
  106.5195  254.3466  323.3659 H   0  0  0  0  0  0  0  0  0  0  0  0  # atno 12908 bound_to 12891
  118.4788  242.9114  317.9094 LP  0  0  0  0  0  0  0  0  0  0  0  0  # atno 13460 bound_to 8400
  118.2626  243.4433  319.5435 LP  0  0  0  0  0  0  0  0  0  0  0  0  # atno 13461 bound_to 8400
  116.7068  242.0877  318.4931 LP  0  0  0  0  0  0  0  0  0  0  0  0  # atno 13462 bound_to 8423
  114.7240  245.1835  317.7490 LP  0  0  0  0  0  0  0  0  0  0  0  0  # atno 13463 bound_to 8445
  116.4914  246.9381  318.1022 LP  0  0  0  0  0  0  0  0  0  0  0  0  # atno 13464 bound_to 8940
  116.6128  245.6075  317.0000 LP  0  0  0  0  0  0  0  0  0  0  0  0  # atno 13465 bound_to 8940
  120.8993  245.1135  317.9070 LP  0  0  0  0  0  0  0  0  0  0  0  0  # atno 13466 bound_to 8992
  122.7399  240.9176  318.3820 LP  0  0  0  0  0  0  0  0  0  0  0  0  # atno 13467 bound_to 8995
  122.1286  242.2053  317.3981 LP  0  0  0  0  0  0  0  0  0  0  0  0  # atno 13468 bound_to 8995
  122.3467  242.8893  321.0027 LP  0  0  0  0  0  0  0  0  0  0  0  0  # atno 13469 bound_to 9016
  122.5777  242.5825  322.5665 LP  0  0  0  0  0  0  0  0  0  0  0  0  # atno 13470 bound_to 9019
  121.9849  241.6005  323.8644 LP  0  0  0  0  0  0  0  0  0  0  0  0  # atno 13471 bound_to 9019
  121.8289  240.2870  322.0807 LP  0  0  0  0  0  0  0  0  0  0  0  0  # atno 13472 bound_to 9062
  124.3197  239.2155  325.3942 LP  0  0  0  0  0  0  0  0  0  0  0  0  # atno 13473 bound_to 9065
  123.7130  237.9710  324.3535 LP  0  0  0  0  0  0  0  0  0  0  0  0  # atno 13474 bound_to 9065
  114.6561  237.9417  323.2479 LP  0  0  0  0  0  0  0  0  0  0  0  0  # atno 13475 bound_to 9073
  115.0442  237.3091  321.7933 LP  0  0  0  0  0  0  0  0  0  0  0  0  # atno 13476 bound_to 9073
  121.5492  239.0200  325.6023 LP  0  0  0  0  0  0  0  0  0  0  0  0  # atno 13477 bound_to 9100
  120.0606  238.2323  326.8551 LP  0  0  0  0  0  0  0  0  0  0  0  0  # atno 13478 bound_to 9103
  119.8490  238.0351  328.5628 LP  0  0  0  0  0  0  0  0  0  0  0  0  # atno 13479 bound_to 9103
  118.9237  238.5724  329.8915 LP  0  0  0  0  0  0  0  0  0  0  0  0  # atno 13480 bound_to 9177
  124.2810  248.6710  327.5468 LP  0  0  0  0  0  0  0  0  0  0  0  0  # atno 13489 bound_to 3592
  119.4360  246.9019  315.7314 LP  0  0  0  0  0  0  0  0  0  0  0  0  # atno 13490 bound_to 8972
  122.2121  245.5873  316.2833 LP  0  0  0  0  0  0  0  0  0  0  0  0  # atno 13491 bound_to 8975
  121.8238  246.8753  317.3742 LP  0  0  0  0  0  0  0  0  0  0  0  0  # atno 13492 bound_to 8975
  120.4824  236.6091  319.8438 LP  0  0  0  0  0  0  0  0  0  0  0  0  # atno 13493 bound_to 8345
  120.8440  237.6177  318.4829 LP  0  0  0  0  0  0  0  0  0  0  0  0  # atno 13494 bound_to 8345
  121.8904  237.9231  328.6894 LP  0  0  0  0  0  0  0  0  0  0  0  0  # atno 13495 bound_to 9130
  125.0234  245.2143  318.1064 LP  0  0  0  0  0  0  0  0  0  0  0  0  # atno 13496 bound_to 4885
  124.9358  246.5835  318.9920 LP  0  0  0  0  0  0  0  0  0  0  0  0  # atno 13497 bound_to 4885
  120.6781  244.9840  315.1993 LP  0  0  0  0  0  0  0  0  0  0  0  0  # atno 13498 bound_to 8977
  119.5334  244.4282  314.1758 LP  0  0  0  0  0  0  0  0  0  0  0  0  # atno 13499 bound_to 8977
  122.4196  249.4070  329.4784 LP  0  0  0  0  0  0  0  0  0  0  0  0  # atno 13500 bound_to 3563
  113.5183  248.4453  316.7689 LP  0  0  0  0  0  0  0  0  0  0  0  0  # atno 13501 bound_to 8448
  114.8065  247.8415  317.7568 LP  0  0  0  0  0  0  0  0  0  0  0  0  # atno 13502 bound_to 8448
  119.4304  248.8647  329.6454 LP  0  0  0  0  0  0  0  0  0  0  0  0  # atno 13503 bound_to 3502
  119.1667  249.4015  331.2709 LP  0  0  0  0  0  0  0  0  0  0  0  0  # atno 13504 bound_to 3502
  120.3384  250.9707  330.0287 LP  0  0  0  0  0  0  0  0  0  0  0  0  # atno 13505 bound_to 3542
  113.1321  244.7317  316.4138 LP  0  0  0  0  0  0  0  0  0  0  0  0  # atno 13506 bound_to 8426
  112.7342  243.5630  317.6286 LP  0  0  0  0  0  0  0  0  0  0  0  0  # atno 13507 bound_to 8426
  112.4607  247.5164  318.3791 LP  0  0  0  0  0  0  0  0  0  0  0  0  # atno 13510 bound_to 8476
  115.7728  249.3898  315.2831 LP  0  0  0  0  0  0  0  0  0  0  0  0  # atno 13511 bound_to 8937
  110.5585  245.2994  320.0715 LP  0  0  0  0  0  0  0  0  0  0  0  0  # atno 13514 bound_to 5543
  109.8901  246.4276  318.9400 LP  0  0  0  0  0  0  0  0  0  0  0  0  # atno 13515 bound_to 5543
  110.6879  251.0409  329.4432 LP  0  0  0  0  0  0  0  0  0  0  0  0  # atno 13516 bound_to 12863
  111.9428  252.0567  329.1984 LP  0  0  0  0  0  0  0  0  0  0  0  0  # atno 13517 bound_to 12863
  107.1781  242.8259  320.0060 LP  0  0  0  0  0  0  0  0  0  0  0  0  # atno 13518 bound_to 5545
  106.1833  242.9593  321.2942 LP  0  0  0  0  0  0  0  0  0  0  0  0  # atno 13519 bound_to 5545
  108.4010  243.3338  318.0731 LP  0  0  0  0  0  0  0  0  0  0  0  0  # atno 13520 bound_to 5565
  111.3233  237.9966  320.9112 LP  0  0  0  0  0  0  0  0  0  0  0  0  # atno 13523 bound_to 8319
  112.7605  238.7171  321.1977 LP  0  0  0  0  0  0  0  0  0  0  0  0  # atno 13524 bound_to 8319
  114.4645  238.3472  328.8794 LP  0  0  0  0  0  0  0  0  0  0  0  0  # atno 13525 bound_to 9180
  114.2949  236.6838  328.4271 LP  0  0  0  0  0  0  0  0  0  0  0  0  # atno 13526 bound_to 9180
  105.7630  244.0807  318.5350 LP  0  0  0  0  0  0  0  0  0  0  0  0  # atno 13529 bound_to 5540
  110.7188  249.2833  318.5126 LP  0  0  0  0  0  0  0  0  0  0  0  0  # atno 13530 bound_to 8500
  107.5399  246.1714  315.8420 LP  0  0  0  0  0  0  0  0  0  0  0  0  # atno 13531 bound_to 5517
  107.4470  246.7069  317.4866 LP  0  0  0  0  0  0  0  0  0  0  0  0  # atno 13532 bound_to 5517
  109.1443  246.1418  316.5830 LP  0  0  0  0  0  0  0  0  0  0  0  0  # atno 13533 bound_to 8481
  110.4933  245.3058  316.9678 LP  0  0  0  0  0  0  0  0  0  0  0  0  # atno 13534 bound_to 8481
  107.2808  251.3464  320.1687 LP  0  0  0  0  0  0  0  0  0  0  0  0  # atno 13535 bound_to 8503
  108.1952  252.7893  319.8823 LP  0  0  0  0  0  0  0  0  0  0  0  0  # atno 13536 bound_to 8503
  109.4704  251.4651  318.6675 LP  0  0  0  0  0  0  0  0  0  0  0  0  # atno 13537 bound_to 8528
  108.9090  241.2974  316.9935 LP  0  0  0  0  0  0  0  0  0  0  0  0  # atno 13538 bound_to 5568
  108.7916  242.2760  315.5692 LP  0  0  0  0  0  0  0  0  0  0  0  0  # atno 13539 bound_to 5568
  108.8471  250.0358  316.2360 LP  0  0  0  0  0  0  0  0  0  0  0  0  # atno 13540 bound_to 8479
  109.6226  248.9831  315.1001 LP  0  0  0  0  0  0  0  0  0  0  0  0  # atno 13541 bound_to 8479
  104.2014  252.7522  321.8126 LP  0  0  0  0  0  0  0  0  0  0  0  0  # atno 13545 bound_to 12894
  104.9670  253.2621  323.2802 LP  0  0  0  0  0  0  0  0  0  0  0  0  # atno 13546 bound_to 12894
  111.3392  255.4409  321.6889 LP  0  0  0  0  0  0  0  0  0  0  0  0  # atno 13547 bound_to 12822
  109.6622  255.1168  321.9764 LP  0  0  0  0  0  0  0  0  0  0  0  0  # atno 13548 bound_to 12822
  110.3765  256.0995  323.5662 LP  0  0  0  0  0  0  0  0  0  0  0  0  # atno 13549 bound_to 12852
  107.6036  255.3356  322.4162 LP  0  0  0  0  0  0  0  0  0  0  0  0  # atno 13550 bound_to 12891

> <Gold.Score>
     Fitness  S(hb_ext) S(vdw_ext)  S(hb_int)    S(int)      intcor
     33.06       6.00      20.27       0.00      -0.81      -0.76

> <Gold.Goldscore.Fitness>
33.0627

> <Gold.Goldscore.Internal.Vdw>
-1.2061

> <Gold.Goldscore.Internal.Torsion>
-0.3673

> <Gold.Goldscore.External.Vdw>
20.2699

> <Gold.Goldscore.Internal.HBond>
0.0000

> <Gold.Goldscore.External.HBond>
6.0000

> <Gold.Goldscore.Internal.Correction>
-0.7650

> <Gold.Goldscore.Hbonds>
donor molecule, donor type, donor heavy atom, donor atom, acceptor molecule, acceptor atom, score
      L1  H    10    23       P1  8507  1.00

> <Gold.Goldscore.Internal.Vdw.Weighted>
-1.2061

> <Gold.Goldscore.Internal.Torsion.Weighted>
-0.3673

> <Gold.Goldscore.External.Vdw.Weighted>
27.8711

> <Gold.Goldscore.Internal.HBond.Weighted>
0.0000

> <Gold.Goldscore.External.HBond.Weighted>
6.0000

> <Gold.Goldscore.Internal.Correction.Weighted>
-0.7650

> <Gold.Rescore>
     Score     S(PLP)   S(hbond)     S(cho)   S(metal)  DE(clash)   DE(tors)     intcor
     34.39     -32.49       1.00       0.00       0.00       0.00       0.55       ----

> <Gold.PLP.Fitness>
34.3935

> <Gold.PLP.PLP>
-32.4884

> <Gold.PLP.part.hbond>
-1.4106

> <Gold.PLP.part.metal>
0.0000

> <Gold.PLP.part.buried>
-3.6739

> <Gold.PLP.part.nonpolar>
-28.4335

> <Gold.PLP.part.repulsive>
0.8114

> <Gold.PLP.ligand.clash>
0.0000

> <Gold.PLP.ligand.torsion>
0.5475

> <Gold.PLP.Chemscore.Hbond>
1.0000

> <Gold.PLP.Chemscore.CHOScore>
0.0000

> <Gold.PLP.Chemscore.Metal>
0.0000

> <Gold.Chemscore.Hbonds>
donor molecule, donor type, donor heavy atom, donor atom, acceptor molecule, acceptor atom, score
      L1  H    10    23       P1  8507  1.00

> <Gold.PLP.Chemscore.Internal.Correction>
   9.000000E+99

