#       Name:                CT1002167954
#       Creating user name   hitesit
#       Creation time:       Sun Apr 16 02:22:07 2023


#       File generated by GOLD software.
#

@<TRIPOS>MOLECULE
CT1002167954|ligand_prepared|mol2|1|dock9
    29    30     1
SMALL
NO_CHARGES


@<TRIPOS>ATOM
      1 C1         124.6563 247.3820 356.6468 C.3            1 RES1               0.0000
      2 C2         123.4347 246.8201 357.4024 C.ar           1 RES1               0.0000
      3 C3         124.2691 247.4156 355.1712 C.2            1 RES1               0.0000
      4 C4         124.9353 248.7550 357.2482 C.2            1 RES1               0.0000
      5 C5         125.9342 246.5246 356.7999 C.3            1 RES1               0.0000
      6 C6         123.3257 245.4566 357.6586 C.ar           1 RES1               0.0000
      7 C7         122.4120 247.6516 357.8509 C.ar           1 RES1               0.0000
      8 N8         123.9997 248.6318 354.6162 N.am           1 RES1               0.0000
      9 O9         124.1631 246.3869 354.5148 O.2            1 RES1               0.0000
     10 N10        124.7652 249.8535 356.4469 N.am           1 RES1               0.0000
     11 O11        125.2850 248.8965 358.4135 O.2            1 RES1               0.0000
     12 C12        127.2065 247.2387 356.3716 C.3            1 RES1               0.0000
     13 C13        122.2353 244.9432 358.3411 C.ar           1 RES1               0.0000
     14 C14        121.3223 247.1362 358.5331 C.ar           1 RES1               0.0000
     15 C15        124.2804 249.8562 355.1674 C.2            1 RES1               0.0000
     16 C16        121.2332 245.7826 358.7792 C.ar           1 RES1               0.0000
     17 O17        124.1038 250.8903 354.5296 O.2            1 RES1               0.0000
     18 H18        126.0343 246.2244 357.8502 H              1 RES1               0.0000
     19 H19        125.8219 245.6132 356.1999 H              1 RES1               0.0000
     20 H20        124.1033 244.7803 357.3194 H              1 RES1               0.0000
     21 H21        122.4605 248.7197 357.6677 H              1 RES1               0.0000
     22 H22        123.5477 248.6309 353.7074 H              1 RES1               0.0000
     23 H23        125.0240 250.7525 356.8408 H              1 RES1               0.0000
     24 H24        128.0728 246.5931 356.4992 H              1 RES1               0.0000
     25 H25        127.1519 247.5295 355.3245 H              1 RES1               0.0000
     26 H26        127.3630 248.1371 356.9651 H              1 RES1               0.0000
     27 H27        122.1692 243.8770 358.5310 H              1 RES1               0.0000
     28 H28        120.5357 247.8004 358.8755 H              1 RES1               0.0000
     29 H29        120.3793 245.3802 359.3141 H              1 RES1               0.0000
@<TRIPOS>BOND
    1    1    2 1     
    2    1    3 1     
    3    1    4 1     
    4    1    5 1     
    5    2    6 ar    
    6    2    7 ar    
    7    3    8 1     
    8    3    9 2     
    9    4   10 1     
   10    4   11 2     
   11    5   12 1     
   12    5   18 1     
   13    5   19 1     
   14    6   13 ar    
   15    6   20 1     
   16    7   14 ar    
   17    7   21 1     
   18    8   15 1     
   19    8   22 1     
   20   10   15 1     
   21   10   23 1     
   22   12   24 1     
   23   12   25 1     
   24   12   26 1     
   25   13   16 ar    
   26   13   27 1     
   27   14   16 ar    
   28   14   28 1     
   29   15   17 2     
   30   16   29 1     
@<TRIPOS>SUBSTRUCTURE
      1 RES1           1
@<TRIPOS>SET
DONOR_HYDROGENS      STATIC     ATOMS    <user>   **** ""
2 22 23
ATOM$RED        STATIC     ATOMS    COLORGROUP SYSTEM
2 22 23
@<TRIPOS>COMMENT
> <Gold.Version>
2022.3.0

> <Gold.Id.Protein>
unknown|5uo4_clean|pdb

> <Gold.Protein.RotatedTorsions>
[ 9154 9124 9123 9121 ] final  -60.57 input   59.97 | X-H torsion
[ 9050 9034 9033 9030 ] final  -55.96 input   60.01 | X-H torsion
[ 12944 12914 12913 12911 ] final  161.70 input   59.99 | X-H torsion
[ 5594 5583 5582 5579 ] final   93.55 input   59.98 | X-H torsion
[ 9553 9538 9537 9534 ] final -175.23 input   60.01 | X-H torsion

> <Gold.Protein.ActiveResidues>
 TRP311  MET341  HIS342  TRP414  ALA417  ARG419  CYS420  VAL421  GLY422  LEU429 
 LEU460  SER462  ALA463  ILE464  ARG478  SER482  GLN483  ARG486  ALA502  GLY568 
 LEU569  PRO570  ALA571  VAL572  SER573  ASN574  MET575  LEU576  PRO588  PHE589 
 SER590  GLY591  TRP592  TYR593  MET594  GLY595  GLU597  ILE598  ARG601  ASP602 
 ASP605  SER607  ARG608  ILE653  VAL654  TRP683  PHE696  HIS697  PHE709  GLU710 
 TYR711  GLN712  ASP714  HEM801  H4B802 

> <Gold.Protein.RotatedAtoms>
  127.3653  249.1728  363.0148 H   0  0  0  0  0  0  0  0  0  0  0  0  # atno 5594 bound_to 5583
  115.4388  246.0095  369.5158 H   0  0  0  0  0  0  0  0  0  0  0  0  # atno 9050 bound_to 9034
  122.7035  241.8386  362.7097 H   0  0  0  0  0  0  0  0  0  0  0  0  # atno 9154 bound_to 9124
  132.6783  247.2137  351.4983 H   0  0  0  0  0  0  0  0  0  0  0  0  # atno 9553 bound_to 9538
  122.1385  254.2672  355.7038 H   0  0  0  0  0  0  0  0  0  0  0  0  # atno 12944 bound_to 12914
  123.0194  242.0712  361.1307 LP  0  0  0  0  0  0  0  0  0  0  0  0  # atno 13532 bound_to 9124
  123.5546  240.7247  361.8839 LP  0  0  0  0  0  0  0  0  0  0  0  0  # atno 13533 bound_to 9124
  116.2636  244.6727  369.9411 LP  0  0  0  0  0  0  0  0  0  0  0  0  # atno 13550 bound_to 9034
  115.0405  244.5727  368.8637 LP  0  0  0  0  0  0  0  0  0  0  0  0  # atno 13551 bound_to 9034
  121.2079  255.0332  354.6108 LP  0  0  0  0  0  0  0  0  0  0  0  0  # atno 13566 bound_to 12914
  120.5332  254.3777  355.9456 LP  0  0  0  0  0  0  0  0  0  0  0  0  # atno 13567 bound_to 12914
  128.2409  249.5354  364.3375 LP  0  0  0  0  0  0  0  0  0  0  0  0  # atno 13571 bound_to 5583
  128.8043  249.9150  362.8525 LP  0  0  0  0  0  0  0  0  0  0  0  0  # atno 13572 bound_to 5583
  132.6205  246.0350  352.6193 LP  0  0  0  0  0  0  0  0  0  0  0  0  # atno 13598 bound_to 9538
  132.2938  245.6953  351.0558 LP  0  0  0  0  0  0  0  0  0  0  0  0  # atno 13599 bound_to 9538

> <Gold.Score>
     Fitness  S(hb_ext) S(vdw_ext)  S(hb_int)    S(int)      intcor
     28.22       6.00      16.60       0.00      -0.61      -0.78

> <Gold.Goldscore.Fitness>
28.2199

> <Gold.Goldscore.Internal.Vdw>
-0.6842

> <Gold.Goldscore.Internal.Torsion>
-0.7020

> <Gold.Goldscore.External.Vdw>
16.6031

> <Gold.Goldscore.Internal.HBond>
0.0000

> <Gold.Goldscore.External.HBond>
6.0000

> <Gold.Goldscore.Internal.Correction>
-0.7769

> <Gold.Goldscore.Hbonds>
donor molecule, donor type, donor heavy atom, donor atom, acceptor molecule, acceptor atom, score
      L1  H     8    22       P1 13462  1.00

> <Gold.Goldscore.Internal.Vdw.Weighted>
-0.6842

> <Gold.Goldscore.Internal.Torsion.Weighted>
-0.7020

> <Gold.Goldscore.External.Vdw.Weighted>
22.8292

> <Gold.Goldscore.Internal.HBond.Weighted>
0.0000

> <Gold.Goldscore.External.HBond.Weighted>
6.0000

> <Gold.Goldscore.Internal.Correction.Weighted>
-0.7769

> <Gold.Rescore>
     Score     S(PLP)   S(hbond)     S(cho)   S(metal)  DE(clash)   DE(tors)     intcor
     19.74     -18.87       1.00       0.00       0.00       0.71       0.72       ----

> <Gold.PLP.Fitness>
19.7354

> <Gold.PLP.PLP>
-18.8742

> <Gold.PLP.part.hbond>
-1.9358

> <Gold.PLP.part.metal>
0.0000

> <Gold.PLP.part.buried>
-1.9960

> <Gold.PLP.part.nonpolar>
-14.4195

> <Gold.PLP.part.repulsive>
0.3786

> <Gold.PLP.ligand.clash>
0.7076

> <Gold.PLP.ligand.torsion>
0.7156

> <Gold.PLP.Chemscore.Hbond>
1.0000

> <Gold.PLP.Chemscore.CHOScore>
0.0000

> <Gold.PLP.Chemscore.Metal>
0.0000

> <Gold.Chemscore.Hbonds>
donor molecule, donor type, donor heavy atom, donor atom, acceptor molecule, acceptor atom, score
      L1  H     8    22       P1 13462  1.00

> <Gold.PLP.Chemscore.Internal.Correction>
   9.000000E+99

