#       Name:                CT1002167954
#       Creating user name   hitesit
#       Creation time:       Sun Apr 16 02:22:03 2023


#       File generated by GOLD software.
#

@<TRIPOS>MOLECULE
CT1002167954|ligand_prepared|mol2|1|dock4
    29    30     1
SMALL
NO_CHARGES


@<TRIPOS>ATOM
      1 C1         118.2060 246.6506 360.6929 C.3            1 RES1               0.0000
      2 C2         118.9637 247.7710 359.9516 C.ar           1 RES1               0.0000
      3 C3         119.0358 246.3176 361.9293 C.2            1 RES1               0.0000
      4 C4         116.8208 247.2063 361.0045 C.2            1 RES1               0.0000
      5 C5         118.0267 245.3603 359.8595 C.3            1 RES1               0.0000
      6 C6         120.0061 247.4658 359.0816 C.ar           1 RES1               0.0000
      7 C7         118.6306 249.1117 360.1253 C.ar           1 RES1               0.0000
      8 N8         118.5679 246.7429 363.1376 N.am           1 RES1               0.0000
      9 O9         120.1044 245.7253 361.8412 O.2            1 RES1               0.0000
     10 N10        116.4863 247.3968 362.3196 N.am           1 RES1               0.0000
     11 O11        116.0221 247.4965 360.1224 O.2            1 RES1               0.0000
     12 C12        117.0045 244.3942 360.4373 C.3            1 RES1               0.0000
     13 C13        120.6889 248.4645 358.4072 C.ar           1 RES1               0.0000
     14 C14        119.3148 250.1089 359.4501 C.ar           1 RES1               0.0000
     15 C15        117.3084 247.2192 363.3990 C.2            1 RES1               0.0000
     16 C16        120.3435 249.7865 358.5906 C.ar           1 RES1               0.0000
     17 O17        116.9526 247.4640 364.5482 O.2            1 RES1               0.0000
     18 H18        117.7172 245.6361 358.8439 H              1 RES1               0.0000
     19 H19        118.9946 244.8489 359.7878 H              1 RES1               0.0000
     20 H20        120.2937 246.4313 358.9265 H              1 RES1               0.0000
     21 H21        117.8254 249.3888 360.7972 H              1 RES1               0.0000
     22 H22        119.2144 246.7032 363.9192 H              1 RES1               0.0000
     23 H23        115.5365 247.6989 362.5119 H              1 RES1               0.0000
     24 H24        116.9177 243.5064 359.8145 H              1 RES1               0.0000
     25 H25        117.2939 244.0793 361.4378 H              1 RES1               0.0000
     26 H26        116.0240 244.8618 360.4995 H              1 RES1               0.0000
     27 H27        121.4986 248.2057 357.7330 H              1 RES1               0.0000
     28 H28        119.0400 251.1480 359.5979 H              1 RES1               0.0000
     29 H29        120.8783 250.5687 358.0620 H              1 RES1               0.0000
@<TRIPOS>BOND
    1    1    2 1     
    2    1    3 1     
    3    1    4 1     
    4    1    5 1     
    5    2    6 ar    
    6    2    7 ar    
    7    3    8 1     
    8    3    9 2     
    9    4   10 1     
   10    4   11 2     
   11    5   12 1     
   12    5   18 1     
   13    5   19 1     
   14    6   13 ar    
   15    6   20 1     
   16    7   14 ar    
   17    7   21 1     
   18    8   15 1     
   19    8   22 1     
   20   10   15 1     
   21   10   23 1     
   22   12   24 1     
   23   12   25 1     
   24   12   26 1     
   25   13   16 ar    
   26   13   27 1     
   27   14   16 ar    
   28   14   28 1     
   29   15   17 2     
   30   16   29 1     
@<TRIPOS>SUBSTRUCTURE
      1 RES1           1
@<TRIPOS>SET
DONOR_HYDROGENS      STATIC     ATOMS    <user>   **** ""
2 22 23
ATOM$RED        STATIC     ATOMS    COLORGROUP SYSTEM
2 22 23
@<TRIPOS>COMMENT
> <Gold.Version>
2022.3.0

> <Gold.Id.Protein>
unknown|5uo4_clean|pdb

> <Gold.Protein.RotatedTorsions>
[ 9154 9124 9123 9121 ] final  138.71 input   59.97 | X-H torsion
[ 9050 9034 9033 9030 ] final -105.41 input   60.01 | X-H torsion
[ 12944 12914 12913 12911 ] final -134.43 input   59.99 | X-H torsion
[ 5594 5583 5582 5579 ] final  142.34 input   59.98 | X-H torsion
[ 9553 9538 9537 9534 ] final -139.05 input   60.01 | X-H torsion

> <Gold.Protein.ActiveResidues>
 TRP311  MET341  HIS342  TRP414  ALA417  ARG419  CYS420  VAL421  GLY422  LEU429 
 LEU460  SER462  ALA463  ILE464  ARG478  SER482  GLN483  ARG486  ALA502  GLY568 
 LEU569  PRO570  ALA571  VAL572  SER573  ASN574  MET575  LEU576  PRO588  PHE589 
 SER590  GLY591  TRP592  TYR593  MET594  GLY595  GLU597  ILE598  ARG601  ASP602 
 ASP605  SER607  ARG608  ILE653  VAL654  TRP683  PHE696  HIS697  PHE709  GLU710 
 TYR711  GLN712  ASP714  HEM801  H4B802 

> <Gold.Protein.RotatedAtoms>
  127.8706  249.4623  362.5061 H   0  0  0  0  0  0  0  0  0  0  0  0  # atno 5594 bound_to 5583
  116.0217  245.7304  369.9583 H   0  0  0  0  0  0  0  0  0  0  0  0  # atno 9050 bound_to 9034
  123.3541  241.5224  361.0122 H   0  0  0  0  0  0  0  0  0  0  0  0  # atno 9154 bound_to 9124
  132.5396  246.9256  351.0125 H   0  0  0  0  0  0  0  0  0  0  0  0  # atno 9553 bound_to 9538
  121.3195  254.0936  356.2326 H   0  0  0  0  0  0  0  0  0  0  0  0  # atno 12944 bound_to 12914
  123.3232  240.8371  362.4875 LP  0  0  0  0  0  0  0  0  0  0  0  0  # atno 13532 bound_to 9124
  122.5952  242.2773  362.2375 LP  0  0  0  0  0  0  0  0  0  0  0  0  # atno 13533 bound_to 9124
  115.8509  244.1847  369.4789 LP  0  0  0  0  0  0  0  0  0  0  0  0  # atno 13550 bound_to 9034
  114.8662  245.3417  368.8804 LP  0  0  0  0  0  0  0  0  0  0  0  0  # atno 13551 bound_to 9034
  122.0919  254.7081  354.9391 LP  0  0  0  0  0  0  0  0  0  0  0  0  # atno 13566 bound_to 12914
  120.4743  254.8777  355.0845 LP  0  0  0  0  0  0  0  0  0  0  0  0  # atno 13567 bound_to 12914
  127.5779  249.2126  364.0871 LP  0  0  0  0  0  0  0  0  0  0  0  0  # atno 13571 bound_to 5583
  128.9583  249.9463  363.6153 LP  0  0  0  0  0  0  0  0  0  0  0  0  # atno 13572 bound_to 5583
  132.7340  246.6089  352.5971 LP  0  0  0  0  0  0  0  0  0  0  0  0  # atno 13598 bound_to 9538
  132.3200  245.4113  351.5672 LP  0  0  0  0  0  0  0  0  0  0  0  0  # atno 13599 bound_to 9538

> <Gold.Score>
     Fitness  S(hb_ext) S(vdw_ext)  S(hb_int)    S(int)      intcor
     48.85       1.21      35.23       0.00      -0.80      -0.78

> <Gold.Goldscore.Fitness>
48.8492

> <Gold.Goldscore.Internal.Vdw>
-0.9146

> <Gold.Goldscore.Internal.Torsion>
-0.6715

> <Gold.Goldscore.External.Vdw>
35.2333

> <Gold.Goldscore.Internal.HBond>
0.0000

> <Gold.Goldscore.External.HBond>
1.2075

> <Gold.Goldscore.Internal.Correction>
-0.7819

> <Gold.Goldscore.Hbonds>
donor molecule, donor type, donor heavy atom, donor atom, acceptor molecule, acceptor atom, score
      P1  H  8501  8515       L1    17  0.60

> <Gold.Goldscore.Internal.Vdw.Weighted>
-0.9146

> <Gold.Goldscore.Internal.Torsion.Weighted>
-0.6715

> <Gold.Goldscore.External.Vdw.Weighted>
48.4458

> <Gold.Goldscore.Internal.HBond.Weighted>
0.0000

> <Gold.Goldscore.External.HBond.Weighted>
1.2075

> <Gold.Goldscore.Internal.Correction.Weighted>
-0.7819

> <Gold.Rescore>
     Score     S(PLP)   S(hbond)     S(cho)   S(metal)  DE(clash)   DE(tors)     intcor
     53.73     -47.98       0.63       0.00       1.00       0.94       0.61       ----

> <Gold.PLP.Fitness>
53.7253

> <Gold.PLP.PLP>
-47.9812

> <Gold.PLP.part.hbond>
-1.6607

> <Gold.PLP.part.metal>
-1.0000

> <Gold.PLP.part.buried>
6.5024

> <Gold.PLP.part.nonpolar>
-61.5313

> <Gold.PLP.part.repulsive>
6.7498

> <Gold.PLP.ligand.clash>
0.9444

> <Gold.PLP.ligand.torsion>
0.6064

> <Gold.PLP.Chemscore.Hbond>
0.6338

> <Gold.PLP.Chemscore.CHOScore>
0.0000

> <Gold.PLP.Chemscore.Metal>
1.0000

> <Gold.Chemscore.Hbonds>
donor molecule, donor type, donor heavy atom, donor atom, acceptor molecule, acceptor atom, score
      P1  M 13344 13344       L1    11  1.00

> <Gold.PLP.Chemscore.Internal.Correction>
   9.000000E+99

