#       Name:                CT1002167954
#       Creating user name   hitesit
#       Creation time:       Sun Apr 16 02:22:05 2023


#       File generated by GOLD software.
#

@<TRIPOS>MOLECULE
CT1002167954|ligand_prepared|mol2|1|dock6
    29    30     1
SMALL
NO_CHARGES


@<TRIPOS>ATOM
      1 C1         120.7093 245.3938 359.6803 C.3            1 RES1               0.0000
      2 C2         119.1928 245.3536 359.9583 C.ar           1 RES1               0.0000
      3 C3         120.8843 246.1509 358.3671 C.2            1 RES1               0.0000
      4 C4         121.3456 246.0805 360.8838 C.2            1 RES1               0.0000
      5 C5         121.3545 243.9963 359.5314 C.3            1 RES1               0.0000
      6 C6         118.4008 246.4752 359.7310 C.ar           1 RES1               0.0000
      7 C7         118.5722 244.2036 360.4387 C.ar           1 RES1               0.0000
      8 N8         121.3725 247.4226 358.4312 N.am           1 RES1               0.0000
      9 O9         120.5616 245.6538 357.2951 O.2            1 RES1               0.0000
     10 N10        121.9463 247.2962 360.6861 N.am           1 RES1               0.0000
     11 O11        121.3176 245.5876 362.0047 O.2            1 RES1               0.0000
     12 C12        122.7070 244.0162 358.8367 C.3            1 RES1               0.0000
     13 C13        117.0372 246.4471 359.9724 C.ar           1 RES1               0.0000
     14 C14        117.2085 244.1778 360.6797 C.ar           1 RES1               0.0000
     15 C15        121.9617 248.0126 359.5204 C.2            1 RES1               0.0000
     16 C16        116.4401 245.2985 360.4464 C.ar           1 RES1               0.0000
     17 O17        122.4752 249.1244 359.4347 O.2            1 RES1               0.0000
     18 H18        121.4762 243.5555 360.5285 H              1 RES1               0.0000
     19 H19        120.6740 243.3522 358.9608 H              1 RES1               0.0000
     20 H20        118.8534 247.3888 359.3604 H              1 RES1               0.0000
     21 H21        119.1570 243.3104 360.6305 H              1 RES1               0.0000
     22 H22        121.2921 247.9873 357.5915 H              1 RES1               0.0000
     23 H23        122.4265 247.7048 361.4815 H              1 RES1               0.0000
     24 H24        123.1151 243.0108 358.7582 H              1 RES1               0.0000
     25 H25        122.6188 244.4255 357.8324 H              1 RES1               0.0000
     26 H26        123.4162 244.6276 359.3908 H              1 RES1               0.0000
     27 H27        116.4372 247.3322 359.7885 H              1 RES1               0.0000
     28 H28        116.7428 243.2718 361.0533 H              1 RES1               0.0000
     29 H29        115.3719 245.2767 360.6351 H              1 RES1               0.0000
@<TRIPOS>BOND
    1    1    2 1     
    2    1    3 1     
    3    1    4 1     
    4    1    5 1     
    5    2    6 ar    
    6    2    7 ar    
    7    3    8 1     
    8    3    9 2     
    9    4   10 1     
   10    4   11 2     
   11    5   12 1     
   12    5   18 1     
   13    5   19 1     
   14    6   13 ar    
   15    6   20 1     
   16    7   14 ar    
   17    7   21 1     
   18    8   15 1     
   19    8   22 1     
   20   10   15 1     
   21   10   23 1     
   22   12   24 1     
   23   12   25 1     
   24   12   26 1     
   25   13   16 ar    
   26   13   27 1     
   27   14   16 ar    
   28   14   28 1     
   29   15   17 2     
   30   16   29 1     
@<TRIPOS>SUBSTRUCTURE
      1 RES1           1
@<TRIPOS>SET
DONOR_HYDROGENS      STATIC     ATOMS    <user>   **** ""
2 22 23
ATOM$RED        STATIC     ATOMS    COLORGROUP SYSTEM
2 22 23
@<TRIPOS>COMMENT
> <Gold.Version>
2022.3.0

> <Gold.Id.Protein>
unknown|5uo4_clean|pdb

> <Gold.Protein.RotatedTorsions>
[ 9154 9124 9123 9121 ] final  -48.01 input   59.97 | X-H torsion
[ 9050 9034 9033 9030 ] final  -58.42 input   60.01 | X-H torsion
[ 12944 12914 12913 12911 ] final -101.45 input   59.99 | X-H torsion
[ 5594 5583 5582 5579 ] final  134.61 input   59.98 | X-H torsion
[ 9553 9538 9537 9534 ] final  -22.59 input   60.01 | X-H torsion

> <Gold.Protein.ActiveResidues>
 TRP311  MET341  HIS342  TRP414  ALA417  ARG419  CYS420  VAL421  GLY422  LEU429 
 LEU460  SER462  ALA463  ILE464  ARG478  SER482  GLN483  ARG486  ALA502  GLY568 
 LEU569  PRO570  ALA571  VAL572  SER573  ASN574  MET575  LEU576  PRO588  PHE589 
 SER590  GLY591  TRP592  TYR593  MET594  GLY595  GLU597  ILE598  ARG601  ASP602 
 ASP605  SER607  ARG608  ILE653  VAL654  TRP683  PHE696  HIS697  PHE709  GLU710 
 TYR711  GLN712  ASP714  HEM801  H4B802 

> <Gold.Protein.RotatedAtoms>
  127.7665  249.4064  362.5506 H   0  0  0  0  0  0  0  0  0  0  0  0  # atno 5594 bound_to 5583
  115.4691  246.0111  369.5423 H   0  0  0  0  0  0  0  0  0  0  0  0  # atno 9050 bound_to 9034
  122.7794  241.6637  362.7845 H   0  0  0  0  0  0  0  0  0  0  0  0  # atno 9154 bound_to 9124
  132.3165  245.4301  351.5119 H   0  0  0  0  0  0  0  0  0  0  0  0  # atno 9553 bound_to 9538
  120.8110  254.2216  356.1473 H   0  0  0  0  0  0  0  0  0  0  0  0  # atno 12944 bound_to 12914
  122.9142  242.1989  361.2539 LP  0  0  0  0  0  0  0  0  0  0  0  0  # atno 13532 bound_to 9124
  123.5833  240.7732  361.6854 LP  0  0  0  0  0  0  0  0  0  0  0  0  # atno 13533 bound_to 9124
  116.2531  244.6373  369.9244 LP  0  0  0  0  0  0  0  0  0  0  0  0  # atno 13550 bound_to 9034
  115.0205  244.6065  368.8538 LP  0  0  0  0  0  0  0  0  0  0  0  0  # atno 13551 bound_to 9034
  122.2292  254.4360  355.3790 LP  0  0  0  0  0  0  0  0  0  0  0  0  # atno 13566 bound_to 12914
  120.8494  255.0209  354.7306 LP  0  0  0  0  0  0  0  0  0  0  0  0  # atno 13567 bound_to 12914
  127.6675  249.2533  364.1676 LP  0  0  0  0  0  0  0  0  0  0  0  0  # atno 13571 bound_to 5583
  128.9735  249.9618  363.4900 LP  0  0  0  0  0  0  0  0  0  0  0  0  # atno 13572 bound_to 5583
  132.5527  246.9716  351.0461 LP  0  0  0  0  0  0  0  0  0  0  0  0  # atno 13598 bound_to 9538
  132.7258  246.5544  352.6154 LP  0  0  0  0  0  0  0  0  0  0  0  0  # atno 13599 bound_to 9538

> <Gold.Score>
     Fitness  S(hb_ext) S(vdw_ext)  S(hb_int)    S(int)      intcor
     32.09       0.43      23.93       0.00      -1.24      -0.78

> <Gold.Goldscore.Fitness>
32.0891

> <Gold.Goldscore.Internal.Vdw>
-1.1349

> <Gold.Goldscore.Internal.Torsion>
-0.8786

> <Gold.Goldscore.External.Vdw>
23.9269

> <Gold.Goldscore.Internal.HBond>
0.0000

> <Gold.Goldscore.External.HBond>
0.4263

> <Gold.Goldscore.Internal.Correction>
-0.7769

> <Gold.Goldscore.Hbonds>
donor molecule, donor type, donor heavy atom, donor atom, acceptor molecule, acceptor atom, score
      L1  H     8    22       P1 13333  0.07

> <Gold.Goldscore.Internal.Vdw.Weighted>
-1.1349

> <Gold.Goldscore.Internal.Torsion.Weighted>
-0.8786

> <Gold.Goldscore.External.Vdw.Weighted>
32.8995

> <Gold.Goldscore.Internal.HBond.Weighted>
0.0000

> <Gold.Goldscore.External.HBond.Weighted>
0.4263

> <Gold.Goldscore.Internal.Correction.Weighted>
-0.7769

> <Gold.Rescore>
     Score     S(PLP)   S(hbond)     S(cho)   S(metal)  DE(clash)   DE(tors)     intcor
     14.89     -13.25       1.00       0.00       0.00       0.00       0.68       ----

> <Gold.PLP.Fitness>
14.8922

> <Gold.PLP.PLP>
-13.2461

> <Gold.PLP.part.hbond>
-1.7722

> <Gold.PLP.part.metal>
0.0000

> <Gold.PLP.part.buried>
21.6973

> <Gold.PLP.part.nonpolar>
-40.3037

> <Gold.PLP.part.repulsive>
8.0042

> <Gold.PLP.ligand.clash>
0.0000

> <Gold.PLP.ligand.torsion>
0.6769

> <Gold.PLP.Chemscore.Hbond>
1.0000

> <Gold.PLP.Chemscore.CHOScore>
0.0000

> <Gold.PLP.Chemscore.Metal>
0.0000

> <Gold.Chemscore.Hbonds>
donor molecule, donor type, donor heavy atom, donor atom, acceptor molecule, acceptor atom, score
      L1  H     8    22       P1 13333  0.82

> <Gold.PLP.Chemscore.Internal.Correction>
   9.000000E+99

