#       Name:                CT1002167954
#       Creating user name   hitesit
#       Creation time:       Sun Apr 16 02:22:00 2023


#       File generated by GOLD software.
#

@<TRIPOS>MOLECULE
CT1002167954|ligand_prepared|mol2|1|dock1
    29    30     1
SMALL
NO_CHARGES


@<TRIPOS>ATOM
      1 C1         122.2357 249.0591 358.7571 C.3            1 RES1               0.0000
      2 C2         120.9906 248.2171 359.1027 C.ar           1 RES1               0.0000
      3 C3         121.7549 250.1768 357.8363 C.2            1 RES1               0.0000
      4 C4         122.8023 249.5479 360.0855 C.2            1 RES1               0.0000
      5 C5         123.3444 248.2648 358.0281 C.3            1 RES1               0.0000
      6 C6         119.7405 248.8168 359.2227 C.ar           1 RES1               0.0000
      7 C7         121.0756 246.8416 359.3015 C.ar           1 RES1               0.0000
      8 N8         121.6713 251.4338 358.3588 N.am           1 RES1               0.0000
      9 O9         121.4167 249.9518 356.6808 O.2            1 RES1               0.0000
     10 N10        122.7767 250.8945 360.3379 N.am           1 RES1               0.0000
     11 O11        123.2555 248.7774 360.9230 O.2            1 RES1               0.0000
     12 C12        124.4324 249.1410 357.4275 C.3            1 RES1               0.0000
     13 C13        118.6157 248.0683 359.5273 C.ar           1 RES1               0.0000
     14 C14        119.9495 246.0950 359.6063 C.ar           1 RES1               0.0000
     15 C15        122.2090 251.8566 359.5479 C.2            1 RES1               0.0000
     16 C16        118.7193 246.7070 359.7189 C.ar           1 RES1               0.0000
     17 O17        122.1773 253.0412 359.8685 O.2            1 RES1               0.0000
     18 H18        123.8048 247.5676 358.7389 H              1 RES1               0.0000
     19 H19        122.8857 247.6725 357.2268 H              1 RES1               0.0000
     20 H20        119.6399 249.8873 359.0778 H              1 RES1               0.0000
     21 H21        122.0333 246.3390 359.2190 H              1 RES1               0.0000
     22 H22        121.1619 252.1232 357.8151 H              1 RES1               0.0000
     23 H23        123.2224 251.2088 361.1940 H              1 RES1               0.0000
     24 H24        125.1846 248.5340 356.9281 H              1 RES1               0.0000
     25 H25        124.0134 249.8301 356.6971 H              1 RES1               0.0000
     26 H26        124.9271 249.7258 358.2003 H              1 RES1               0.0000
     27 H27        117.6500 248.5550 359.6161 H              1 RES1               0.0000
     28 H28        120.0358 245.0239 359.7569 H              1 RES1               0.0000
     29 H29        117.8379 246.1208 359.9572 H              1 RES1               0.0000
@<TRIPOS>BOND
    1    1    2 1     
    2    1    3 1     
    3    1    4 1     
    4    1    5 1     
    5    2    6 ar    
    6    2    7 ar    
    7    3    8 1     
    8    3    9 2     
    9    4   10 1     
   10    4   11 2     
   11    5   12 1     
   12    5   18 1     
   13    5   19 1     
   14    6   13 ar    
   15    6   20 1     
   16    7   14 ar    
   17    7   21 1     
   18    8   15 1     
   19    8   22 1     
   20   10   15 1     
   21   10   23 1     
   22   12   24 1     
   23   12   25 1     
   24   12   26 1     
   25   13   16 ar    
   26   13   27 1     
   27   14   16 ar    
   28   14   28 1     
   29   15   17 2     
   30   16   29 1     
@<TRIPOS>SUBSTRUCTURE
      1 RES1           1
@<TRIPOS>SET
DONOR_HYDROGENS      STATIC     ATOMS    <user>   **** ""
2 22 23
ATOM$RED        STATIC     ATOMS    COLORGROUP SYSTEM
2 22 23
@<TRIPOS>COMMENT
> <Gold.Version>
2022.3.0

> <Gold.Id.Protein>
unknown|5uo4_clean|pdb

> <Gold.Protein.RotatedTorsions>
[ 9154 9124 9123 9121 ] final   49.48 input   59.97 | X-H torsion
[ 9050 9034 9033 9030 ] final   39.45 input   60.01 | X-H torsion
[ 12944 12914 12913 12911 ] final -160.39 input   59.99 | X-H torsion
[ 5594 5583 5582 5579 ] final  126.22 input   59.98 | X-H torsion
[ 9553 9538 9537 9534 ] final -107.14 input   60.01 | X-H torsion

> <Gold.Protein.ActiveResidues>
 TRP311  MET341  HIS342  TRP414  ALA417  ARG419  CYS420  VAL421  GLY422  LEU429 
 LEU460  SER462  ALA463  ILE464  ARG478  SER482  GLN483  ARG486  ALA502  GLY568 
 LEU569  PRO570  ALA571  VAL572  SER573  ASN574  MET575  LEU576  PRO588  PHE589 
 SER590  GLY591  TRP592  TYR593  MET594  GLY595  GLU597  ILE598  ARG601  ASP602 
 ASP605  SER607  ARG608  ILE653  VAL654  TRP683  PHE696  HIS697  PHE709  GLU710 
 TYR711  GLN712  ASP714  HEM801  H4B802 

> <Gold.Protein.RotatedAtoms>
  127.6612  249.3486  362.6164 H   0  0  0  0  0  0  0  0  0  0  0  0  # atno 5594 bound_to 5583
  114.8971  244.9434  368.8168 H   0  0  0  0  0  0  0  0  0  0  0  0  # atno 9050 bound_to 9034
  123.5110  240.7193  362.0410 H   0  0  0  0  0  0  0  0  0  0  0  0  # atno 9154 bound_to 9124
  132.4130  246.4704  350.8077 H   0  0  0  0  0  0  0  0  0  0  0  0  # atno 9553 bound_to 9538
  121.7230  254.0981  356.1143 H   0  0  0  0  0  0  0  0  0  0  0  0  # atno 12944 bound_to 12914
  122.6549  241.9717  362.6290 LP  0  0  0  0  0  0  0  0  0  0  0  0  # atno 13532 bound_to 9124
  123.1055  241.9519  361.0595 LP  0  0  0  0  0  0  0  0  0  0  0  0  # atno 13533 bound_to 9124
  115.7429  245.9552  369.7702 LP  0  0  0  0  0  0  0  0  0  0  0  0  # atno 13550 bound_to 9034
  116.1065  244.3636  369.7384 LP  0  0  0  0  0  0  0  0  0  0  0  0  # atno 13551 bound_to 9034
  121.7979  254.8925  354.6963 LP  0  0  0  0  0  0  0  0  0  0  0  0  # atno 13566 bound_to 12914
  120.3619  254.6889  355.4466 LP  0  0  0  0  0  0  0  0  0  0  0  0  # atno 13567 bound_to 12914
  127.7744  249.3035  364.2390 LP  0  0  0  0  0  0  0  0  0  0  0  0  # atno 13571 bound_to 5583
  128.9727  249.9700  363.3523 LP  0  0  0  0  0  0  0  0  0  0  0  0  # atno 13572 bound_to 5583
  132.7698  247.0284  352.2945 LP  0  0  0  0  0  0  0  0  0  0  0  0  # atno 13598 bound_to 9538
  132.4117  245.4502  352.0759 LP  0  0  0  0  0  0  0  0  0  0  0  0  # atno 13599 bound_to 9538

> <Gold.Score>
     Fitness  S(hb_ext) S(vdw_ext)  S(hb_int)    S(int)      intcor
     35.89       6.24      21.87       0.00      -0.42      -0.78

> <Gold.Goldscore.Fitness>
35.8900

> <Gold.Goldscore.Internal.Vdw>
-0.5969

> <Gold.Goldscore.Internal.Torsion>
-0.6079

> <Gold.Goldscore.External.Vdw>
21.8692

> <Gold.Goldscore.Internal.HBond>
0.0000

> <Gold.Goldscore.External.HBond>
6.2427

> <Gold.Goldscore.Internal.Correction>
-0.7819

> <Gold.Goldscore.Hbonds>
donor molecule, donor type, donor heavy atom, donor atom, acceptor molecule, acceptor atom, score
      P1  H  5607  5625       L1    11  0.12
      L1  H     8    22       P1 13334  1.00

> <Gold.Goldscore.Internal.Vdw.Weighted>
-0.5969

> <Gold.Goldscore.Internal.Torsion.Weighted>
-0.6079

> <Gold.Goldscore.External.Vdw.Weighted>
30.0701

> <Gold.Goldscore.Internal.HBond.Weighted>
0.0000

> <Gold.Goldscore.External.HBond.Weighted>
6.2427

> <Gold.Goldscore.Internal.Correction.Weighted>
-0.7819

> <Gold.Rescore>
     Score     S(PLP)   S(hbond)     S(cho)   S(metal)  DE(clash)   DE(tors)     intcor
     31.75     -28.44       1.84       0.00       0.00       0.05       1.08       ----

> <Gold.PLP.Fitness>
31.7473

> <Gold.PLP.PLP>
-28.4396

> <Gold.PLP.part.hbond>
-2.0000

> <Gold.PLP.part.metal>
0.0000

> <Gold.PLP.part.buried>
-1.0627

> <Gold.PLP.part.nonpolar>
-28.9464

> <Gold.PLP.part.repulsive>
3.1783

> <Gold.PLP.ligand.clash>
0.0492

> <Gold.PLP.ligand.torsion>
1.0789

> <Gold.PLP.Chemscore.Hbond>
1.8382

> <Gold.PLP.Chemscore.CHOScore>
0.0000

> <Gold.PLP.Chemscore.Metal>
0.0000

> <Gold.Chemscore.Hbonds>
donor molecule, donor type, donor heavy atom, donor atom, acceptor molecule, acceptor atom, score
      L1  H     8    22       P1 13334  1.00
      P1  H  5607  5625       L1    11  0.75

> <Gold.PLP.Chemscore.Internal.Correction>
   9.000000E+99

