#       Name:                CT1002167954
#       Creating user name   hitesit
#       Creation time:       Sun Apr 16 20:16:35 2023


#       File generated by GOLD software.
#

@<TRIPOS>MOLECULE
CT1002167954|ligand_prepared|mol2|1|dock4
    29    30     1
SMALL
NO_CHARGES


@<TRIPOS>ATOM
      1 C1         125.3575 139.6383  96.5629 C.3            1 RES1               0.0000
      2 C2         126.2540 139.8786  97.7947 C.ar           1 RES1               0.0000
      3 C3         125.8549 140.5900  95.4788 C.2            1 RES1               0.0000
      4 C4         125.5041 138.1623  96.2100 C.2            1 RES1               0.0000
      5 C5         123.8586 139.9224  96.8160 C.3            1 RES1               0.0000
      6 C6         127.3545 139.0628  98.0402 C.ar           1 RES1               0.0000
      7 C7         125.9953 140.9118  98.6915 C.ar           1 RES1               0.0000
      8 N8         126.5601 140.0536  94.4421 N.am           1 RES1               0.0000
      9 O9         125.6653 141.7978  95.5528 O.2            1 RES1               0.0000
     10 N10        126.0973 137.8433  95.0166 N.am           1 RES1               0.0000
     11 O11        125.1263 137.2724  96.9620 O.2            1 RES1               0.0000
     12 C12        122.9518 139.4940  95.6731 C.3            1 RES1               0.0000
     13 C13        128.1686 139.2740  99.1406 C.ar           1 RES1               0.0000
     14 C14        126.8105 141.1211  99.7915 C.ar           1 RES1               0.0000
     15 C15        126.6597 138.7214  94.1307 C.2            1 RES1               0.0000
     16 C16        127.8975 140.3034 100.0166 C.ar           1 RES1               0.0000
     17 O17        127.2238 138.3542  93.1040 O.2            1 RES1               0.0000
     18 H18        123.5489 139.3977  97.7282 H              1 RES1               0.0000
     19 H19        123.7270 140.9980  96.9869 H              1 RES1               0.0000
     20 H20        127.5821 138.2462  97.3631 H              1 RES1               0.0000
     21 H21        125.1450 141.5669  98.5349 H              1 RES1               0.0000
     22 H22        127.0597 140.7030  93.8430 H              1 RES1               0.0000
     23 H23        126.1219 136.8601  94.7654 H              1 RES1               0.0000
     24 H24        121.9116 139.7159  95.9021 H              1 RES1               0.0000
     25 H25        123.2154 140.0154  94.7553 H              1 RES1               0.0000
     26 H26        123.0383 138.4246  95.4922 H              1 RES1               0.0000
     27 H27        129.0220 138.6269  99.3141 H              1 RES1               0.0000
     28 H28        126.5931 141.9321 100.4786 H              1 RES1               0.0000
     29 H29        128.5356 140.4689 100.8784 H              1 RES1               0.0000
@<TRIPOS>BOND
    1    1    2 1     
    2    1    3 1     
    3    1    4 1     
    4    1    5 1     
    5    2    6 ar    
    6    2    7 ar    
    7    3    8 1     
    8    3    9 2     
    9    4   10 1     
   10    4   11 2     
   11    5   12 1     
   12    5   18 1     
   13    5   19 1     
   14    6   13 ar    
   15    6   20 1     
   16    7   14 ar    
   17    7   21 1     
   18    8   15 1     
   19    8   22 1     
   20   10   15 1     
   21   10   23 1     
   22   12   24 1     
   23   12   25 1     
   24   12   26 1     
   25   13   16 ar    
   26   13   27 1     
   27   14   16 ar    
   28   14   28 1     
   29   15   17 2     
   30   16   29 1     
@<TRIPOS>SUBSTRUCTURE
      1 RES1           1
@<TRIPOS>SET
DONOR_HYDROGENS      STATIC     ATOMS    <user>   **** ""
2 22 23
ATOM$RED        STATIC     ATOMS    COLORGROUP SYSTEM
2 22 23
@<TRIPOS>COMMENT
> <Gold.Version>
2022.3.0

> <Gold.Id.Protein>
unknown|7rmi_clean|pdb

> <Gold.Protein.RotatedTorsions>
[ 4415 4410 4409 4407 ] final -143.98 input   60.00 | X-H torsion
[ 7286 7277 7276 7274 ] final  169.85 input   59.98 | X-H torsion
[ 7448 7439 7438 7436 ] final  -15.78 input   59.99 | X-H torsion
[ 5718 5713 5712 5709 ] final   31.23 input   60.00 | X-H torsion
[ 4305 4286 4285 4282 ] final  151.81 input   60.01 | X-H torsion
[ 6139 6130 6129 6127 ] final  161.49 input   59.98 | X-H torsion
[ 6227 6224 6223 6220 ] final -148.33 input   60.02 | X-H torsion
[ 7183 7174 7173 7171 ] final  -51.39 input   60.02 | X-H torsion

> <Gold.Protein.ActiveResidues>
 GLN24   PHE25   GLN27   MET81   PHE84   ASN85   THR86   VAL88   ASN89   PHE90  
 TYR92   ALA93   VAL94   HIS95   ASN96   GLU97   TRP98   TYR100  TYR104  CYS105 
 HIS108  ASN109  PRO112  ILE113  ALA114  ALA115  VAL116  PHE117  LEU161  ALA162 
 GLN165  SER169  THR170  GLU172  MET174  PRO175  ARG177  VAL178  VAL179  CYS180 
 MET181  ILE182  GLU183  TRP184  TYR196  HIS197  VAL200  THR201  ILE204  TRP261 
 PHE264  HIS265  PHE267  PHE268  LEU269  PRO271  TYR272  PRO275  LEU277  TYR278 
 LEU279  LYS280  LYS281  PHE282  ILE283  GLN284  GLN285  VAL286  TYR287  LEU288 
 ILE290  MET291  ALA294  MET295 

> <Gold.Protein.RotatedAtoms>
  123.0188  138.1911  111.5978 H   0  0  0  0  0  0  0  0  0  0  0  0  # atno 4305 bound_to 4286
  126.4510  144.8205   96.0293 H   0  0  0  0  0  0  0  0  0  0  0  0  # atno 4415 bound_to 4410
  132.6137  149.8194   99.6583 H   0  0  0  0  0  0  0  0  0  0  0  0  # atno 5718 bound_to 5713
  138.4080  141.9459  104.5768 H   0  0  0  0  0  0  0  0  0  0  0  0  # atno 6139 bound_to 6130
  139.0019  131.1950  102.6468 H   0  0  0  0  0  0  0  0  0  0  0  0  # atno 6227 bound_to 6224
  139.1756  138.7262   96.2159 H   0  0  0  0  0  0  0  0  0  0  0  0  # atno 7183 bound_to 7174
  131.5056  135.3032   94.4817 H   0  0  0  0  0  0  0  0  0  0  0  0  # atno 7286 bound_to 7277
  127.1491  139.0911  102.3497 H   0  0  0  0  0  0  0  0  0  0  0  0  # atno 7448 bound_to 7439
  126.7245  146.3395   96.5450 LP  0  0  0  0  0  0  0  0  0  0  0  0  # atno 14307 bound_to 4410
  125.4700  146.0262   95.5477 LP  0  0  0  0  0  0  0  0  0  0  0  0  # atno 14308 bound_to 4410
  132.7603  134.8067   93.5726 LP  0  0  0  0  0  0  0  0  0  0  0  0  # atno 14309 bound_to 7277
  131.6201  133.7390   94.0486 LP  0  0  0  0  0  0  0  0  0  0  0  0  # atno 14310 bound_to 7277
  125.5687  139.3942  102.5923 LP  0  0  0  0  0  0  0  0  0  0  0  0  # atno 14329 bound_to 7439
  126.3745  140.1561  101.3937 LP  0  0  0  0  0  0  0  0  0  0  0  0  # atno 14330 bound_to 7439
  132.4392  151.2516  100.4112 LP  0  0  0  0  0  0  0  0  0  0  0  0  # atno 14371 bound_to 5713
  132.1851  149.8604  101.2277 LP  0  0  0  0  0  0  0  0  0  0  0  0  # atno 14372 bound_to 5713
  124.1054  138.9746  110.6741 LP  0  0  0  0  0  0  0  0  0  0  0  0  # atno 14387 bound_to 4286
  123.3521  137.6434  110.1022 LP  0  0  0  0  0  0  0  0  0  0  0  0  # atno 14388 bound_to 4286
  139.6299  142.5610  105.4588 LP  0  0  0  0  0  0  0  0  0  0  0  0  # atno 14389 bound_to 6130
  139.2077  140.9924  105.6258 LP  0  0  0  0  0  0  0  0  0  0  0  0  # atno 14390 bound_to 6130
  139.6162  132.7021  102.6662 LP  0  0  0  0  0  0  0  0  0  0  0  0  # atno 14404 bound_to 6224
  138.6029  132.2152  103.8506 LP  0  0  0  0  0  0  0  0  0  0  0  0  # atno 14405 bound_to 6224
  138.4296  137.8037   97.3300 LP  0  0  0  0  0  0  0  0  0  0  0  0  # atno 14408 bound_to 7174
  137.6229  138.2909   95.9963 LP  0  0  0  0  0  0  0  0  0  0  0  0  # atno 14409 bound_to 7174

> <Gold.Score>
     Fitness  S(hb_ext) S(vdw_ext)  S(hb_int)    S(int)      intcor
     33.81       0.00      25.24       0.00      -0.90      -0.77

> <Gold.Goldscore.Fitness>
33.8061

> <Gold.Goldscore.Internal.Vdw>
-1.1854

> <Gold.Goldscore.Internal.Torsion>
-0.4791

> <Gold.Goldscore.External.Vdw>
25.2402

> <Gold.Goldscore.Internal.HBond>
0.0000

> <Gold.Goldscore.External.HBond>
0.0000

> <Gold.Goldscore.Internal.Correction>
-0.7653

> <Gold.Goldscore.Internal.Vdw.Weighted>
-1.1854

> <Gold.Goldscore.Internal.Torsion.Weighted>
-0.4791

> <Gold.Goldscore.External.Vdw.Weighted>
34.7053

> <Gold.Goldscore.Internal.HBond.Weighted>
0.0000

> <Gold.Goldscore.External.HBond.Weighted>
0.0000

> <Gold.Goldscore.Internal.Correction.Weighted>
-0.7653

> <Gold.Rescore>
     Score     S(PLP)   S(hbond)     S(cho)   S(metal)  DE(clash)   DE(tors)     intcor
     37.03     -39.31       0.02       0.00       0.00       1.50       0.42       ----

> <Gold.PLP.Fitness>
37.0273

> <Gold.PLP.PLP>
-39.3115

> <Gold.PLP.part.hbond>
-1.0000

> <Gold.PLP.part.metal>
0.0000

> <Gold.PLP.part.buried>
-3.2294

> <Gold.PLP.part.nonpolar>
-36.0308

> <Gold.PLP.part.repulsive>
0.2737

> <Gold.PLP.ligand.clash>
1.4974

> <Gold.PLP.ligand.torsion>
0.4230

> <Gold.PLP.Chemscore.Hbond>
0.0197

> <Gold.PLP.Chemscore.CHOScore>
0.0000

> <Gold.PLP.Chemscore.Metal>
0.0000

> <Gold.Chemscore.Hbonds>
donor molecule, donor type, donor heavy atom, donor atom, acceptor molecule, acceptor atom, score
      P1  H  4470  4473       L1     9  0.08

> <Gold.PLP.Chemscore.Internal.Correction>
   9.000000E+99

