#       Name:                CT1002167954
#       Creating user name   hitesit
#       Creation time:       Sun Apr 16 20:16:38 2023


#       File generated by GOLD software.
#

@<TRIPOS>MOLECULE
CT1002167954|ligand_prepared|mol2|1|dock5
    29    30     1
SMALL
NO_CHARGES


@<TRIPOS>ATOM
      1 C1         126.0067 139.1931  95.8581 C.3            1 RES1               0.0000
      2 C2         124.5494 139.3953  95.3951 C.ar           1 RES1               0.0000
      3 C3         126.4123 137.7958  95.3983 C.2            1 RES1               0.0000
      4 C4         126.8165 140.3170  95.2212 C.2            1 RES1               0.0000
      5 C5         126.1930 139.2792  97.3908 C.3            1 RES1               0.0000
      6 C6         124.0117 138.6065  94.3825 C.ar           1 RES1               0.0000
      7 C7         123.7313 140.3630  95.9719 C.ar           1 RES1               0.0000
      8 N8         127.2667 137.7022  94.3394 N.am           1 RES1               0.0000
      9 O9         125.9584 136.7908  95.9315 O.2            1 RES1               0.0000
     10 N10        127.7620 139.9786  94.2890 N.am           1 RES1               0.0000
     11 O11        126.6327 141.4941  95.5061 O.2            1 RES1               0.0000
     12 C12        127.5955 138.9244  97.8589 C.3            1 RES1               0.0000
     13 C13        122.7025 138.7768  93.9637 C.ar           1 RES1               0.0000
     14 C14        122.4224 140.5319  95.5514 C.ar           1 RES1               0.0000
     15 C15        128.0026 138.7248  93.7968 C.2            1 RES1               0.0000
     16 C16        121.9069 139.7392  94.5481 C.ar           1 RES1               0.0000
     17 O17        128.8327 138.5074  92.9188 O.2            1 RES1               0.0000
     18 H18        125.9591 140.2998  97.7181 H              1 RES1               0.0000
     19 H19        125.4779 138.6006  97.8722 H              1 RES1               0.0000
     20 H20        124.6234 137.8457  93.9092 H              1 RES1               0.0000
     21 H21        124.1158 140.9988  96.7622 H              1 RES1               0.0000
     22 H22        127.3677 136.7874  93.9115 H              1 RES1               0.0000
     23 H23        128.3403 140.7310  93.9287 H              1 RES1               0.0000
     24 H24        127.6718 139.0009  98.9415 H              1 RES1               0.0000
     25 H25        127.8519 137.9066  97.5722 H              1 RES1               0.0000
     26 H26        128.3303 139.5957  97.4191 H              1 RES1               0.0000
     27 H27        122.3020 138.1513  93.1727 H              1 RES1               0.0000
     28 H28        121.8000 141.2909  96.0137 H              1 RES1               0.0000
     29 H29        120.8813 139.8722  94.2201 H              1 RES1               0.0000
@<TRIPOS>BOND
    1    1    2 1     
    2    1    3 1     
    3    1    4 1     
    4    1    5 1     
    5    2    6 ar    
    6    2    7 ar    
    7    3    8 1     
    8    3    9 2     
    9    4   10 1     
   10    4   11 2     
   11    5   12 1     
   12    5   18 1     
   13    5   19 1     
   14    6   13 ar    
   15    6   20 1     
   16    7   14 ar    
   17    7   21 1     
   18    8   15 1     
   19    8   22 1     
   20   10   15 1     
   21   10   23 1     
   22   12   24 1     
   23   12   25 1     
   24   12   26 1     
   25   13   16 ar    
   26   13   27 1     
   27   14   16 ar    
   28   14   28 1     
   29   15   17 2     
   30   16   29 1     
@<TRIPOS>SUBSTRUCTURE
      1 RES1           1
@<TRIPOS>SET
DONOR_HYDROGENS      STATIC     ATOMS    <user>   **** ""
2 22 23
ATOM$RED        STATIC     ATOMS    COLORGROUP SYSTEM
2 22 23
@<TRIPOS>COMMENT
> <Gold.Version>
2022.3.0

> <Gold.Id.Protein>
unknown|7rmi_clean|pdb

> <Gold.Protein.RotatedTorsions>
[ 4415 4410 4409 4407 ] final -167.75 input   60.00 | X-H torsion
[ 7286 7277 7276 7274 ] final   91.30 input   59.98 | X-H torsion
[ 7448 7439 7438 7436 ] final   79.38 input   59.99 | X-H torsion
[ 5718 5713 5712 5709 ] final  -86.86 input   60.00 | X-H torsion
[ 4305 4286 4285 4282 ] final   77.15 input   60.01 | X-H torsion
[ 6139 6130 6129 6127 ] final -101.67 input   59.98 | X-H torsion
[ 6227 6224 6223 6220 ] final  -77.31 input   60.02 | X-H torsion
[ 7183 7174 7173 7171 ] final  -52.47 input   60.02 | X-H torsion

> <Gold.Protein.ActiveResidues>
 GLN24   PHE25   GLN27   MET81   PHE84   ASN85   THR86   VAL88   ASN89   PHE90  
 TYR92   ALA93   VAL94   HIS95   ASN96   GLU97   TRP98   TYR100  TYR104  CYS105 
 HIS108  ASN109  PRO112  ILE113  ALA114  ALA115  VAL116  PHE117  LEU161  ALA162 
 GLN165  SER169  THR170  GLU172  MET174  PRO175  ARG177  VAL178  VAL179  CYS180 
 MET181  ILE182  GLU183  TRP184  TYR196  HIS197  VAL200  THR201  ILE204  TRP261 
 PHE264  HIS265  PHE267  PHE268  LEU269  PRO271  TYR272  PRO275  LEU277  TYR278 
 LEU279  LYS280  LYS281  PHE282  ILE283  GLN284  GLN285  VAL286  TYR287  LEU288 
 ILE290  MET291  ALA294  MET295 

> <Gold.Protein.RotatedAtoms>
  123.7815  138.9856  111.3218 H   0  0  0  0  0  0  0  0  0  0  0  0  # atno 4305 bound_to 4286
  126.7209  144.9697   96.2607 H   0  0  0  0  0  0  0  0  0  0  0  0  # atno 4415 bound_to 4410
  132.4490  151.2436  100.3816 H   0  0  0  0  0  0  0  0  0  0  0  0  # atno 5718 bound_to 5713
  138.9212  140.9262  105.3895 H   0  0  0  0  0  0  0  0  0  0  0  0  # atno 6139 bound_to 6130
  138.5016  131.4976  103.5643 H   0  0  0  0  0  0  0  0  0  0  0  0  # atno 6227 bound_to 6224
  139.1841  138.7209   96.2303 H   0  0  0  0  0  0  0  0  0  0  0  0  # atno 7183 bound_to 7174
  132.5103  135.3540   93.8554 H   0  0  0  0  0  0  0  0  0  0  0  0  # atno 7286 bound_to 7277
  126.7553  140.0211  101.4058 H   0  0  0  0  0  0  0  0  0  0  0  0  # atno 7448 bound_to 7439
  126.4525  146.5695   96.3904 LP  0  0  0  0  0  0  0  0  0  0  0  0  # atno 14307 bound_to 4410
  125.4702  145.6460   95.4691 LP  0  0  0  0  0  0  0  0  0  0  0  0  # atno 14308 bound_to 4410
  132.1859  133.7677   93.6958 LP  0  0  0  0  0  0  0  0  0  0  0  0  # atno 14309 bound_to 7277
  131.1827  134.7268   94.5562 LP  0  0  0  0  0  0  0  0  0  0  0  0  # atno 14310 bound_to 7277
  126.8866  138.9468  102.6211 LP  0  0  0  0  0  0  0  0  0  0  0  0  # atno 14329 bound_to 7439
  125.4532  139.6669  102.3155 LP  0  0  0  0  0  0  0  0  0  0  0  0  # atno 14330 bound_to 7439
  132.1819  149.8882  101.2418 LP  0  0  0  0  0  0  0  0  0  0  0  0  # atno 14371 bound_to 5713
  132.6084  149.7894   99.6686 LP  0  0  0  0  0  0  0  0  0  0  0  0  # atno 14372 bound_to 5713
  123.8404  138.1521  109.9255 LP  0  0  0  0  0  0  0  0  0  0  0  0  # atno 14387 bound_to 4286
  122.8492  137.6660  111.1288 LP  0  0  0  0  0  0  0  0  0  0  0  0  # atno 14388 bound_to 4286
  138.5526  142.2942  104.5882 LP  0  0  0  0  0  0  0  0  0  0  0  0  # atno 14389 bound_to 6130
  139.7685  142.2855  105.6783 LP  0  0  0  0  0  0  0  0  0  0  0  0  # atno 14390 bound_to 6130
  139.4660  131.6931  102.2679 LP  0  0  0  0  0  0  0  0  0  0  0  0  # atno 14404 bound_to 6224
  139.2567  132.9196  103.3255 LP  0  0  0  0  0  0  0  0  0  0  0  0  # atno 14405 bound_to 6224
  138.4127  137.7990   97.3275 LP  0  0  0  0  0  0  0  0  0  0  0  0  # atno 14408 bound_to 7174
  137.6311  138.3009   95.9844 LP  0  0  0  0  0  0  0  0  0  0  0  0  # atno 14409 bound_to 7174

> <Gold.Score>
     Fitness  S(hb_ext) S(vdw_ext)  S(hb_int)    S(int)      intcor
     35.63       0.00      26.83       0.00      -1.25      -0.77

> <Gold.Goldscore.Fitness>
35.6343

> <Gold.Goldscore.Internal.Vdw>
-1.5783

> <Gold.Goldscore.Internal.Torsion>
-0.4382

> <Gold.Goldscore.External.Vdw>
26.8258

> <Gold.Goldscore.Internal.HBond>
0.0000

> <Gold.Goldscore.External.HBond>
0.0000

> <Gold.Goldscore.Internal.Correction>
-0.7653

> <Gold.Goldscore.Internal.Vdw.Weighted>
-1.5783

> <Gold.Goldscore.Internal.Torsion.Weighted>
-0.4382

> <Gold.Goldscore.External.Vdw.Weighted>
36.8854

> <Gold.Goldscore.Internal.HBond.Weighted>
0.0000

> <Gold.Goldscore.External.HBond.Weighted>
0.0000

> <Gold.Goldscore.Internal.Correction.Weighted>
-0.7653

> <Gold.Rescore>
     Score     S(PLP)   S(hbond)     S(cho)   S(metal)  DE(clash)   DE(tors)     intcor
     38.08     -40.41       0.00       0.00       0.00       1.19       0.57       ----

> <Gold.PLP.Fitness>
38.0787

> <Gold.PLP.PLP>
-40.4110

> <Gold.PLP.part.hbond>
0.0000

> <Gold.PLP.part.metal>
0.0000

> <Gold.PLP.part.buried>
-5.3757

> <Gold.PLP.part.nonpolar>
-35.7882

> <Gold.PLP.part.repulsive>
0.1400

> <Gold.PLP.ligand.clash>
1.1859

> <Gold.PLP.ligand.torsion>
0.5732

> <Gold.PLP.Chemscore.Hbond>
0.0000

> <Gold.PLP.Chemscore.CHOScore>
0.0000

> <Gold.PLP.Chemscore.Metal>
0.0000

> <Gold.PLP.Chemscore.Internal.Correction>
   9.000000E+99

