#       Name:                CT1002167954
#       Creating user name   hitesit
#       Creation time:       Sun Apr 16 20:16:40 2023


#       File generated by GOLD software.
#

@<TRIPOS>MOLECULE
CT1002167954|ligand_prepared|mol2|1|dock7
    29    30     1
SMALL
NO_CHARGES


@<TRIPOS>ATOM
      1 C1         128.6941 141.6795 100.4427 C.3            1 RES1               0.0000
      2 C2         127.9413 140.6958  99.5239 C.ar           1 RES1               0.0000
      3 C3         129.1965 142.8060  99.5444 C.2            1 RES1               0.0000
      4 C4         127.6916 142.1274 101.5006 C.2            1 RES1               0.0000
      5 C5         129.9070 141.0525 101.1691 C.3            1 RES1               0.0000
      6 C6         126.6120 140.9229  99.1805 C.ar           1 RES1               0.0000
      7 C7         128.5626 139.5603  99.0106 C.ar           1 RES1               0.0000
      8 N8         128.5579 144.0085  99.6221 N.am           1 RES1               0.0000
      9 O9         130.1132 142.6303  98.7514 O.2            1 RES1               0.0000
     10 N10        127.3108 143.4437 101.5077 N.am           1 RES1               0.0000
     11 O11        127.2154 141.3488 102.3174 O.2            1 RES1               0.0000
     12 C12        130.4958 141.9382 102.2558 C.3            1 RES1               0.0000
     13 C13        125.9292 140.0482  98.3516 C.ar           1 RES1               0.0000
     14 C14        127.8778 138.6868  98.1820 C.ar           1 RES1               0.0000
     15 C15        127.6751 144.3979 100.5972 C.2            1 RES1               0.0000
     16 C16        126.5616 138.9299  97.8515 C.ar           1 RES1               0.0000
     17 O17        127.2477 145.5480 100.6381 O.2            1 RES1               0.0000
     18 H18        129.5963 140.1013 101.6185 H              1 RES1               0.0000
     19 H19        130.6875 140.8349 100.4296 H              1 RES1               0.0000
     20 H20        126.0970 141.7963  99.5664 H              1 RES1               0.0000
     21 H21        129.5972 139.3483  99.2581 H              1 RES1               0.0000
     22 H22        128.7550 144.6804  98.8873 H              1 RES1               0.0000
     23 H23        126.6992 143.7398 102.2618 H              1 RES1               0.0000
     24 H24        131.3434 141.4511 102.7332 H              1 RES1               0.0000
     25 H25        130.8383 142.8833 101.8397 H              1 RES1               0.0000
     26 H26        129.7536 142.1541 103.0216 H              1 RES1               0.0000
     27 H27        124.8930 140.2433  98.0956 H              1 RES1               0.0000
     28 H28        128.3794 137.8076  97.7912 H              1 RES1               0.0000
     29 H29        126.0266 138.2451  97.2019 H              1 RES1               0.0000
@<TRIPOS>BOND
    1    1    2 1     
    2    1    3 1     
    3    1    4 1     
    4    1    5 1     
    5    2    6 ar    
    6    2    7 ar    
    7    3    8 1     
    8    3    9 2     
    9    4   10 1     
   10    4   11 2     
   11    5   12 1     
   12    5   18 1     
   13    5   19 1     
   14    6   13 ar    
   15    6   20 1     
   16    7   14 ar    
   17    7   21 1     
   18    8   15 1     
   19    8   22 1     
   20   10   15 1     
   21   10   23 1     
   22   12   24 1     
   23   12   25 1     
   24   12   26 1     
   25   13   16 ar    
   26   13   27 1     
   27   14   16 ar    
   28   14   28 1     
   29   15   17 2     
   30   16   29 1     
@<TRIPOS>SUBSTRUCTURE
      1 RES1           1
@<TRIPOS>SET
DONOR_HYDROGENS      STATIC     ATOMS    <user>   **** ""
2 22 23
ATOM$RED        STATIC     ATOMS    COLORGROUP SYSTEM
2 22 23
@<TRIPOS>COMMENT
> <Gold.Version>
2022.3.0

> <Gold.Id.Protein>
unknown|7rmi_clean|pdb

> <Gold.Protein.RotatedTorsions>
[ 4415 4410 4409 4407 ] final   45.97 input   60.00 | X-H torsion
[ 7286 7277 7276 7274 ] final  -38.33 input   59.98 | X-H torsion
[ 7448 7439 7438 7436 ] final -134.86 input   59.99 | X-H torsion
[ 5718 5713 5712 5709 ] final -148.34 input   60.00 | X-H torsion
[ 4305 4286 4285 4282 ] final  -58.95 input   60.01 | X-H torsion
[ 6139 6130 6129 6127 ] final -158.34 input   59.98 | X-H torsion
[ 6227 6224 6223 6220 ] final  -11.54 input   60.02 | X-H torsion
[ 7183 7174 7173 7171 ] final -112.90 input   60.02 | X-H torsion

> <Gold.Protein.ActiveResidues>
 GLN24   PHE25   GLN27   MET81   PHE84   ASN85   THR86   VAL88   ASN89   PHE90  
 TYR92   ALA93   VAL94   HIS95   ASN96   GLU97   TRP98   TYR100  TYR104  CYS105 
 HIS108  ASN109  PRO112  ILE113  ALA114  ALA115  VAL116  PHE117  LEU161  ALA162 
 GLN165  SER169  THR170  GLU172  MET174  PRO175  ARG177  VAL178  VAL179  CYS180 
 MET181  ILE182  GLU183  TRP184  TYR196  HIS197  VAL200  THR201  ILE204  TRP261 
 PHE264  HIS265  PHE267  PHE268  LEU269  PRO271  TYR272  PRO275  LEU277  TYR278 
 LEU279  LYS280  LYS281  PHE282  ILE283  GLN284  GLN285  VAL286  TYR287  LEU288 
 ILE290  MET291  ALA294  MET295 

> <Gold.Protein.RotatedAtoms>
  123.6734  137.9488  109.9328 H   0  0  0  0  0  0  0  0  0  0  0  0  # atno 4305 bound_to 4286
  126.1072  146.6496   96.1523 H   0  0  0  0  0  0  0  0  0  0  0  0  # atno 4415 bound_to 4410
  132.2160  150.8051  101.1999 H   0  0  0  0  0  0  0  0  0  0  0  0  # atno 5718 bound_to 5713
  138.4107  141.3389  104.7898 H   0  0  0  0  0  0  0  0  0  0  0  0  # atno 6139 bound_to 6130
  138.7301  132.4560  103.8170 H   0  0  0  0  0  0  0  0  0  0  0  0  # atno 6227 bound_to 6224
  139.1826  138.2438   97.0432 H   0  0  0  0  0  0  0  0  0  0  0  0  # atno 7183 bound_to 7174
  132.0517  133.7256   93.7679 H   0  0  0  0  0  0  0  0  0  0  0  0  # atno 7286 bound_to 7277
  125.5811  139.3839  102.5966 H   0  0  0  0  0  0  0  0  0  0  0  0  # atno 7448 bound_to 7439
  125.6171  145.2439   95.4951 LP  0  0  0  0  0  0  0  0  0  0  0  0  # atno 14307 bound_to 4410
  126.9239  145.2793   96.4737 LP  0  0  0  0  0  0  0  0  0  0  0  0  # atno 14308 bound_to 4410
  131.2255  134.8790   94.5644 LP  0  0  0  0  0  0  0  0  0  0  0  0  # atno 14309 bound_to 7277
  132.6049  135.2557   93.7758 LP  0  0  0  0  0  0  0  0  0  0  0  0  # atno 14310 bound_to 7277
  126.3598  140.1589  101.3960 LP  0  0  0  0  0  0  0  0  0  0  0  0  # atno 14329 bound_to 7439
  127.1625  139.0965  102.3413 LP  0  0  0  0  0  0  0  0  0  0  0  0  # atno 14330 bound_to 7439
  132.3841  149.3672  100.4564 LP  0  0  0  0  0  0  0  0  0  0  0  0  # atno 14371 bound_to 5713
  132.6408  150.7520   99.6299 LP  0  0  0  0  0  0  0  0  0  0  0  0  # atno 14372 bound_to 5713
  122.8656  137.8235  111.3398 LP  0  0  0  0  0  0  0  0  0  0  0  0  # atno 14387 bound_to 4286
  123.9328  139.0385  111.1131 LP  0  0  0  0  0  0  0  0  0  0  0  0  # atno 14388 bound_to 4286
  139.2002  142.7450  105.0107 LP  0  0  0  0  0  0  0  0  0  0  0  0  # atno 14389 bound_to 6130
  139.6348  141.4193  105.8595 LP  0  0  0  0  0  0  0  0  0  0  0  0  # atno 14390 bound_to 6130
  138.8336  131.1452  102.8577 LP  0  0  0  0  0  0  0  0  0  0  0  0  # atno 14404 bound_to 6224
  139.6591  132.5030  102.4814 LP  0  0  0  0  0  0  0  0  0  0  0  0  # atno 14405 bound_to 6224
  137.6296  137.8269   96.7922 LP  0  0  0  0  0  0  0  0  0  0  0  0  # atno 14408 bound_to 7174
  138.4157  138.7534   95.7013 LP  0  0  0  0  0  0  0  0  0  0  0  0  # atno 14409 bound_to 7174

> <Gold.Score>
     Fitness  S(hb_ext) S(vdw_ext)  S(hb_int)    S(int)      intcor
     32.38       1.31      22.73       0.00      -0.18      -0.76

> <Gold.Goldscore.Fitness>
32.3840

> <Gold.Goldscore.Internal.Vdw>
-0.4029

> <Gold.Goldscore.Internal.Torsion>
-0.5337

> <Gold.Goldscore.External.Vdw>
22.7314

> <Gold.Goldscore.Internal.HBond>
0.0000

> <Gold.Goldscore.External.HBond>
1.3064

> <Gold.Goldscore.Internal.Correction>
-0.7585

> <Gold.Goldscore.Hbonds>
donor molecule, donor type, donor heavy atom, donor atom, acceptor molecule, acceptor atom, score
      L1  H     8    22       P1  5901  0.65

> <Gold.Goldscore.Internal.Vdw.Weighted>
-0.4029

> <Gold.Goldscore.Internal.Torsion.Weighted>
-0.5337

> <Gold.Goldscore.External.Vdw.Weighted>
31.2557

> <Gold.Goldscore.Internal.HBond.Weighted>
0.0000

> <Gold.Goldscore.External.HBond.Weighted>
1.3064

> <Gold.Goldscore.Internal.Correction.Weighted>
-0.7585

> <Gold.Rescore>
     Score     S(PLP)   S(hbond)     S(cho)   S(metal)  DE(clash)   DE(tors)     intcor
     36.21     -33.58       1.00       0.00       0.00       0.00       0.19       ----

> <Gold.PLP.Fitness>
36.2069

> <Gold.PLP.PLP>
-33.5817

> <Gold.PLP.part.hbond>
-1.9177

> <Gold.PLP.part.metal>
0.0000

> <Gold.PLP.part.buried>
-5.0557

> <Gold.PLP.part.nonpolar>
-27.5041

> <Gold.PLP.part.repulsive>
0.2867

> <Gold.PLP.ligand.clash>
0.0000

> <Gold.PLP.ligand.torsion>
0.1874

> <Gold.PLP.Chemscore.Hbond>
1.0000

> <Gold.PLP.Chemscore.CHOScore>
0.0000

> <Gold.PLP.Chemscore.Metal>
0.0000

> <Gold.Chemscore.Hbonds>
donor molecule, donor type, donor heavy atom, donor atom, acceptor molecule, acceptor atom, score
      L1  H     8    22       P1  5901  0.41
      L1  H    10    23       P1  4347  0.02

> <Gold.PLP.Chemscore.Internal.Correction>
   9.000000E+99

