#       Name:                CT1002167954
#       Creating user name   hitesit
#       Creation time:       Sun Apr 16 20:16:42 2023


#       File generated by GOLD software.
#

@<TRIPOS>MOLECULE
CT1002167954|ligand_prepared|mol2|1|dock8
    29    30     1
SMALL
NO_CHARGES


@<TRIPOS>ATOM
      1 C1         129.1199 142.8412 101.5849 C.3            1 RES1               0.0000
      2 C2         129.4825 142.4071 103.0198 C.ar           1 RES1               0.0000
      3 C3         129.9958 142.0104 100.6517 C.2            1 RES1               0.0000
      4 C4         127.6251 142.5855 101.4268 C.2            1 RES1               0.0000
      5 C5         129.3811 144.3386 101.3002 C.3            1 RES1               0.0000
      6 C6         130.1628 143.2725 103.8713 C.ar           1 RES1               0.0000
      7 C7         129.1418 141.1478 103.5062 C.ar           1 RES1               0.0000
      8 N8         129.3984 140.9998  99.9577 N.am           1 RES1               0.0000
      9 O9         131.1998 142.2137 100.5561 O.2            1 RES1               0.0000
     10 N10        127.2288 141.6280 100.5301 N.am           1 RES1               0.0000
     11 O11        126.7877 143.1927 102.0827 O.2            1 RES1               0.0000
     12 C12        128.8850 144.7995  99.9388 C.3            1 RES1               0.0000
     13 C13        130.4881 142.8939 105.1632 C.ar           1 RES1               0.0000
     14 C14        129.4683 140.7710 104.7984 C.ar           1 RES1               0.0000
     15 C15        128.0490 140.8022  99.8108 C.2            1 RES1               0.0000
     16 C16        130.1407 141.6432 105.6278 C.ar           1 RES1               0.0000
     17 O17        127.6172 139.9278  99.0650 O.2            1 RES1               0.0000
     18 H18        128.8885 144.9368 102.0767 H              1 RES1               0.0000
     19 H19        130.4598 144.5275 101.3654 H              1 RES1               0.0000
     20 H20        130.4466 144.2598 103.5224 H              1 RES1               0.0000
     21 H21        128.6135 140.4448 102.8711 H              1 RES1               0.0000
     22 H22        130.0119 140.3288  99.5062 H              1 RES1               0.0000
     23 H23        126.2298 141.5212 100.3854 H              1 RES1               0.0000
     24 H24        129.0932 145.8570  99.7901 H              1 RES1               0.0000
     25 H25        129.3731 144.2427  99.1416 H              1 RES1               0.0000
     26 H26        127.8111 144.6496  99.8486 H              1 RES1               0.0000
     27 H27        131.0186 143.5835 105.8115 H              1 RES1               0.0000
     28 H28        129.1935 139.7855 105.1597 H              1 RES1               0.0000
     29 H29        130.3953 141.3470 106.6400 H              1 RES1               0.0000
@<TRIPOS>BOND
    1    1    2 1     
    2    1    3 1     
    3    1    4 1     
    4    1    5 1     
    5    2    6 ar    
    6    2    7 ar    
    7    3    8 1     
    8    3    9 2     
    9    4   10 1     
   10    4   11 2     
   11    5   12 1     
   12    5   18 1     
   13    5   19 1     
   14    6   13 ar    
   15    6   20 1     
   16    7   14 ar    
   17    7   21 1     
   18    8   15 1     
   19    8   22 1     
   20   10   15 1     
   21   10   23 1     
   22   12   24 1     
   23   12   25 1     
   24   12   26 1     
   25   13   16 ar    
   26   13   27 1     
   27   14   16 ar    
   28   14   28 1     
   29   15   17 2     
   30   16   29 1     
@<TRIPOS>SUBSTRUCTURE
      1 RES1           1
@<TRIPOS>SET
DONOR_HYDROGENS      STATIC     ATOMS    <user>   **** ""
2 22 23
ATOM$RED        STATIC     ATOMS    COLORGROUP SYSTEM
2 22 23
@<TRIPOS>COMMENT
> <Gold.Version>
2022.3.0

> <Gold.Id.Protein>
unknown|7rmi_clean|pdb

> <Gold.Protein.RotatedTorsions>
[ 4415 4410 4409 4407 ] final -156.44 input   60.00 | X-H torsion
[ 7286 7277 7276 7274 ] final  155.27 input   59.98 | X-H torsion
[ 7448 7439 7438 7436 ] final  -30.48 input   59.99 | X-H torsion
[ 5718 5713 5712 5709 ] final  -95.67 input   60.00 | X-H torsion
[ 4305 4286 4285 4282 ] final  -86.27 input   60.01 | X-H torsion
[ 6139 6130 6129 6127 ] final  -65.31 input   59.98 | X-H torsion
[ 6227 6224 6223 6220 ] final -137.22 input   60.02 | X-H torsion
[ 7183 7174 7173 7171 ] final  -13.57 input   60.02 | X-H torsion

> <Gold.Protein.ActiveResidues>
 GLN24   PHE25   GLN27   MET81   PHE84   ASN85   THR86   VAL88   ASN89   PHE90  
 TYR92   ALA93   VAL94   HIS95   ASN96   GLU97   TRP98   TYR100  TYR104  CYS105 
 HIS108  ASN109  PRO112  ILE113  ALA114  ALA115  VAL116  PHE117  LEU161  ALA162 
 GLN165  SER169  THR170  GLU172  MET174  PRO175  ARG177  VAL178  VAL179  CYS180 
 MET181  ILE182  GLU183  TRP184  TYR196  HIS197  VAL200  THR201  ILE204  TRP261 
 PHE264  HIS265  PHE267  PHE268  LEU269  PRO271  TYR272  PRO275  LEU277  TYR278 
 LEU279  LYS280  LYS281  PHE282  ILE283  GLN284  GLN285  VAL286  TYR287  LEU288 
 ILE290  MET291  ALA294  MET295 

> <Gold.Protein.RotatedAtoms>
  123.3720  137.6649  110.0884 H   0  0  0  0  0  0  0  0  0  0  0  0  # atno 4305 bound_to 4286
  126.6006  144.8805   96.1529 H   0  0  0  0  0  0  0  0  0  0  0  0  # atno 4415 bound_to 4410
  132.4111  151.2412  100.5203 H   0  0  0  0  0  0  0  0  0  0  0  0  # atno 5718 bound_to 5713
  139.3657  141.0998  105.7267 H   0  0  0  0  0  0  0  0  0  0  0  0  # atno 6139 bound_to 6130
  138.8913  131.1569  102.7853 H   0  0  0  0  0  0  0  0  0  0  0  0  # atno 6227 bound_to 6224
  138.7314  138.8023   95.8093 H   0  0  0  0  0  0  0  0  0  0  0  0  # atno 7183 bound_to 7174
  131.6848  135.4352   94.3986 H   0  0  0  0  0  0  0  0  0  0  0  0  # atno 7286 bound_to 7277
  127.0062  138.9951  102.5163 H   0  0  0  0  0  0  0  0  0  0  0  0  # atno 7448 bound_to 7439
  126.5900  146.4760   96.4733 LP  0  0  0  0  0  0  0  0  0  0  0  0  # atno 14307 bound_to 4410
  125.4538  145.8292   95.4948 LP  0  0  0  0  0  0  0  0  0  0  0  0  # atno 14308 bound_to 4410
  132.7515  134.5726   93.5237 LP  0  0  0  0  0  0  0  0  0  0  0  0  # atno 14309 bound_to 7277
  131.4484  133.8402   94.1812 LP  0  0  0  0  0  0  0  0  0  0  0  0  # atno 14310 bound_to 7277
  125.4804  139.5555  102.4361 LP  0  0  0  0  0  0  0  0  0  0  0  0  # atno 14329 bound_to 7439
  126.6066  140.0915  101.3821 LP  0  0  0  0  0  0  0  0  0  0  0  0  # atno 14330 bound_to 7439
  132.1988  149.7640  101.1693 LP  0  0  0  0  0  0  0  0  0  0  0  0  # atno 14371 bound_to 5713
  132.6295  149.9160   99.6015 LP  0  0  0  0  0  0  0  0  0  0  0  0  # atno 14372 bound_to 5713
  123.0033  138.1631  111.5930 LP  0  0  0  0  0  0  0  0  0  0  0  0  # atno 14387 bound_to 4286
  124.0986  138.9848  110.7032 LP  0  0  0  0  0  0  0  0  0  0  0  0  # atno 14388 bound_to 4286
  138.3644  141.7374  104.6132 LP  0  0  0  0  0  0  0  0  0  0  0  0  # atno 14389 bound_to 6130
  139.5092  142.6676  105.3138 LP  0  0  0  0  0  0  0  0  0  0  0  0  # atno 14390 bound_to 6130
  139.6501  132.5756  102.5391 LP  0  0  0  0  0  0  0  0  0  0  0  0  # atno 14404 bound_to 6224
  138.6803  132.3800  103.8383 LP  0  0  0  0  0  0  0  0  0  0  0  0  # atno 14405 bound_to 6224
  138.9770  138.0587   97.2359 LP  0  0  0  0  0  0  0  0  0  0  0  0  # atno 14408 bound_to 7174
  137.5227  137.9592   96.4998 LP  0  0  0  0  0  0  0  0  0  0  0  0  # atno 14409 bound_to 7174

> <Gold.Score>
     Fitness  S(hb_ext) S(vdw_ext)  S(hb_int)    S(int)      intcor
     31.58       0.00      23.47       0.00      -0.70      -0.76

> <Gold.Goldscore.Fitness>
31.5777

> <Gold.Goldscore.Internal.Vdw>
-1.0275

> <Gold.Goldscore.Internal.Torsion>
-0.4268

> <Gold.Goldscore.External.Vdw>
23.4717

> <Gold.Goldscore.Internal.HBond>
0.0000

> <Gold.Goldscore.External.HBond>
0.0000

> <Gold.Goldscore.Internal.Correction>
-0.7585

> <Gold.Goldscore.Internal.Vdw.Weighted>
-1.0275

> <Gold.Goldscore.Internal.Torsion.Weighted>
-0.4268

> <Gold.Goldscore.External.Vdw.Weighted>
32.2735

> <Gold.Goldscore.Internal.HBond.Weighted>
0.0000

> <Gold.Goldscore.External.HBond.Weighted>
0.0000

> <Gold.Goldscore.Internal.Correction.Weighted>
-0.7585

> <Gold.Rescore>
     Score     S(PLP)   S(hbond)     S(cho)   S(metal)  DE(clash)   DE(tors)     intcor
     31.05     -30.37       0.98       0.00       0.00       0.00       1.13       ----

> <Gold.PLP.Fitness>
31.0450

> <Gold.PLP.PLP>
-30.3707

> <Gold.PLP.part.hbond>
-2.0000

> <Gold.PLP.part.metal>
0.0000

> <Gold.PLP.part.buried>
-6.1862

> <Gold.PLP.part.nonpolar>
-24.6486

> <Gold.PLP.part.repulsive>
1.5287

> <Gold.PLP.ligand.clash>
0.0000

> <Gold.PLP.ligand.torsion>
1.1268

> <Gold.PLP.Chemscore.Hbond>
0.9760

> <Gold.PLP.Chemscore.CHOScore>
0.0000

> <Gold.PLP.Chemscore.Metal>
0.0000

> <Gold.PLP.Chemscore.Internal.Correction>
   9.000000E+99

