#       Name:                CT1002167954
#       Creating user name   hitesit
#       Creation time:       Sun Apr 16 20:16:43 2023


#       File generated by GOLD software.
#

@<TRIPOS>MOLECULE
CT1002167954|ligand_prepared|mol2|1|dock9
    29    30     1
SMALL
NO_CHARGES


@<TRIPOS>ATOM
      1 C1         129.1003 142.6264 101.6194 C.3            1 RES1               0.0000
      2 C2         129.3989 142.0930 103.0355 C.ar           1 RES1               0.0000
      3 C3         129.9687 141.8137 100.6636 C.2            1 RES1               0.0000
      4 C4         127.6017 142.4473 101.4033 C.2            1 RES1               0.0000
      5 C5         129.4343 144.1248 101.4329 C.3            1 RES1               0.0000
      6 C6         129.9655 142.9211 103.9998 C.ar           1 RES1               0.0000
      7 C7         129.1113 140.7783 103.3925 C.ar           1 RES1               0.0000
      8 N8         129.3508 140.8732  99.8932 N.am           1 RES1               0.0000
      9 O9         131.1828 141.9683 100.6151 O.2            1 RES1               0.0000
     10 N10        127.1931 141.5629 100.4396 N.am           1 RES1               0.0000
     11 O11        126.7709 143.0517 102.0702 O.2            1 RES1               0.0000
     12 C12        129.1172 144.6554 100.0436 C.3            1 RES1               0.0000
     13 C13        130.2322 142.4529 105.2757 C.ar           1 RES1               0.0000
     14 C14        129.3791 140.3120 104.6689 C.ar           1 RES1               0.0000
     15 C15        127.9994 140.7450  99.6959 C.2            1 RES1               0.0000
     16 C16        129.9389 141.1483 105.6112 C.ar           1 RES1               0.0000
     17 O17        127.5541 139.9361  98.8868 O.2            1 RES1               0.0000
     18 H18        128.8688 144.7071 102.1708 H              1 RES1               0.0000
     19 H19        130.5021 144.2762 101.6334 H              1 RES1               0.0000
     20 H20        130.2055 143.9501 103.7533 H              1 RES1               0.0000
     21 H21        128.6717 140.1021 102.6671 H              1 RES1               0.0000
     22 H22        129.9488 140.2032  99.4200 H              1 RES1               0.0000
     23 H23        126.1955 141.5095 100.2600 H              1 RES1               0.0000
     24 H24        129.3703 145.7107  99.9667 H              1 RES1               0.0000
     25 H25        129.6818 144.1154  99.2864 H              1 RES1               0.0000
     26 H26        128.0581 144.5437  99.8206 H              1 RES1               0.0000
     27 H27        130.6741 143.1147 106.0132 H              1 RES1               0.0000
     28 H28        129.1472 139.2843 104.9284 H              1 RES1               0.0000
     29 H29        130.1476 140.7818 106.6109 H              1 RES1               0.0000
@<TRIPOS>BOND
    1    1    2 1     
    2    1    3 1     
    3    1    4 1     
    4    1    5 1     
    5    2    6 ar    
    6    2    7 ar    
    7    3    8 1     
    8    3    9 2     
    9    4   10 1     
   10    4   11 2     
   11    5   12 1     
   12    5   18 1     
   13    5   19 1     
   14    6   13 ar    
   15    6   20 1     
   16    7   14 ar    
   17    7   21 1     
   18    8   15 1     
   19    8   22 1     
   20   10   15 1     
   21   10   23 1     
   22   12   24 1     
   23   12   25 1     
   24   12   26 1     
   25   13   16 ar    
   26   13   27 1     
   27   14   16 ar    
   28   14   28 1     
   29   15   17 2     
   30   16   29 1     
@<TRIPOS>SUBSTRUCTURE
      1 RES1           1
@<TRIPOS>SET
DONOR_HYDROGENS      STATIC     ATOMS    <user>   **** ""
2 22 23
ATOM$RED        STATIC     ATOMS    COLORGROUP SYSTEM
2 22 23
@<TRIPOS>COMMENT
> <Gold.Version>
2022.3.0

> <Gold.Id.Protein>
unknown|7rmi_clean|pdb

> <Gold.Protein.RotatedTorsions>
[ 4415 4410 4409 4407 ] final  -57.00 input   60.00 | X-H torsion
[ 7286 7277 7276 7274 ] final  -44.02 input   59.98 | X-H torsion
[ 7448 7439 7438 7436 ] final -176.30 input   59.99 | X-H torsion
[ 5718 5713 5712 5709 ] final   83.59 input   60.00 | X-H torsion
[ 4305 4286 4285 4282 ] final  -30.23 input   60.01 | X-H torsion
[ 6139 6130 6129 6127 ] final  -70.03 input   59.98 | X-H torsion
[ 6227 6224 6223 6220 ] final   46.54 input   60.02 | X-H torsion
[ 7183 7174 7173 7171 ] final   71.54 input   60.02 | X-H torsion

> <Gold.Protein.ActiveResidues>
 GLN24   PHE25   GLN27   MET81   PHE84   ASN85   THR86   VAL88   ASN89   PHE90  
 TYR92   ALA93   VAL94   HIS95   ASN96   GLU97   TRP98   TYR100  TYR104  CYS105 
 HIS108  ASN109  PRO112  ILE113  ALA114  ALA115  VAL116  PHE117  LEU161  ALA162 
 GLN165  SER169  THR170  GLU172  MET174  PRO175  ARG177  VAL178  VAL179  CYS180 
 MET181  ILE182  GLU183  TRP184  TYR196  HIS197  VAL200  THR201  ILE204  TRP261 
 PHE264  HIS265  PHE267  PHE268  LEU269  PRO271  TYR272  PRO275  LEU277  TYR278 
 LEU279  LYS280  LYS281  PHE282  ILE283  GLN284  GLN285  VAL286  TYR287  LEU288 
 ILE290  MET291  ALA294  MET295 

> <Gold.Protein.RotatedAtoms>
  123.9447  138.3230  109.9760 H   0  0  0  0  0  0  0  0  0  0  0  0  # atno 4305 bound_to 4286
  125.5094  145.4993   95.4698 H   0  0  0  0  0  0  0  0  0  0  0  0  # atno 4415 bound_to 4410
  132.4208  149.3785  100.3297 H   0  0  0  0  0  0  0  0  0  0  0  0  # atno 5718 bound_to 5713
  139.3108  141.0584  105.6920 H   0  0  0  0  0  0  0  0  0  0  0  0  # atno 6139 bound_to 6130
  139.2945  132.9186  103.2745 H   0  0  0  0  0  0  0  0  0  0  0  0  # atno 6227 bound_to 6224
  137.6080  138.2615   96.0321 H   0  0  0  0  0  0  0  0  0  0  0  0  # atno 7183 bound_to 7174
  131.9730  133.7086   93.8140 H   0  0  0  0  0  0  0  0  0  0  0  0  # atno 7286 bound_to 7277
  125.4730  139.8275  102.1164 H   0  0  0  0  0  0  0  0  0  0  0  0  # atno 7448 bound_to 7439
  126.8100  145.0602   96.3438 LP  0  0  0  0  0  0  0  0  0  0  0  0  # atno 14307 bound_to 4410
  126.3331  146.6217   96.3125 LP  0  0  0  0  0  0  0  0  0  0  0  0  # atno 14308 bound_to 4410
  131.2606  134.9656   94.5622 LP  0  0  0  0  0  0  0  0  0  0  0  0  # atno 14309 bound_to 7277
  132.6491  135.1862   93.7315 LP  0  0  0  0  0  0  0  0  0  0  0  0  # atno 14310 bound_to 7277
  126.9676  139.8955  101.4762 LP  0  0  0  0  0  0  0  0  0  0  0  0  # atno 14329 bound_to 7439
  126.6636  138.9131  102.7447 LP  0  0  0  0  0  0  0  0  0  0  0  0  # atno 14330 bound_to 7439
  132.6246  150.8646   99.6985 LP  0  0  0  0  0  0  0  0  0  0  0  0  # atno 14371 bound_to 5713
  132.1940  150.6914  101.2642 LP  0  0  0  0  0  0  0  0  0  0  0  0  # atno 14372 bound_to 5713
  122.8716  137.5750  110.9439 LP  0  0  0  0  0  0  0  0  0  0  0  0  # atno 14387 bound_to 4286
  123.6536  138.9103  111.4654 LP  0  0  0  0  0  0  0  0  0  0  0  0  # atno 14388 bound_to 4286
  138.3736  141.8123  104.5955 LP  0  0  0  0  0  0  0  0  0  0  0  0  # atno 14389 bound_to 6130
  139.5552  142.6343  105.3666 LP  0  0  0  0  0  0  0  0  0  0  0  0  # atno 14390 bound_to 6130
  138.4890  131.5437  103.6061 LP  0  0  0  0  0  0  0  0  0  0  0  0  # atno 14404 bound_to 6224
  139.4357  131.6388  102.2790 LP  0  0  0  0  0  0  0  0  0  0  0  0  # atno 14405 bound_to 6224
  139.1552  138.7451   96.1761 LP  0  0  0  0  0  0  0  0  0  0  0  0  # atno 14408 bound_to 7174
  138.4756  137.8174   97.3354 LP  0  0  0  0  0  0  0  0  0  0  0  0  # atno 14409 bound_to 7174

> <Gold.Score>
     Fitness  S(hb_ext) S(vdw_ext)  S(hb_int)    S(int)      intcor
     31.26       0.00      23.31       0.00      -0.79      -0.76

> <Gold.Goldscore.Fitness>
31.2628

> <Gold.Goldscore.Internal.Vdw>
-1.1846

> <Gold.Goldscore.Internal.Torsion>
-0.3682

> <Gold.Goldscore.External.Vdw>
23.3143

> <Gold.Goldscore.Internal.HBond>
0.0000

> <Gold.Goldscore.External.HBond>
0.0000

> <Gold.Goldscore.Internal.Correction>
-0.7585

> <Gold.Goldscore.Internal.Vdw.Weighted>
-1.1846

> <Gold.Goldscore.Internal.Torsion.Weighted>
-0.3682

> <Gold.Goldscore.External.Vdw.Weighted>
32.0572

> <Gold.Goldscore.Internal.HBond.Weighted>
0.0000

> <Gold.Goldscore.External.HBond.Weighted>
0.0000

> <Gold.Goldscore.Internal.Correction.Weighted>
-0.7585

> <Gold.Rescore>
     Score     S(PLP)   S(hbond)     S(cho)   S(metal)  DE(clash)   DE(tors)     intcor
     27.64     -28.47       0.00       0.00       0.00       0.00       0.41       ----

> <Gold.PLP.Fitness>
27.6433

> <Gold.PLP.PLP>
-28.4732

> <Gold.PLP.part.hbond>
-1.7986

> <Gold.PLP.part.metal>
0.0000

> <Gold.PLP.part.buried>
-5.9927

> <Gold.PLP.part.nonpolar>
-23.9327

> <Gold.PLP.part.repulsive>
2.3552

> <Gold.PLP.ligand.clash>
0.0000

> <Gold.PLP.ligand.torsion>
0.4149

> <Gold.PLP.Chemscore.Hbond>
0.0000

> <Gold.PLP.Chemscore.CHOScore>
0.0000

> <Gold.PLP.Chemscore.Metal>
0.0000

> <Gold.PLP.Chemscore.Internal.Correction>
   9.000000E+99

