#       Name:                CT1002167954
#       Creating user name   hitesit
#       Creation time:       Sun Apr 16 02:23:57 2023


#       File generated by GOLD software.
#

@<TRIPOS>MOLECULE
CT1002167954|ligand_prepared|mol2|1|dock5
    29    30     1
SMALL
NO_CHARGES


@<TRIPOS>ATOM
      1 C1         259.7645 351.1834 -59.9006 C.3            1 RES1               0.0000
      2 C2         261.0096 351.4216 -59.0221 C.ar           1 RES1               0.0000
      3 C3         258.8096 350.3323 -59.0686 C.2            1 RES1               0.0000
      4 C4         259.2209 352.5635 -60.2535 C.2            1 RES1               0.0000
      5 C5         260.0650 350.4363 -61.2208 C.3            1 RES1               0.0000
      6 C6         261.3044 352.6937 -58.5409 C.ar           1 RES1               0.0000
      7 C7         261.8697 350.3806 -58.6829 C.ar           1 RES1               0.0000
      8 N8         257.7059 350.9437 -58.5510 N.am           1 RES1               0.0000
      9 O9         259.0420 349.1521 -58.8373 O.2            1 RES1               0.0000
     10 N10        257.9913 352.9145 -59.7611 N.am           1 RES1               0.0000
     11 O11        259.8537 353.3564 -60.9399 O.2            1 RES1               0.0000
     12 C12        261.2663 350.9836 -61.9753 C.3            1 RES1               0.0000
     13 C13        262.4171 352.9166 -57.7468 C.ar           1 RES1               0.0000
     14 C14        262.9821 350.6057 -57.8889 C.ar           1 RES1               0.0000
     15 C15        257.2227 352.1790 -58.9005 C.2            1 RES1               0.0000
     16 C16        263.2564 351.8729 -57.4200 C.ar           1 RES1               0.0000
     17 O17        256.1522 352.5857 -58.4580 O.2            1 RES1               0.0000
     18 H18        260.2423 349.3775 -60.9950 H              1 RES1               0.0000
     19 H19        259.1827 350.4974 -61.8699 H              1 RES1               0.0000
     20 H20        260.6568 353.5278 -58.7897 H              1 RES1               0.0000
     21 H21        261.6743 349.3757 -59.0414 H              1 RES1               0.0000
     22 H22        257.1925 350.4355 -57.8379 H              1 RES1               0.0000
     23 H23        257.6139 353.8067 -60.0642 H              1 RES1               0.0000
     24 H24        261.4329 350.4241 -62.8934 H              1 RES1               0.0000
     25 H25        261.1135 352.0283 -62.2382 H              1 RES1               0.0000
     26 H26        262.1668 350.9151 -61.3685 H              1 RES1               0.0000
     27 H27        262.6293 353.9160 -57.3815 H              1 RES1               0.0000
     28 H28        263.6402 349.7815 -57.6347 H              1 RES1               0.0000
     29 H29        264.1278 352.0477 -56.7976 H              1 RES1               0.0000
@<TRIPOS>BOND
    1    1    2 1     
    2    1    3 1     
    3    1    4 1     
    4    1    5 1     
    5    2    6 ar    
    6    2    7 ar    
    7    3    8 1     
    8    3    9 2     
    9    4   10 1     
   10    4   11 2     
   11    5   12 1     
   12    5   18 1     
   13    5   19 1     
   14    6   13 ar    
   15    6   20 1     
   16    7   14 ar    
   17    7   21 1     
   18    8   15 1     
   19    8   22 1     
   20   10   15 1     
   21   10   23 1     
   22   12   24 1     
   23   12   25 1     
   24   12   26 1     
   25   13   16 ar    
   26   13   27 1     
   27   14   16 ar    
   28   14   28 1     
   29   15   17 2     
   30   16   29 1     
@<TRIPOS>SUBSTRUCTURE
      1 RES1           1
@<TRIPOS>SET
DONOR_HYDROGENS      STATIC     ATOMS    <user>   **** ""
2 22 23
ATOM$RED        STATIC     ATOMS    COLORGROUP SYSTEM
2 22 23
@<TRIPOS>COMMENT
> <Gold.Version>
2022.3.0

> <Gold.Id.Protein>
unknown|7ts3_clean|pdb

> <Gold.Protein.RotatedTorsions>
[ 18421 18376 18375 18373 ] final   43.15 input   60.01 | X-H torsion
[ 18225 18202 18201 18198 ] final -131.32 input   60.03 | X-H torsion
[ 16931 16868 16867 16865 ] final   -9.67 input   59.99 | X-H torsion
[ 11361 11338 11337 11334 ] final   12.27 input   60.02 | X-H torsion
[ 26024 25971 25970 25968 ] final  128.53 input   59.99 | X-H torsion
[ 18579 18551 18549 18546 ] final -111.00 input   60.03 | X-H torsion

> <Gold.Protein.ActiveResidues>
 MET341  HIS342  TRP414  ARG419  CYS420  VAL421  GLY422  LEU429  LEU460  SER462 
 ALA463  ILE464  SER482  GLN483  ARG486  TRP566  TYR567  GLY568  LEU569  PRO570 
 ALA571  VAL572  SER573  ASN574  MET575  PRO588  PHE589  SER590  GLY591  TRP592 
 TYR593  MET594  GLY595  THR596  GLU597  ILE598  ARG601  ASP602  ARG608  ILE653 
 VAL654  TRP683  PHE709  GLU710  TYR711  HEM801  H4B802 

> <Gold.Protein.RotatedAtoms>
  270.2651  354.9151  -57.8302 H   0  0  0  0  0  0  0  0  0  0  0  0  # atno 11361 bound_to 11338
  264.8533  353.6888  -53.7148 H   0  0  0  0  0  0  0  0  0  0  0  0  # atno 16931 bound_to 16868
  258.5166  360.7745  -59.7871 H   0  0  0  0  0  0  0  0  0  0  0  0  # atno 18225 bound_to 18202
  262.8075  352.6978  -52.3315 H   0  0  0  0  0  0  0  0  0  0  0  0  # atno 18421 bound_to 18376
  256.3774  342.8609  -54.1312 H   0  0  0  0  0  0  0  0  0  0  0  0  # atno 18579 bound_to 18551
  267.0376  346.4974  -65.1803 H   0  0  0  0  0  0  0  0  0  0  0  0  # atno 26024 bound_to 25971
  262.6044  353.3381  -53.8132 LP  0  0  0  0  0  0  0  0  0  0  0  0  # atno 27283 bound_to 18376
  262.9833  351.7583  -53.6480 LP  0  0  0  0  0  0  0  0  0  0  0  0  # atno 27284 bound_to 18376
  257.3430  359.9512  -59.0167 LP  0  0  0  0  0  0  0  0  0  0  0  0  # atno 27303 bound_to 18202
  257.5312  359.7917  -60.6309 LP  0  0  0  0  0  0  0  0  0  0  0  0  # atno 27304 bound_to 18202
  265.6388  353.0259  -52.4535 LP  0  0  0  0  0  0  0  0  0  0  0  0  # atno 27315 bound_to 16868
  266.2704  354.3198  -53.2240 LP  0  0  0  0  0  0  0  0  0  0  0  0  # atno 27316 bound_to 16868
  271.6970  354.1423  -57.7987 LP  0  0  0  0  0  0  0  0  0  0  0  0  # atno 27322 bound_to 11338
  270.3111  353.2934  -57.9582 LP  0  0  0  0  0  0  0  0  0  0  0  0  # atno 27323 bound_to 11338
  266.5034  345.7690  -66.5338 LP  0  0  0  0  0  0  0  0  0  0  0  0  # atno 27328 bound_to 25971
  265.7816  347.1320  -65.9974 LP  0  0  0  0  0  0  0  0  0  0  0  0  # atno 27329 bound_to 25971

> <Gold.Score>
     Fitness  S(hb_ext) S(vdw_ext)  S(hb_int)    S(int)      intcor
     44.78       0.13      35.82       0.00      -4.60      -0.76

> <Gold.Goldscore.Fitness>
44.7807

> <Gold.Goldscore.Internal.Vdw>
-4.7271

> <Gold.Goldscore.Internal.Torsion>
-0.6355

> <Gold.Goldscore.External.Vdw>
35.8193

> <Gold.Goldscore.Internal.HBond>
0.0000

> <Gold.Goldscore.External.HBond>
0.1268

> <Gold.Goldscore.Internal.Correction>
-0.7650

> <Gold.Goldscore.Hbonds>
donor molecule, donor type, donor heavy atom, donor atom, acceptor molecule, acceptor atom, score
      L1  H     8    22       P1 18272  0.06

> <Gold.Goldscore.Internal.Vdw.Weighted>
-4.7271

> <Gold.Goldscore.Internal.Torsion.Weighted>
-0.6355

> <Gold.Goldscore.External.Vdw.Weighted>
49.2515

> <Gold.Goldscore.Internal.HBond.Weighted>
0.0000

> <Gold.Goldscore.External.HBond.Weighted>
0.1268

> <Gold.Goldscore.Internal.Correction.Weighted>
-0.7650

> <Gold.Rescore>
     Score     S(PLP)   S(hbond)     S(cho)   S(metal)  DE(clash)   DE(tors)     intcor
     30.28     -31.67       0.33       0.00       0.00       0.00       1.20       ----

> <Gold.PLP.Fitness>
30.2800

> <Gold.PLP.PLP>
-31.6712

> <Gold.PLP.part.hbond>
-3.3453

> <Gold.PLP.part.metal>
0.0000

> <Gold.PLP.part.buried>
19.1742

> <Gold.PLP.part.nonpolar>
-50.1261

> <Gold.PLP.part.repulsive>
0.8719

> <Gold.PLP.ligand.clash>
0.0000

> <Gold.PLP.ligand.torsion>
1.1964

> <Gold.PLP.Chemscore.Hbond>
0.3338

> <Gold.PLP.Chemscore.CHOScore>
0.0000

> <Gold.PLP.Chemscore.Metal>
0.0000

> <Gold.Chemscore.Hbonds>
donor molecule, donor type, donor heavy atom, donor atom, acceptor molecule, acceptor atom, score
      L1  H     8    22       P1 18609  0.08
      P1  H 18269 18331       L1    17  0.38

> <Gold.PLP.Chemscore.Internal.Correction>
   9.000000E+99

