#       Name:                CT1002167954
#       Creating user name   hitesit
#       Creation time:       Sun Apr 16 02:23:58 2023


#       File generated by GOLD software.
#

@<TRIPOS>MOLECULE
CT1002167954|ligand_prepared|mol2|1|dock6
    29    30     1
SMALL
NO_CHARGES


@<TRIPOS>ATOM
      1 C1         262.6459 350.7970 -58.3153 C.3            1 RES1               0.0000
      2 C2         261.4677 350.9930 -59.2911 C.ar           1 RES1               0.0000
      3 C3         263.0679 349.3360 -58.4413 C.2            1 RES1               0.0000
      4 C4         263.7198 351.7934 -58.7375 C.2            1 RES1               0.0000
      5 C5         262.2870 351.0789 -56.8377 C.3            1 RES1               0.0000
      6 C6         260.1774 351.1983 -58.8119 C.ar           1 RES1               0.0000
      7 C7         261.6556 350.9738 -60.6705 C.ar           1 RES1               0.0000
      8 N8         264.2294 349.0688 -59.1043 N.am           1 RES1               0.0000
      9 O9         262.3723 348.4296 -58.0001 O.2            1 RES1               0.0000
     10 N10        264.9010 351.2970 -59.2235 N.am           1 RES1               0.0000
     11 O11        263.5476 353.0042 -58.6694 O.2            1 RES1               0.0000
     12 C12        263.4768 351.0085 -55.8935 C.3            1 RES1               0.0000
     13 C13        259.1138 351.3808 -59.6801 C.ar           1 RES1               0.0000
     14 C14        260.5905 351.1563 -61.5371 C.ar           1 RES1               0.0000
     15 C15        265.1928 349.9803 -59.4548 C.2            1 RES1               0.0000
     16 C16        259.3197 351.3604 -61.0431 C.ar           1 RES1               0.0000
     17 O17        266.2574 349.6155 -59.9453 O.2            1 RES1               0.0000
     18 H18        261.8391 352.0778 -56.7675 H              1 RES1               0.0000
     19 H19        261.5343 350.3503 -56.5120 H              1 RES1               0.0000
     20 H20        259.9956 351.2151 -57.7424 H              1 RES1               0.0000
     21 H21        262.6465 350.8139 -61.0817 H              1 RES1               0.0000
     22 H22        264.3970 348.1019 -59.3637 H              1 RES1               0.0000
     23 H23        265.6304 351.9714 -59.4319 H              1 RES1               0.0000
     24 H24        263.1699 351.2140 -54.8702 H              1 RES1               0.0000
     25 H25        263.9315 350.0204 -55.9190 H              1 RES1               0.0000
     26 H26        264.2346 351.7376 -56.1730 H              1 RES1               0.0000
     27 H27        258.1153 351.5397 -59.2863 H              1 RES1               0.0000
     28 H28        260.7571 351.1389 -62.6091 H              1 RES1               0.0000
     29 H29        258.4864 351.5038 -61.7231 H              1 RES1               0.0000
@<TRIPOS>BOND
    1    1    2 1     
    2    1    3 1     
    3    1    4 1     
    4    1    5 1     
    5    2    6 ar    
    6    2    7 ar    
    7    3    8 1     
    8    3    9 2     
    9    4   10 1     
   10    4   11 2     
   11    5   12 1     
   12    5   18 1     
   13    5   19 1     
   14    6   13 ar    
   15    6   20 1     
   16    7   14 ar    
   17    7   21 1     
   18    8   15 1     
   19    8   22 1     
   20   10   15 1     
   21   10   23 1     
   22   12   24 1     
   23   12   25 1     
   24   12   26 1     
   25   13   16 ar    
   26   13   27 1     
   27   14   16 ar    
   28   14   28 1     
   29   15   17 2     
   30   16   29 1     
@<TRIPOS>SUBSTRUCTURE
      1 RES1           1
@<TRIPOS>SET
DONOR_HYDROGENS      STATIC     ATOMS    <user>   **** ""
2 22 23
ATOM$RED        STATIC     ATOMS    COLORGROUP SYSTEM
2 22 23
@<TRIPOS>COMMENT
> <Gold.Version>
2022.3.0

> <Gold.Id.Protein>
unknown|7ts3_clean|pdb

> <Gold.Protein.RotatedTorsions>
[ 18421 18376 18375 18373 ] final   23.07 input   60.01 | X-H torsion
[ 18225 18202 18201 18198 ] final   79.42 input   60.03 | X-H torsion
[ 16931 16868 16867 16865 ] final  171.13 input   59.99 | X-H torsion
[ 11361 11338 11337 11334 ] final  -34.15 input   60.02 | X-H torsion
[ 26024 25971 25970 25968 ] final   83.40 input   59.99 | X-H torsion
[ 18579 18551 18549 18546 ] final  152.43 input   60.03 | X-H torsion

> <Gold.Protein.ActiveResidues>
 MET341  HIS342  TRP414  ARG419  CYS420  VAL421  GLY422  LEU429  LEU460  SER462 
 ALA463  ILE464  SER482  GLN483  ARG486  TRP566  TYR567  GLY568  LEU569  PRO570 
 ALA571  VAL572  SER573  ASN574  MET575  PRO588  PHE589  SER590  GLY591  TRP592 
 TYR593  MET594  GLY595  THR596  GLU597  ILE598  ARG601  ASP602  ARG608  ILE653 
 VAL654  TRP683  PHE709  GLU710  TYR711  HEM801  H4B802 

> <Gold.Protein.RotatedAtoms>
  270.9935  355.0204  -57.7745 H   0  0  0  0  0  0  0  0  0  0  0  0  # atno 11361 bound_to 11338
  266.3112  353.6596  -52.5410 H   0  0  0  0  0  0  0  0  0  0  0  0  # atno 16931 bound_to 16868
  257.1278  359.7025  -59.3591 H   0  0  0  0  0  0  0  0  0  0  0  0  # atno 18225 bound_to 18202
  262.7323  353.0026  -52.4206 H   0  0  0  0  0  0  0  0  0  0  0  0  # atno 18421 bound_to 18376
  257.5486  342.4639  -54.7828 H   0  0  0  0  0  0  0  0  0  0  0  0  # atno 18579 bound_to 18551
  267.1560  345.9347  -65.6111 H   0  0  0  0  0  0  0  0  0  0  0  0  # atno 26024 bound_to 25971
  262.6507  353.1066  -54.0421 LP  0  0  0  0  0  0  0  0  0  0  0  0  # atno 27283 bound_to 18376
  263.0128  351.6827  -53.3293 LP  0  0  0  0  0  0  0  0  0  0  0  0  # atno 27284 bound_to 18376
  257.8976  360.0745  -60.7439 LP  0  0  0  0  0  0  0  0  0  0  0  0  # atno 27303 bound_to 18202
  258.3750  360.7478  -59.3348 LP  0  0  0  0  0  0  0  0  0  0  0  0  # atno 27304 bound_to 18202
  265.5451  354.3343  -53.8080 LP  0  0  0  0  0  0  0  0  0  0  0  0  # atno 27315 bound_to 16868
  264.8957  353.0408  -53.0517 LP  0  0  0  0  0  0  0  0  0  0  0  0  # atno 27316 bound_to 16868
  271.4256  353.4545  -57.8729 LP  0  0  0  0  0  0  0  0  0  0  0  0  # atno 27322 bound_to 11338
  269.8492  353.8752  -57.9401 LP  0  0  0  0  0  0  0  0  0  0  0  0  # atno 27323 bound_to 11338
  265.9703  346.2344  -66.6847 LP  0  0  0  0  0  0  0  0  0  0  0  0  # atno 27328 bound_to 25971
  266.1955  347.2332  -65.4126 LP  0  0  0  0  0  0  0  0  0  0  0  0  # atno 27329 bound_to 25971

> <Gold.Score>
     Fitness  S(hb_ext) S(vdw_ext)  S(hb_int)    S(int)      intcor
     37.58       1.89      26.46       0.00      -0.68      -0.76

> <Gold.Goldscore.Fitness>
37.5831

> <Gold.Goldscore.Internal.Vdw>
-1.0395

> <Gold.Goldscore.Internal.Torsion>
-0.4086

> <Gold.Goldscore.External.Vdw>
26.4579

> <Gold.Goldscore.Internal.HBond>
0.0000

> <Gold.Goldscore.External.HBond>
1.8867

> <Gold.Goldscore.Internal.Correction>
-0.7650

> <Gold.Goldscore.Hbonds>
donor molecule, donor type, donor heavy atom, donor atom, acceptor molecule, acceptor atom, score
      L1  H     8    22       P1 26829  0.31

> <Gold.Goldscore.Internal.Vdw.Weighted>
-1.0395

> <Gold.Goldscore.Internal.Torsion.Weighted>
-0.4086

> <Gold.Goldscore.External.Vdw.Weighted>
36.3796

> <Gold.Goldscore.Internal.HBond.Weighted>
0.0000

> <Gold.Goldscore.External.HBond.Weighted>
1.8867

> <Gold.Goldscore.Internal.Correction.Weighted>
-0.7650

> <Gold.Rescore>
     Score     S(PLP)   S(hbond)     S(cho)   S(metal)  DE(clash)   DE(tors)     intcor
     22.02     -19.45       0.90       0.00       0.00       0.00       0.07       ----

> <Gold.PLP.Fitness>
22.0209

> <Gold.PLP.PLP>
-19.4504

> <Gold.PLP.part.hbond>
-1.2476

> <Gold.PLP.part.metal>
0.0000

> <Gold.PLP.part.buried>
11.9719

> <Gold.PLP.part.nonpolar>
-40.3366

> <Gold.PLP.part.repulsive>
7.7980

> <Gold.PLP.ligand.clash>
0.0000

> <Gold.PLP.ligand.torsion>
0.0708

> <Gold.PLP.Chemscore.Hbond>
0.9040

> <Gold.PLP.Chemscore.CHOScore>
0.0000

> <Gold.PLP.Chemscore.Metal>
0.0000

> <Gold.Chemscore.Hbonds>
donor molecule, donor type, donor heavy atom, donor atom, acceptor molecule, acceptor atom, score
      L1  H     8    22       P1 26829  0.75

> <Gold.PLP.Chemscore.Internal.Correction>
   9.000000E+99

