#       Name:                CT1002167954
#       Creating user name   hitesit
#       Creation time:       Sun Apr 16 02:23:55 2023


#       File generated by GOLD software.
#

@<TRIPOS>MOLECULE
CT1002167954|ligand_prepared|mol2|1|dock2
    29    30     1
SMALL
NO_CHARGES


@<TRIPOS>ATOM
      1 C1         260.1912 351.6288 -60.1684 C.3            1 RES1               0.0000
      2 C2         261.2862 350.8367 -60.9116 C.ar           1 RES1               0.0000
      3 C3         260.8647 352.8866 -59.6274 C.2            1 RES1               0.0000
      4 C4         259.0936 351.9016 -61.1909 C.2            1 RES1               0.0000
      5 C5         259.5602 350.8612 -58.9834 C.3            1 RES1               0.0000
      6 C6         262.1847 350.0396 -60.2087 C.ar           1 RES1               0.0000
      7 C7         261.4084 350.8909 -62.2975 C.ar           1 RES1               0.0000
      8 N8         260.5899 354.0682 -60.2505 N.am           1 RES1               0.0000
      9 O9         261.6556 352.8366 -58.6935 O.2            1 RES1               0.0000
     10 N10        258.8623 353.2028 -61.5530 N.am           1 RES1               0.0000
     11 O11        258.4382 351.0000 -61.6987 O.2            1 RES1               0.0000
     12 C12        258.2225 351.4248 -58.5305 C.3            1 RES1               0.0000
     13 C13        263.1680 349.3203 -60.8676 C.ar           1 RES1               0.0000
     14 C14        262.3926 350.1709 -62.9544 C.ar           1 RES1               0.0000
     15 C15        259.5814 354.2957 -61.1521 C.2            1 RES1               0.0000
     16 C16        263.2723 349.3851 -62.2408 C.ar           1 RES1               0.0000
     17 O17        259.3474 355.4283 -61.5640 O.2            1 RES1               0.0000
     18 H18        259.4210 349.8131 -59.2756 H              1 RES1               0.0000
     19 H19        260.2575 350.8835 -58.1368 H              1 RES1               0.0000
     20 H20        262.1196 349.9781 -59.1275 H              1 RES1               0.0000
     21 H21        260.7280 351.5033 -62.8793 H              1 RES1               0.0000
     22 H22        261.1898 354.8554 -60.0254 H              1 RES1               0.0000
     23 H23        258.0817 353.3724 -62.1792 H              1 RES1               0.0000
     24 H24        257.8239 350.8498 -57.6973 H              1 RES1               0.0000
     25 H25        258.3285 352.4587 -58.2088 H              1 RES1               0.0000
     26 H26        257.4970 351.3946 -59.3409 H              1 RES1               0.0000
     27 H27        263.8587 348.7044 -60.3013 H              1 RES1               0.0000
     28 H28        262.4714 350.2254 -64.0352 H              1 RES1               0.0000
     29 H29        264.0424 348.8212 -62.7568 H              1 RES1               0.0000
@<TRIPOS>BOND
    1    1    2 1     
    2    1    3 1     
    3    1    4 1     
    4    1    5 1     
    5    2    6 ar    
    6    2    7 ar    
    7    3    8 1     
    8    3    9 2     
    9    4   10 1     
   10    4   11 2     
   11    5   12 1     
   12    5   18 1     
   13    5   19 1     
   14    6   13 ar    
   15    6   20 1     
   16    7   14 ar    
   17    7   21 1     
   18    8   15 1     
   19    8   22 1     
   20   10   15 1     
   21   10   23 1     
   22   12   24 1     
   23   12   25 1     
   24   12   26 1     
   25   13   16 ar    
   26   13   27 1     
   27   14   16 ar    
   28   14   28 1     
   29   15   17 2     
   30   16   29 1     
@<TRIPOS>SUBSTRUCTURE
      1 RES1           1
@<TRIPOS>SET
DONOR_HYDROGENS      STATIC     ATOMS    <user>   **** ""
2 22 23
ATOM$RED        STATIC     ATOMS    COLORGROUP SYSTEM
2 22 23
@<TRIPOS>COMMENT
> <Gold.Version>
2022.3.0

> <Gold.Id.Protein>
unknown|7ts3_clean|pdb

> <Gold.Protein.RotatedTorsions>
[ 18421 18376 18375 18373 ] final  173.08 input   60.01 | X-H torsion
[ 18225 18202 18201 18198 ] final    3.68 input   60.03 | X-H torsion
[ 16931 16868 16867 16865 ] final -131.20 input   59.99 | X-H torsion
[ 11361 11338 11337 11334 ] final    7.00 input   60.02 | X-H torsion
[ 26024 25971 25970 25968 ] final  161.86 input   59.99 | X-H torsion
[ 18579 18551 18549 18546 ] final  -68.37 input   60.03 | X-H torsion

> <Gold.Protein.ActiveResidues>
 MET341  HIS342  TRP414  ARG419  CYS420  VAL421  GLY422  LEU429  LEU460  SER462 
 ALA463  ILE464  SER482  GLN483  ARG486  TRP566  TYR567  GLY568  LEU569  PRO570 
 ALA571  VAL572  SER573  ASN574  MET575  PRO588  PHE589  SER590  GLY591  TRP592 
 TYR593  MET594  GLY595  THR596  GLU597  ILE598  ARG601  ASP602  ARG608  ILE653 
 VAL654  TRP683  PHE709  GLU710  TYR711  HEM801  H4B802 

> <Gold.Protein.RotatedAtoms>
  270.3402  354.9565  -57.8220 H   0  0  0  0  0  0  0  0  0  0  0  0  # atno 11361 bound_to 11338
  265.6587  353.0423  -52.4492 H   0  0  0  0  0  0  0  0  0  0  0  0  # atno 16931 bound_to 16868
  257.3686  359.6828  -60.4830 H   0  0  0  0  0  0  0  0  0  0  0  0  # atno 18225 bound_to 18202
  262.9566  351.8396  -53.7862 H   0  0  0  0  0  0  0  0  0  0  0  0  # atno 18421 bound_to 18376
  256.4460  343.4909  -53.8825 H   0  0  0  0  0  0  0  0  0  0  0  0  # atno 18579 bound_to 18551
  266.7126  346.9218  -65.1302 H   0  0  0  0  0  0  0  0  0  0  0  0  # atno 26024 bound_to 25971
  262.8474  352.5405  -52.3221 LP  0  0  0  0  0  0  0  0  0  0  0  0  # atno 27283 bound_to 18376
  262.5901  353.4207  -53.6733 LP  0  0  0  0  0  0  0  0  0  0  0  0  # atno 27284 bound_to 18376
  258.5238  360.7356  -60.0293 LP  0  0  0  0  0  0  0  0  0  0  0  0  # atno 27303 bound_to 18202
  257.5064  360.1065  -58.9177 LP  0  0  0  0  0  0  0  0  0  0  0  0  # atno 27304 bound_to 18202
  266.2580  354.3297  -53.2434 LP  0  0  0  0  0  0  0  0  0  0  0  0  # atno 27315 bound_to 16868
  264.8399  353.6671  -53.7088 LP  0  0  0  0  0  0  0  0  0  0  0  0  # atno 27316 bound_to 16868
  271.6956  354.0559  -57.8059 LP  0  0  0  0  0  0  0  0  0  0  0  0  # atno 27322 bound_to 11338
  270.2368  353.3382  -57.9593 LP  0  0  0  0  0  0  0  0  0  0  0  0  # atno 27323 bound_to 11338
  266.8923  345.6818  -66.1685 LP  0  0  0  0  0  0  0  0  0  0  0  0  # atno 27328 bound_to 25971
  265.7199  346.7919  -66.4130 LP  0  0  0  0  0  0  0  0  0  0  0  0  # atno 27329 bound_to 25971

> <Gold.Score>
     Fitness  S(hb_ext) S(vdw_ext)  S(hb_int)    S(int)      intcor
     60.11      10.39      37.12       0.00      -1.32      -0.77

> <Gold.Goldscore.Fitness>
60.1078

> <Gold.Goldscore.Internal.Vdw>
-1.2373

> <Gold.Goldscore.Internal.Torsion>
-0.8518

> <Gold.Goldscore.External.Vdw>
37.1190

> <Gold.Goldscore.Internal.HBond>
0.0000

> <Gold.Goldscore.External.HBond>
10.3929

> <Gold.Goldscore.Internal.Correction>
-0.7653

> <Gold.Goldscore.Hbonds>
donor molecule, donor type, donor heavy atom, donor atom, acceptor molecule, acceptor atom, score
      P1  H 17141 17195       L1    17  0.20
      P1  M 26840 27339       L1    11  1.00

> <Gold.Goldscore.Internal.Vdw.Weighted>
-1.2373

> <Gold.Goldscore.Internal.Torsion.Weighted>
-0.8518

> <Gold.Goldscore.External.Vdw.Weighted>
51.0387

> <Gold.Goldscore.Internal.HBond.Weighted>
0.0000

> <Gold.Goldscore.External.HBond.Weighted>
10.3929

> <Gold.Goldscore.Internal.Correction.Weighted>
-0.7653

> <Gold.Rescore>
     Score     S(PLP)   S(hbond)     S(cho)   S(metal)  DE(clash)   DE(tors)     intcor
     45.17     -41.28       0.00       0.00       1.00       0.02       1.04       ----

> <Gold.PLP.Fitness>
45.1715

> <Gold.PLP.PLP>
-41.2751

> <Gold.PLP.part.hbond>
-2.5474

> <Gold.PLP.part.metal>
-1.0000

> <Gold.PLP.part.buried>
16.8838

> <Gold.PLP.part.nonpolar>
-61.7694

> <Gold.PLP.part.repulsive>
3.8169

> <Gold.PLP.ligand.clash>
0.0227

> <Gold.PLP.ligand.torsion>
1.0440

> <Gold.PLP.Chemscore.Hbond>
0.0023

> <Gold.PLP.Chemscore.CHOScore>
0.0000

> <Gold.PLP.Chemscore.Metal>
1.0000

> <Gold.Chemscore.Hbonds>
donor molecule, donor type, donor heavy atom, donor atom, acceptor molecule, acceptor atom, score
      P1  M 26840 26840       L1    11  1.00

> <Gold.PLP.Chemscore.Internal.Correction>
   9.000000E+99

