#       Name:                CT1002167954
#       Creating user name   hitesit
#       Creation time:       Sun Apr 16 02:23:54 2023


#       File generated by GOLD software.
#

@<TRIPOS>MOLECULE
CT1002167954|ligand_prepared|mol2|1|dock1
    29    30     1
SMALL
NO_CHARGES


@<TRIPOS>ATOM
      1 C1         260.1969 351.6010 -60.2190 C.3            1 RES1               0.0000
      2 C2         261.3536 350.8963 -60.9568 C.ar           1 RES1               0.0000
      3 C3         260.7918 352.8581 -59.5913 C.2            1 RES1               0.0000
      4 C4         259.1263 351.8767 -61.2689 C.2            1 RES1               0.0000
      5 C5         259.5586 350.7475 -59.0985 C.3            1 RES1               0.0000
      6 C6         262.2517 350.0919 -60.2618 C.ar           1 RES1               0.0000
      7 C7         261.5335 351.0388 -62.3301 C.ar           1 RES1               0.0000
      8 N8         260.4864 354.0565 -60.1661 N.am           1 RES1               0.0000
      9 O9         261.5493 352.7957 -58.6308 O.2            1 RES1               0.0000
     10 N10        258.8492 353.1832 -61.5757 N.am           1 RES1               0.0000
     11 O11        258.5319 350.9741 -61.8454 O.2            1 RES1               0.0000
     12 C12        258.1443 351.1715 -58.7349 C.3            1 RES1               0.0000
     13 C13        263.2903 349.4506 -60.9164 C.ar           1 RES1               0.0000
     14 C14        262.5729 350.3968 -62.9827 C.ar           1 RES1               0.0000
     15 C15        259.5023 354.2849 -61.0941 C.2            1 RES1               0.0000
     16 C16        263.4513 349.6022 -62.2771 C.ar           1 RES1               0.0000
     17 O17        259.2320 355.4255 -61.4589 O.2            1 RES1               0.0000
     18 H18        259.5411 349.6988 -59.4199 H              1 RES1               0.0000
     19 H19        260.1881 350.8131 -58.2025 H              1 RES1               0.0000
     20 H20        262.1423 349.9627 -59.1902 H              1 RES1               0.0000
     21 H21        260.8552 351.6597 -62.9054 H              1 RES1               0.0000
     22 H22        261.0409 354.8569 -59.8795 H              1 RES1               0.0000
     23 H23        258.0852 353.3499 -62.2228 H              1 RES1               0.0000
     24 H24        257.7436 350.5406 -57.9444 H              1 RES1               0.0000
     25 H25        258.1281 352.2023 -58.3868 H              1 RES1               0.0000
     26 H26        257.4849 351.0945 -59.5970 H              1 RES1               0.0000
     27 H27        263.9797 348.8276 -60.3563 H              1 RES1               0.0000
     28 H28        262.6962 350.5194 -64.0537 H              1 RES1               0.0000
     29 H29        264.2648 349.0995 -62.7898 H              1 RES1               0.0000
@<TRIPOS>BOND
    1    1    2 1     
    2    1    3 1     
    3    1    4 1     
    4    1    5 1     
    5    2    6 ar    
    6    2    7 ar    
    7    3    8 1     
    8    3    9 2     
    9    4   10 1     
   10    4   11 2     
   11    5   12 1     
   12    5   18 1     
   13    5   19 1     
   14    6   13 ar    
   15    6   20 1     
   16    7   14 ar    
   17    7   21 1     
   18    8   15 1     
   19    8   22 1     
   20   10   15 1     
   21   10   23 1     
   22   12   24 1     
   23   12   25 1     
   24   12   26 1     
   25   13   16 ar    
   26   13   27 1     
   27   14   16 ar    
   28   14   28 1     
   29   15   17 2     
   30   16   29 1     
@<TRIPOS>SUBSTRUCTURE
      1 RES1           1
@<TRIPOS>SET
DONOR_HYDROGENS      STATIC     ATOMS    <user>   **** ""
2 22 23
ATOM$RED        STATIC     ATOMS    COLORGROUP SYSTEM
2 22 23
@<TRIPOS>COMMENT
> <Gold.Version>
2022.3.0

> <Gold.Id.Protein>
unknown|7ts3_clean|pdb

> <Gold.Protein.RotatedTorsions>
[ 18421 18376 18375 18373 ] final   40.02 input   60.01 | X-H torsion
[ 18225 18202 18201 18198 ] final    1.27 input   60.03 | X-H torsion
[ 16931 16868 16867 16865 ] final   70.54 input   59.99 | X-H torsion
[ 11361 11338 11337 11334 ] final   26.63 input   60.02 | X-H torsion
[ 26024 25971 25970 25968 ] final  163.16 input   59.99 | X-H torsion
[ 18579 18551 18549 18546 ] final  -66.62 input   60.03 | X-H torsion

> <Gold.Protein.ActiveResidues>
 MET341  HIS342  TRP414  ARG419  CYS420  VAL421  GLY422  LEU429  LEU460  SER462 
 ALA463  ILE464  SER482  GLN483  ARG486  TRP566  TYR567  GLY568  LEU569  PRO570 
 ALA571  VAL572  SER573  ASN574  MET575  PRO588  PHE589  SER590  GLY591  TRP592 
 TYR593  MET594  GLY595  THR596  GLU597  ILE598  ARG601  ASP602  ARG608  ILE653 
 VAL654  TRP683  PHE709  GLU710  TYR711  HEM801  H4B802 

> <Gold.Protein.RotatedAtoms>
  270.0834  354.7695  -57.8540 H   0  0  0  0  0  0  0  0  0  0  0  0  # atno 11361 bound_to 11338
  265.8172  354.4118  -53.6654 H   0  0  0  0  0  0  0  0  0  0  0  0  # atno 16931 bound_to 16868
  257.3935  359.6984  -60.5092 H   0  0  0  0  0  0  0  0  0  0  0  0  # atno 18225 bound_to 18202
  262.7956  352.7472  -52.3381 H   0  0  0  0  0  0  0  0  0  0  0  0  # atno 18421 bound_to 18376
  256.4588  343.5158  -53.8768 H   0  0  0  0  0  0  0  0  0  0  0  0  # atno 18579 bound_to 18551
  266.6973  346.9361  -65.1336 H   0  0  0  0  0  0  0  0  0  0  0  0  # atno 26024 bound_to 25971
  262.6102  353.3072  -53.8542 LP  0  0  0  0  0  0  0  0  0  0  0  0  # atno 27283 bound_to 18376
  262.9895  351.7393  -53.6004 LP  0  0  0  0  0  0  0  0  0  0  0  0  # atno 27284 bound_to 18376
  258.5266  360.7454  -59.9909 LP  0  0  0  0  0  0  0  0  0  0  0  0  # atno 27303 bound_to 18202
  257.4784  360.0810  -58.9296 LP  0  0  0  0  0  0  0  0  0  0  0  0  # atno 27304 bound_to 18202
  264.7867  353.2069  -53.3000 LP  0  0  0  0  0  0  0  0  0  0  0  0  # atno 27315 bound_to 16868
  266.1517  353.4107  -52.4272 LP  0  0  0  0  0  0  0  0  0  0  0  0  # atno 27316 bound_to 16868
  271.6605  354.3745  -57.7819 LP  0  0  0  0  0  0  0  0  0  0  0  0  # atno 27322 bound_to 11338
  270.5306  353.2078  -57.9511 LP  0  0  0  0  0  0  0  0  0  0  0  0  # atno 27323 bound_to 11338
  266.9052  345.6838  -66.1516 LP  0  0  0  0  0  0  0  0  0  0  0  0  # atno 27328 bound_to 25971
  265.7225  346.7755  -66.4266 LP  0  0  0  0  0  0  0  0  0  0  0  0  # atno 27329 bound_to 25971

> <Gold.Score>
     Fitness  S(hb_ext) S(vdw_ext)  S(hb_int)    S(int)      intcor
     59.35      10.42      36.93       0.00      -1.84      -0.77

> <Gold.Goldscore.Fitness>
59.3518

> <Gold.Goldscore.Internal.Vdw>
-1.5518

> <Gold.Goldscore.Internal.Torsion>
-1.0551

> <Gold.Goldscore.External.Vdw>
36.9251

> <Gold.Goldscore.Internal.HBond>
0.0000

> <Gold.Goldscore.External.HBond>
10.4214

> <Gold.Goldscore.Internal.Correction>
-0.7653

> <Gold.Goldscore.Hbonds>
donor molecule, donor type, donor heavy atom, donor atom, acceptor molecule, acceptor atom, score
      P1  H 17141 17195       L1    17  0.21
      P1  M 26840 27339       L1    11  1.00

> <Gold.Goldscore.Internal.Vdw.Weighted>
-1.5518

> <Gold.Goldscore.Internal.Torsion.Weighted>
-1.0551

> <Gold.Goldscore.External.Vdw.Weighted>
50.7720

> <Gold.Goldscore.Internal.HBond.Weighted>
0.0000

> <Gold.Goldscore.External.HBond.Weighted>
10.4214

> <Gold.Goldscore.Internal.Correction.Weighted>
-0.7653

> <Gold.Rescore>
     Score     S(PLP)   S(hbond)     S(cho)   S(metal)  DE(clash)   DE(tors)     intcor
     45.35     -41.44       0.00       0.00       1.00       0.00       1.04       ----

> <Gold.PLP.Fitness>
45.3530

> <Gold.PLP.PLP>
-41.4362

> <Gold.PLP.part.hbond>
-2.9767

> <Gold.PLP.part.metal>
-0.8739

> <Gold.PLP.part.buried>
14.8329

> <Gold.PLP.part.nonpolar>
-62.4406

> <Gold.PLP.part.repulsive>
7.1236

> <Gold.PLP.ligand.clash>
0.0000

> <Gold.PLP.ligand.torsion>
1.0416

> <Gold.PLP.Chemscore.Hbond>
0.0000

> <Gold.PLP.Chemscore.CHOScore>
0.0000

> <Gold.PLP.Chemscore.Metal>
1.0000

> <Gold.Chemscore.Hbonds>
donor molecule, donor type, donor heavy atom, donor atom, acceptor molecule, acceptor atom, score
      L1  H     8    22       P1 17048  0.01
      P1  M 26840 26840       L1    11  1.00

> <Gold.PLP.Chemscore.Internal.Correction>
   9.000000E+99

