#       Name:                CT1002167954
#       Creating user name   hitesit
#       Creation time:       Sun Apr 16 02:23:59 2023


#       File generated by GOLD software.
#

@<TRIPOS>MOLECULE
CT1002167954|ligand_prepared|mol2|1|dock8
    29    30     1
SMALL
NO_CHARGES


@<TRIPOS>ATOM
      1 C1         264.1510 349.2330 -56.2527 C.3            1 RES1               0.0000
      2 C2         263.4854 350.3234 -57.1169 C.ar           1 RES1               0.0000
      3 C3         265.5855 349.1034 -56.7564 C.2            1 RES1               0.0000
      4 C4         264.0393 349.7067 -54.8078 C.2            1 RES1               0.0000
      5 C5         263.4672 347.8498 -56.3562 C.3            1 RES1               0.0000
      6 C6         263.3747 351.6293 -56.6487 C.ar           1 RES1               0.0000
      7 C7         262.9807 350.0398 -58.3832 C.ar           1 RES1               0.0000
      8 N8         266.5781 349.6184 -55.9758 N.am           1 RES1               0.0000
      9 O9         265.8384 348.5924 -57.8405 O.2            1 RES1               0.0000
     10 N10        265.1969 350.0113 -54.1407 N.am           1 RES1               0.0000
     11 O11        262.9584 349.8348 -54.2462 O.2            1 RES1               0.0000
     12 C12        263.9090 346.8657 -55.2845 C.3            1 RES1               0.0000
     13 C13        262.7836 352.6165 -57.4196 C.ar           1 RES1               0.0000
     14 C14        262.3897 351.0285 -59.1523 C.ar           1 RES1               0.0000
     15 C15        266.4591 350.0180 -54.6690 C.2            1 RES1               0.0000
     16 C16        262.2911 352.3170 -58.6719 C.ar           1 RES1               0.0000
     17 O17        267.4452 350.3567 -54.0208 O.2            1 RES1               0.0000
     18 H18        262.3811 347.9865 -56.2840 H              1 RES1               0.0000
     19 H19        263.6863 347.4205 -57.3417 H              1 RES1               0.0000
     20 H20        263.7543 351.8832 -55.6646 H              1 RES1               0.0000
     21 H21        263.0463 349.0328 -58.7811 H              1 RES1               0.0000
     22 H22        267.4936 349.7155 -56.4033 H              1 RES1               0.0000
     23 H23        265.1096 350.2555 -53.1593 H              1 RES1               0.0000
     24 H24        263.3993 345.9119 -55.4030 H              1 RES1               0.0000
     25 H25        264.9806 346.6869 -55.3432 H              1 RES1               0.0000
     26 H26        263.6832 347.2496 -54.2918 H              1 RES1               0.0000
     27 H27        262.7073 353.6287 -57.0363 H              1 RES1               0.0000
     28 H28        262.0029 350.7881 -60.1371 H              1 RES1               0.0000
     29 H29        261.8285 353.0906 -59.2757 H              1 RES1               0.0000
@<TRIPOS>BOND
    1    1    2 1     
    2    1    3 1     
    3    1    4 1     
    4    1    5 1     
    5    2    6 ar    
    6    2    7 ar    
    7    3    8 1     
    8    3    9 2     
    9    4   10 1     
   10    4   11 2     
   11    5   12 1     
   12    5   18 1     
   13    5   19 1     
   14    6   13 ar    
   15    6   20 1     
   16    7   14 ar    
   17    7   21 1     
   18    8   15 1     
   19    8   22 1     
   20   10   15 1     
   21   10   23 1     
   22   12   24 1     
   23   12   25 1     
   24   12   26 1     
   25   13   16 ar    
   26   13   27 1     
   27   14   16 ar    
   28   14   28 1     
   29   15   17 2     
   30   16   29 1     
@<TRIPOS>SUBSTRUCTURE
      1 RES1           1
@<TRIPOS>SET
DONOR_HYDROGENS      STATIC     ATOMS    <user>   **** ""
2 22 23
ATOM$RED        STATIC     ATOMS    COLORGROUP SYSTEM
2 22 23
@<TRIPOS>COMMENT
> <Gold.Version>
2022.3.0

> <Gold.Id.Protein>
unknown|7ts3_clean|pdb

> <Gold.Protein.RotatedTorsions>
[ 18421 18376 18375 18373 ] final  162.72 input   60.01 | X-H torsion
[ 18225 18202 18201 18198 ] final  -18.95 input   60.03 | X-H torsion
[ 16931 16868 16867 16865 ] final  145.67 input   59.99 | X-H torsion
[ 11361 11338 11337 11334 ] final   98.00 input   60.02 | X-H torsion
[ 26024 25971 25970 25968 ] final   11.56 input   59.99 | X-H torsion
[ 18579 18551 18549 18546 ] final   29.54 input   60.03 | X-H torsion

> <Gold.Protein.ActiveResidues>
 MET341  HIS342  TRP414  ARG419  CYS420  VAL421  GLY422  LEU429  LEU460  SER462 
 ALA463  ILE464  SER482  GLN483  ARG486  TRP566  TYR567  GLY568  LEU569  PRO570 
 ALA571  VAL572  SER573  ASN574  MET575  PRO588  PHE589  SER590  GLY591  TRP592 
 TYR593  MET594  GLY595  THR596  GLU597  ILE598  ARG601  ASP602  ARG608  ILE653 
 VAL654  TRP683  PHE709  GLU710  TYR711  HEM801  H4B802 

> <Gold.Protein.RotatedAtoms>
  269.9277  353.6928  -57.9527 H   0  0  0  0  0  0  0  0  0  0  0  0  # atno 11361 bound_to 11338
  266.4006  353.9802  -52.7846 H   0  0  0  0  0  0  0  0  0  0  0  0  # atno 16931 bound_to 16868
  257.6263  359.8594  -60.6765 H   0  0  0  0  0  0  0  0  0  0  0  0  # atno 18225 bound_to 18202
  262.9805  351.7613  -53.6384 H   0  0  0  0  0  0  0  0  0  0  0  0  # atno 18421 bound_to 18376
  257.7326  343.9868  -54.1890 H   0  0  0  0  0  0  0  0  0  0  0  0  # atno 18579 bound_to 18551
  266.5428  345.7572  -66.5053 H   0  0  0  0  0  0  0  0  0  0  0  0  # atno 26024 bound_to 25971
  262.8082  352.7061  -52.3253 LP  0  0  0  0  0  0  0  0  0  0  0  0  # atno 27283 bound_to 18376
  262.6052  353.3340  -53.8190 LP  0  0  0  0  0  0  0  0  0  0  0  0  # atno 27284 bound_to 18376
  258.4994  360.7869  -59.6636 LP  0  0  0  0  0  0  0  0  0  0  0  0  # atno 27303 bound_to 18202
  257.2712  359.8774  -59.0884 LP  0  0  0  0  0  0  0  0  0  0  0  0  # atno 27304 bound_to 18202
  265.1961  354.1174  -53.8698 LP  0  0  0  0  0  0  0  0  0  0  0  0  # atno 27315 bound_to 16868
  265.1546  352.9347  -52.7446 LP  0  0  0  0  0  0  0  0  0  0  0  0  # atno 27316 bound_to 16868
  270.7981  355.0571  -57.7814 LP  0  0  0  0  0  0  0  0  0  0  0  0  # atno 27322 bound_to 11338
  271.5498  353.6092  -57.8521 LP  0  0  0  0  0  0  0  0  0  0  0  0  # atno 27323 bound_to 11338
  265.7661  347.1089  -66.0388 LP  0  0  0  0  0  0  0  0  0  0  0  0  # atno 27328 bound_to 25971
  267.0171  346.5375  -65.1583 LP  0  0  0  0  0  0  0  0  0  0  0  0  # atno 27329 bound_to 25971

> <Gold.Score>
     Fitness  S(hb_ext) S(vdw_ext)  S(hb_int)    S(int)      intcor
     35.22       0.62      25.93       0.00      -1.06      -0.76

> <Gold.Goldscore.Fitness>
35.2212

> <Gold.Goldscore.Internal.Vdw>
-1.1909

> <Gold.Goldscore.Internal.Torsion>
-0.6341

> <Gold.Goldscore.External.Vdw>
25.9336

> <Gold.Goldscore.Internal.HBond>
0.0000

> <Gold.Goldscore.External.HBond>
0.6225

> <Gold.Goldscore.Internal.Correction>
-0.7650

> <Gold.Goldscore.Hbonds>
donor molecule, donor type, donor heavy atom, donor atom, acceptor molecule, acceptor atom, score
      P1  H 18376 18421       L1    11  0.31

> <Gold.Goldscore.Internal.Vdw.Weighted>
-1.1909

> <Gold.Goldscore.Internal.Torsion.Weighted>
-0.6341

> <Gold.Goldscore.External.Vdw.Weighted>
35.6586

> <Gold.Goldscore.Internal.HBond.Weighted>
0.0000

> <Gold.Goldscore.External.HBond.Weighted>
0.6225

> <Gold.Goldscore.Internal.Correction.Weighted>
-0.7650

> <Gold.Rescore>
     Score     S(PLP)   S(hbond)     S(cho)   S(metal)  DE(clash)   DE(tors)     intcor
     21.10     -20.06       1.13       0.00       0.00       1.24       0.56       ----

> <Gold.PLP.Fitness>
21.1027

> <Gold.PLP.PLP>
-20.0615

> <Gold.PLP.part.hbond>
-5.3682

> <Gold.PLP.part.metal>
0.0000

> <Gold.PLP.part.buried>
7.5070

> <Gold.PLP.part.nonpolar>
-28.7793

> <Gold.PLP.part.repulsive>
4.7754

> <Gold.PLP.ligand.clash>
1.2427

> <Gold.PLP.ligand.torsion>
0.5560

> <Gold.PLP.Chemscore.Hbond>
1.1320

> <Gold.PLP.Chemscore.CHOScore>
0.0000

> <Gold.PLP.Chemscore.Metal>
0.0000

> <Gold.Chemscore.Hbonds>
donor molecule, donor type, donor heavy atom, donor atom, acceptor molecule, acceptor atom, score
      L1  H    10    23       P1 18932  0.03
      P1  H 18376 18421       L1    11  0.94
      P1  H 19259 19317       L1    17  0.45

> <Gold.PLP.Chemscore.Internal.Correction>
   9.000000E+99

