#       Name:                CT1002167954
#       Creating user name   hitesit
#       Creation time:       Sun Apr 16 20:18:19 2023


#       File generated by GOLD software.
#

@<TRIPOS>MOLECULE
CT1002167954|ligand_prepared|mol2|1|dock8
    29    30     1
SMALL
NO_CHARGES


@<TRIPOS>ATOM
      1 C1         113.2043 241.6266 326.3064 C.3            1 RES1               0.0000
      2 C2         114.0804 242.3689 325.2768 C.ar           1 RES1               0.0000
      3 C3         111.7949 242.1919 326.1566 C.2            1 RES1               0.0000
      4 C4         113.3182 240.1432 325.9729 C.2            1 RES1               0.0000
      5 C5         113.6593 241.8232 327.7713 C.3            1 RES1               0.0000
      6 C6         114.3154 241.8201 324.0197 C.ar           1 RES1               0.0000
      7 C7         114.6571 243.6023 325.5680 C.ar           1 RES1               0.0000
      8 N8         110.8608 241.4071 325.5474 N.am           1 RES1               0.0000
      9 O9         111.5175 243.3244 326.5318 O.2            1 RES1               0.0000
     10 N10        112.1931 239.4954 325.5342 N.am           1 RES1               0.0000
     11 O11        114.3760 239.5333 326.0702 O.2            1 RES1               0.0000
     12 C12        112.9341 240.9283 328.7640 C.3            1 RES1               0.0000
     13 C13        115.0963 242.4816 323.0864 C.ar           1 RES1               0.0000
     14 C14        115.4378 244.2620 324.6333 C.ar           1 RES1               0.0000
     15 C15        110.9770 240.0673 325.2770 C.2            1 RES1               0.0000
     16 C16        115.6575 243.7031 323.3924 C.ar           1 RES1               0.0000
     17 O17        110.0274 239.4291 324.8318 O.2            1 RES1               0.0000
     18 H18        114.7359 241.6231 327.8365 H              1 RES1               0.0000
     19 H19        113.4951 242.8703 328.0545 H              1 RES1               0.0000
     20 H20        113.8841 240.8586 323.7618 H              1 RES1               0.0000
     21 H21        114.4986 244.0605 326.5383 H              1 RES1               0.0000
     22 H22        109.9958 241.8581 325.2667 H              1 RES1               0.0000
     23 H23        112.2693 238.4942 325.3858 H              1 RES1               0.0000
     24 H24        113.2910 241.1065 329.7762 H              1 RES1               0.0000
     25 H25        111.8630 241.1186 328.7439 H              1 RES1               0.0000
     26 H26        113.0964 239.8788 328.5272 H              1 RES1               0.0000
     27 H27        115.2673 242.0368 322.1117 H              1 RES1               0.0000
     28 H28        115.8781 245.2229 324.8787 H              1 RES1               0.0000
     29 H29        116.2689 244.2213 322.6610 H              1 RES1               0.0000
@<TRIPOS>BOND
    1    1    2 1     
    2    1    3 1     
    3    1    4 1     
    4    1    5 1     
    5    2    6 ar    
    6    2    7 ar    
    7    3    8 1     
    8    3    9 2     
    9    4   10 1     
   10    4   11 2     
   11    5   12 1     
   12    5   18 1     
   13    5   19 1     
   14    6   13 ar    
   15    6   20 1     
   16    7   14 ar    
   17    7   21 1     
   18    8   15 1     
   19    8   22 1     
   20   10   15 1     
   21   10   23 1     
   22   12   24 1     
   23   12   25 1     
   24   12   26 1     
   25   13   16 ar    
   26   13   27 1     
   27   14   16 ar    
   28   14   28 1     
   29   15   17 2     
   30   16   29 1     
@<TRIPOS>SUBSTRUCTURE
      1 RES1           1
@<TRIPOS>SET
DONOR_HYDROGENS      STATIC     ATOMS    <user>   **** ""
2 22 23
ATOM$RED        STATIC     ATOMS    COLORGROUP SYSTEM
2 22 23
@<TRIPOS>COMMENT
> <Gold.Version>
2022.3.0

> <Gold.Id.Protein>
unknown|5adg_clean|pdb

> <Gold.Protein.RotatedTorsions>
[ 5556 5551 5550 5547 ] final   66.66 input   60.01 | X-H torsion
[ 8551 8534 8535 8536 ] final  173.17 input   85.39 | X-H torsion
[ 12879 12858 12859 12860 ] final -107.28 input  110.07 | X-H torsion
[ 12887 12869 12868 12866 ] final    2.54 input   59.97 | X-H torsion
[ 12914 12897 12898 12899 ] final  -79.53 input   35.92 | X-H torsion
[ 8434 8429 8430 8431 ] final   15.97 input   45.97 | X-H torsion
[ 8458 8451 8452 8453 ] final -131.01 input  104.20 | X-H torsion
[ 9002 8998 8999 9000 ] final  -71.08 input   46.10 | X-H torsion
[ 9036 9022 9023 9024 ] final   73.50 input   36.28 | X-H torsion
[ 9087 9068 9069 9070 ] final -124.49 input   95.83 | X-H torsion
[ 9095 9079 9078 9076 ] final -172.09 input   59.97 | X-H torsion
[ 9123 9106 9107 9108 ] final  -74.36 input   84.45 | X-H torsion
[ 9198 9183 9184 9185 ] final  -20.27 input  123.29 | X-H torsion
[ 3599 3592 3593 3594 ] final  104.80 input   84.32 | X-H torsion
[ 8984 8978 8979 8980 ] final  -81.71 input   29.51 | X-H torsion
[ 9143 9136 9137 9138 ] final  -88.42 input  134.07 | X-H torsion
[ 11056 11049 11050 11051 ] final  163.26 input   56.26 | X-H torsion
[ 4901 4888 4887 4884 ] final   28.79 input   60.00 | X-H torsion
[ 8988 8983 8982 8979 ] final  -83.83 input   59.98 | X-H torsion
[ 3554 3542 3543 3544 ] final   53.31 input   80.85 | X-H torsion
[ 8491 8482 8483 8484 ] final   40.85 input   54.31 | X-H torsion
[ 8954 8943 8944 8945 ] final  -38.48 input   47.77 | X-H torsion
[ 8520 8506 8507 8508 ] final  144.67 input   67.56 | X-H torsion
[ 5580 5571 5572 5573 ] final -142.21 input   48.82 | X-H torsion
[ 3579 3563 3564 3565 ] final -122.72 input  103.62 | X-H torsion
[ 9231 9212 9213 9214 ] final -103.03 input   91.82 | X-H torsion
[ 8587 8568 8569 8570 ] final  165.96 input   67.63 | X-H torsion
[ 13465 1235 1234 1233 ] final   15.12 input    0.00 | X-H torsion
[ 13468 5549 5548 5547 ] final   34.91 input   -0.00 | X-H torsion
[ 13472 8509 8508 8507 ] final  127.77 input    0.00 | X-H torsion
[ 13479 12900 12899 12898 ] final   20.85 input   -0.00 | X-H torsion
[ 13492 8406 8405 8404 ] final -103.46 input    0.00 | X-H torsion
[ 13496 8946 8945 8944 ] final  -93.84 input   -0.00 | X-H torsion
[ 13499 9001 9000 8999 ] final  -69.69 input    0.00 | X-H torsion
[ 13502 9025 9024 9023 ] final   34.12 input    0.00 | X-H torsion
[ 13505 9071 9070 9069 ] final   94.96 input    0.00 | X-H torsion
[ 13510 9109 9108 9107 ] final  -90.37 input    0.00 | X-H torsion
[ 13521 8981 8980 8979 ] final -137.50 input   -0.00 | X-H torsion
[ 13523 8351 8350 8349 ] final  105.39 input   -0.00 | X-H torsion
[ 13531 8454 8453 8452 ] final  -32.44 input    0.00 | X-H torsion
[ 13533 8432 8431 8430 ] final  127.84 input    0.00 | X-H torsion
[ 13535 3502 3501 3500 ] final -164.86 input    0.00 | X-H torsion
[ 13543 12828 12827 12826 ] final -108.81 input   -0.00 | X-H torsion

> <Gold.Protein.ActiveResidues>
 TRP311  MET341  HIS342  TRP414  ALA417  ARG419  CYS420  VAL421  GLY422  LEU460 
 SER462  SER482  GLN483  ARG486  ALA502  TYR567  GLY568  LEU569  PRO570  ALA571 
 VAL572  SER573  ASN574  MET575  LEU576  PHE589  SER590  GLY591  TRP592  TYR593 
 MET594  GLY595  GLU597  ILE598  ARG601  ASP602  ARG608  ILE653  VAL654  TRP683 
 PHE709  GLU710  TYR711  GLN712  ASP714  HEM750  H4B760 

> <Gold.Protein.RotatedAtoms>
  120.6510  252.3335  329.5667 H   0  0  0  0  0  0  0  0  0  0  0  0  # atno 3554 bound_to 3542
  122.1387  249.7694  329.9592 H   0  0  0  0  0  0  0  0  0  0  0  0  # atno 3579 bound_to 3563
  123.3998  248.0843  327.6959 H   0  0  0  0  0  0  0  0  0  0  0  0  # atno 3599 bound_to 3592
  125.7100  245.6605  318.1827 H   0  0  0  0  0  0  0  0  0  0  0  0  # atno 4901 bound_to 4888
  107.9825  243.2567  321.1566 H   0  0  0  0  0  0  0  0  0  0  0  0  # atno 5556 bound_to 5551
  108.9363  244.6221  319.3835 H   0  0  0  0  0  0  0  0  0  0  0  0  # atno 5580 bound_to 5571
  114.8533  242.4432  319.1797 H   0  0  0  0  0  0  0  0  0  0  0  0  # atno 8434 bound_to 8429
  114.4193  244.6777  319.0417 H   0  0  0  0  0  0  0  0  0  0  0  0  # atno 8458 bound_to 8451
  110.8614  247.0196  318.8548 H   0  0  0  0  0  0  0  0  0  0  0  0  # atno 8491 bound_to 8482
  109.4786  248.1758  318.6349 H   0  0  0  0  0  0  0  0  0  0  0  0  # atno 8520 bound_to 8506
  110.0151  250.8378  320.1677 H   0  0  0  0  0  0  0  0  0  0  0  0  # atno 8551 bound_to 8534
  109.5692  254.9116  319.9562 H   0  0  0  0  0  0  0  0  0  0  0  0  # atno 8587 bound_to 8568
  115.3385  248.0620  315.7409 H   0  0  0  0  0  0  0  0  0  0  0  0  # atno 8954 bound_to 8943
  118.5787  247.7333  317.5464 H   0  0  0  0  0  0  0  0  0  0  0  0  # atno 8984 bound_to 8978
  119.3829  245.3385  314.6769 H   0  0  0  0  0  0  0  0  0  0  0  0  # atno 8988 bound_to 8983
  120.6056  244.5424  317.9652 H   0  0  0  0  0  0  0  0  0  0  0  0  # atno 9002 bound_to 8998
  123.4533  243.2399  321.1256 H   0  0  0  0  0  0  0  0  0  0  0  0  # atno 9036 bound_to 9022
  121.6708  240.6381  322.3171 H   0  0  0  0  0  0  0  0  0  0  0  0  # atno 9087 bound_to 9068
  114.9600  237.8634  322.0404 H   0  0  0  0  0  0  0  0  0  0  0  0  # atno 9095 bound_to 9079
  121.9771  239.4372  325.7026 H   0  0  0  0  0  0  0  0  0  0  0  0  # atno 9123 bound_to 9106
  121.9084  237.8758  327.8400 H   0  0  0  0  0  0  0  0  0  0  0  0  # atno 9143 bound_to 9136
  117.9822  237.5095  330.4399 H   0  0  0  0  0  0  0  0  0  0  0  0  # atno 9198 bound_to 9183
  116.0431  237.5093  328.5797 H   0  0  0  0  0  0  0  0  0  0  0  0  # atno 9231 bound_to 9212
  126.1973  238.3367  325.0572 H   0  0  0  0  0  0  0  0  0  0  0  0  # atno 11056 bound_to 11049
  110.3607  255.8458  324.1274 H   0  0  0  0  0  0  0  0  0  0  0  0  # atno 12879 bound_to 12858
  111.4306  251.0096  328.6592 H   0  0  0  0  0  0  0  0  0  0  0  0  # atno 12887 bound_to 12869
  106.4927  255.2728  324.0109 H   0  0  0  0  0  0  0  0  0  0  0  0  # atno 12914 bound_to 12897
  109.8278  253.3669  332.2566 LP  0  0  0  0  0  0  0  0  0  0  0  0  # atno 13465 bound_to 1235
  109.0551  254.8371  331.7652 LP  0  0  0  0  0  0  0  0  0  0  0  0  # atno 13466 bound_to 1235
  109.5401  246.3798  320.4413 LP  0  0  0  0  0  0  0  0  0  0  0  0  # atno 13468 bound_to 5549
  110.4747  245.8353  319.0885 LP  0  0  0  0  0  0  0  0  0  0  0  0  # atno 13469 bound_to 5549
  106.5784  242.9708  320.3848 LP  0  0  0  0  0  0  0  0  0  0  0  0  # atno 13470 bound_to 5551
  106.5975  243.1640  322.0062 LP  0  0  0  0  0  0  0  0  0  0  0  0  # atno 13471 bound_to 5551
  107.9473  252.2966  321.1404 LP  0  0  0  0  0  0  0  0  0  0  0  0  # atno 13472 bound_to 8509
  107.0019  252.2330  319.6905 LP  0  0  0  0  0  0  0  0  0  0  0  0  # atno 13473 bound_to 8509
  109.6875  251.6874  318.6801 LP  0  0  0  0  0  0  0  0  0  0  0  0  # atno 13474 bound_to 8534
  109.4786  256.8952  325.2101 LP  0  0  0  0  0  0  0  0  0  0  0  0  # atno 13475 bound_to 12858
  110.8652  251.7536  329.9917 LP  0  0  0  0  0  0  0  0  0  0  0  0  # atno 13476 bound_to 12869
  112.1428  252.3747  329.1863 LP  0  0  0  0  0  0  0  0  0  0  0  0  # atno 13477 bound_to 12869
  107.1675  254.6793  322.5120 LP  0  0  0  0  0  0  0  0  0  0  0  0  # atno 13478 bound_to 12897
  105.2008  253.3299  323.2045 LP  0  0  0  0  0  0  0  0  0  0  0  0  # atno 13479 bound_to 12900
  103.6495  252.8985  322.5664 LP  0  0  0  0  0  0  0  0  0  0  0  0  # atno 13480 bound_to 12900
  117.8434  244.0588  319.6893 LP  0  0  0  0  0  0  0  0  0  0  0  0  # atno 13492 bound_to 8406
  118.5281  243.0222  318.4824 LP  0  0  0  0  0  0  0  0  0  0  0  0  # atno 13493 bound_to 8406
  116.5289  242.2881  318.7130 LP  0  0  0  0  0  0  0  0  0  0  0  0  # atno 13494 bound_to 8429
  115.1874  246.1450  318.4748 LP  0  0  0  0  0  0  0  0  0  0  0  0  # atno 13495 bound_to 8451
  116.5473  246.9652  318.5849 LP  0  0  0  0  0  0  0  0  0  0  0  0  # atno 13496 bound_to 8946
  116.0973  246.1809  317.1076 LP  0  0  0  0  0  0  0  0  0  0  0  0  # atno 13497 bound_to 8946
  120.1808  245.2091  319.5257 LP  0  0  0  0  0  0  0  0  0  0  0  0  # atno 13498 bound_to 8998
  121.2916  242.1276  318.2355 LP  0  0  0  0  0  0  0  0  0  0  0  0  # atno 13499 bound_to 9001
  122.9925  241.8048  318.1863 LP  0  0  0  0  0  0  0  0  0  0  0  0  # atno 13500 bound_to 9001
  122.0270  243.0279  320.1447 LP  0  0  0  0  0  0  0  0  0  0  0  0  # atno 13501 bound_to 9022
  121.8656  242.9535  322.7423 LP  0  0  0  0  0  0  0  0  0  0  0  0  # atno 13502 bound_to 9025
  122.3565  242.0483  324.1350 LP  0  0  0  0  0  0  0  0  0  0  0  0  # atno 13503 bound_to 9025
  122.7118  239.2566  322.5769 LP  0  0  0  0  0  0  0  0  0  0  0  0  # atno 13504 bound_to 9068
  124.1860  239.7857  325.0376 LP  0  0  0  0  0  0  0  0  0  0  0  0  # atno 13505 bound_to 9071
  123.6055  238.1727  325.2849 LP  0  0  0  0  0  0  0  0  0  0  0  0  # atno 13506 bound_to 9071
  114.8244  239.3667  322.6492 LP  0  0  0  0  0  0  0  0  0  0  0  0  # atno 13507 bound_to 9079
  114.5727  238.0688  323.6078 LP  0  0  0  0  0  0  0  0  0  0  0  0  # atno 13508 bound_to 9079
  121.2201  240.8345  326.4348 LP  0  0  0  0  0  0  0  0  0  0  0  0  # atno 13509 bound_to 9106
  119.7765  238.8378  328.9547 LP  0  0  0  0  0  0  0  0  0  0  0  0  # atno 13510 bound_to 9109
  119.8398  238.1940  327.3480 LP  0  0  0  0  0  0  0  0  0  0  0  0  # atno 13511 bound_to 9109
  118.8319  238.9845  330.0527 LP  0  0  0  0  0  0  0  0  0  0  0  0  # atno 13512 bound_to 9183
  124.7583  248.4425  328.7286 LP  0  0  0  0  0  0  0  0  0  0  0  0  # atno 13519 bound_to 3592
  118.8222  247.1141  315.9326 LP  0  0  0  0  0  0  0  0  0  0  0  0  # atno 13520 bound_to 8978
  122.3453  245.9825  317.1628 LP  0  0  0  0  0  0  0  0  0  0  0  0  # atno 13521 bound_to 8981
  121.2291  247.3068  317.1720 LP  0  0  0  0  0  0  0  0  0  0  0  0  # atno 13522 bound_to 8981
  120.9260  237.7148  318.7887 LP  0  0  0  0  0  0  0  0  0  0  0  0  # atno 13523 bound_to 8351
  120.0051  237.2798  320.1897 LP  0  0  0  0  0  0  0  0  0  0  0  0  # atno 13524 bound_to 8351
  122.9215  237.7245  329.2594 LP  0  0  0  0  0  0  0  0  0  0  0  0  # atno 13525 bound_to 9136
  125.3130  237.2615  326.1105 LP  0  0  0  0  0  0  0  0  0  0  0  0  # atno 13526 bound_to 11049
  124.5841  246.4068  319.0900 LP  0  0  0  0  0  0  0  0  0  0  0  0  # atno 13527 bound_to 4888
  126.0804  247.0461  318.9515 LP  0  0  0  0  0  0  0  0  0  0  0  0  # atno 13528 bound_to 4888
  119.8382  243.7893  314.8786 LP  0  0  0  0  0  0  0  0  0  0  0  0  # atno 13529 bound_to 8983
  120.6521  244.9874  315.6329 LP  0  0  0  0  0  0  0  0  0  0  0  0  # atno 13530 bound_to 8983
  114.3446  248.5783  318.3666 LP  0  0  0  0  0  0  0  0  0  0  0  0  # atno 13531 bound_to 8454
  113.4094  248.4851  316.9118 LP  0  0  0  0  0  0  0  0  0  0  0  0  # atno 13532 bound_to 8454
  112.3745  244.2603  318.0883 LP  0  0  0  0  0  0  0  0  0  0  0  0  # atno 13533 bound_to 8432
  113.1371  244.3485  316.5357 LP  0  0  0  0  0  0  0  0  0  0  0  0  # atno 13534 bound_to 8432
  119.7582  249.2104  330.3580 LP  0  0  0  0  0  0  0  0  0  0  0  0  # atno 13535 bound_to 3502
  118.2546  249.6652  331.0874 LP  0  0  0  0  0  0  0  0  0  0  0  0  # atno 13536 bound_to 3502
  119.2901  251.2503  329.7223 LP  0  0  0  0  0  0  0  0  0  0  0  0  # atno 13537 bound_to 3542
  112.4766  247.2376  318.2288 LP  0  0  0  0  0  0  0  0  0  0  0  0  # atno 13538 bound_to 8482
  115.4202  249.7671  316.1115 LP  0  0  0  0  0  0  0  0  0  0  0  0  # atno 13539 bound_to 8943
  110.3578  249.6364  318.2606 LP  0  0  0  0  0  0  0  0  0  0  0  0  # atno 13541 bound_to 8506
  108.2433  243.1786  318.6766 LP  0  0  0  0  0  0  0  0  0  0  0  0  # atno 13542 bound_to 5571
  109.4384  255.8716  321.9077 LP  0  0  0  0  0  0  0  0  0  0  0  0  # atno 13543 bound_to 12828
  110.9260  255.0522  322.2476 LP  0  0  0  0  0  0  0  0  0  0  0  0  # atno 13544 bound_to 12828

> <Gold.Score>
     Fitness  S(hb_ext) S(vdw_ext)  S(hb_int)    S(int)      intcor
     36.41       1.36      26.07       0.00      -0.80      -0.76

> <Gold.Goldscore.Fitness>
36.4056

> <Gold.Goldscore.Internal.Vdw>
-1.0730

> <Gold.Goldscore.Internal.Torsion>
-0.4895

> <Gold.Goldscore.External.Vdw>
26.0707

> <Gold.Goldscore.Internal.HBond>
0.0000

> <Gold.Goldscore.External.HBond>
1.3623

> <Gold.Goldscore.Internal.Correction>
-0.7585

> <Gold.Goldscore.Hbonds>
donor molecule, donor type, donor heavy atom, donor atom, acceptor molecule, acceptor atom, score
      P1  H  5693  5706       L1    17  0.21
      P1  H  9519  9531       L1    17  0.01

> <Gold.Goldscore.Internal.Vdw.Weighted>
-1.0730

> <Gold.Goldscore.Internal.Torsion.Weighted>
-0.4895

> <Gold.Goldscore.External.Vdw.Weighted>
35.8472

> <Gold.Goldscore.Internal.HBond.Weighted>
0.0000

> <Gold.Goldscore.External.HBond.Weighted>
1.3623

> <Gold.Goldscore.Internal.Correction.Weighted>
-0.7585

> <Gold.Rescore>
     Score     S(PLP)   S(hbond)     S(cho)   S(metal)  DE(clash)   DE(tors)     intcor
     24.53     -22.20       1.51       0.00       0.00       1.96       0.11       ----

> <Gold.PLP.Fitness>
24.5317

> <Gold.PLP.PLP>
-22.1983

> <Gold.PLP.part.hbond>
-4.3715

> <Gold.PLP.part.metal>
0.0000

> <Gold.PLP.part.buried>
4.3965

> <Gold.PLP.part.nonpolar>
-27.5173

> <Gold.PLP.part.repulsive>
3.2193

> <Gold.PLP.ligand.clash>
1.9597

> <Gold.PLP.ligand.torsion>
0.1124

> <Gold.PLP.Chemscore.Hbond>
1.5060

> <Gold.PLP.Chemscore.CHOScore>
0.0000

> <Gold.PLP.Chemscore.Metal>
0.0000

> <Gold.Chemscore.Hbonds>
donor molecule, donor type, donor heavy atom, donor atom, acceptor molecule, acceptor atom, score
      P1  H  5693  5706       L1    17  0.34
      P1  H  9519  9531       L1    17  0.48

> <Gold.PLP.Chemscore.Internal.Correction>
   9.000000E+99

