#       Name:                CT1002167954
#       Creating user name   hitesit
#       Creation time:       Sun Apr 16 20:18:20 2023


#       File generated by GOLD software.
#

@<TRIPOS>MOLECULE
CT1002167954|ligand_prepared|mol2|1|dock9
    29    30     1
SMALL
NO_CHARGES


@<TRIPOS>ATOM
      1 C1         117.5710 245.3452 323.3144 C.3            1 RES1               0.0000
      2 C2         116.5242 244.3786 323.9047 C.ar           1 RES1               0.0000
      3 C3         118.8698 245.0847 324.0717 C.2            1 RES1               0.0000
      4 C4         117.6467 245.0336 321.8238 C.2            1 RES1               0.0000
      5 C5         117.2015 246.8386 323.4721 C.3            1 RES1               0.0000
      6 C6         115.2616 244.8373 324.2683 C.ar           1 RES1               0.0000
      7 C7         116.8050 243.0273 324.0889 C.ar           1 RES1               0.0000
      8 N8         119.8595 244.4132 323.4164 N.am           1 RES1               0.0000
      9 O9         119.0088 245.4285 325.2391 O.2            1 RES1               0.0000
     10 N10        118.8177 244.5166 321.3346 N.am           1 RES1               0.0000
     11 O11        116.6974 245.2155 321.0716 O.2            1 RES1               0.0000
     12 C12        118.3172 247.7917 323.0734 C.3            1 RES1               0.0000
     13 C13        114.3130 243.9759 324.7941 C.ar           1 RES1               0.0000
     14 C14        115.8550 242.1677 324.6151 C.ar           1 RES1               0.0000
     15 C15        119.9170 244.1635 322.0688 C.2            1 RES1               0.0000
     16 C16        114.6088 242.6406 324.9675 C.ar           1 RES1               0.0000
     17 O17        120.9129 243.6532 321.5639 O.2            1 RES1               0.0000
     18 H18        116.3188 247.0509 322.8563 H              1 RES1               0.0000
     19 H19        116.9332 247.0273 324.5189 H              1 RES1               0.0000
     20 H20        115.0115 245.8853 324.1414 H              1 RES1               0.0000
     21 H21        117.7791 242.6333 323.8198 H              1 RES1               0.0000
     22 H22        120.6279 244.0643 323.9805 H              1 RES1               0.0000
     23 H23        118.8751 244.3826 320.3301 H              1 RES1               0.0000
     24 H24        118.0057 248.8260 323.2032 H              1 RES1               0.0000
     25 H25        119.2028 247.6255 323.6831 H              1 RES1               0.0000
     26 H26        118.5921 247.6489 322.0304 H              1 RES1               0.0000
     27 H27        113.3342 244.3534 325.0711 H              1 RES1               0.0000
     28 H28        116.0923 241.1176 324.7504 H              1 RES1               0.0000
     29 H29        113.8654 241.9659 325.3791 H              1 RES1               0.0000
@<TRIPOS>BOND
    1    1    2 1     
    2    1    3 1     
    3    1    4 1     
    4    1    5 1     
    5    2    6 ar    
    6    2    7 ar    
    7    3    8 1     
    8    3    9 2     
    9    4   10 1     
   10    4   11 2     
   11    5   12 1     
   12    5   18 1     
   13    5   19 1     
   14    6   13 ar    
   15    6   20 1     
   16    7   14 ar    
   17    7   21 1     
   18    8   15 1     
   19    8   22 1     
   20   10   15 1     
   21   10   23 1     
   22   12   24 1     
   23   12   25 1     
   24   12   26 1     
   25   13   16 ar    
   26   13   27 1     
   27   14   16 ar    
   28   14   28 1     
   29   15   17 2     
   30   16   29 1     
@<TRIPOS>SUBSTRUCTURE
      1 RES1           1
@<TRIPOS>SET
DONOR_HYDROGENS      STATIC     ATOMS    <user>   **** ""
2 22 23
ATOM$RED        STATIC     ATOMS    COLORGROUP SYSTEM
2 22 23
@<TRIPOS>COMMENT
> <Gold.Version>
2022.3.0

> <Gold.Id.Protein>
unknown|5adg_clean|pdb

> <Gold.Protein.RotatedTorsions>
[ 5556 5551 5550 5547 ] final   16.97 input   60.01 | X-H torsion
[ 8551 8534 8535 8536 ] final -176.41 input   85.39 | X-H torsion
[ 12879 12858 12859 12860 ] final -133.48 input  110.07 | X-H torsion
[ 12887 12869 12868 12866 ] final -158.20 input   59.97 | X-H torsion
[ 12914 12897 12898 12899 ] final  159.62 input   35.92 | X-H torsion
[ 8434 8429 8430 8431 ] final -101.75 input   45.97 | X-H torsion
[ 8458 8451 8452 8453 ] final  132.12 input  104.20 | X-H torsion
[ 9002 8998 8999 9000 ] final  120.34 input   46.10 | X-H torsion
[ 9036 9022 9023 9024 ] final  -44.42 input   36.28 | X-H torsion
[ 9087 9068 9069 9070 ] final   -1.56 input   95.83 | X-H torsion
[ 9095 9079 9078 9076 ] final  -80.67 input   59.97 | X-H torsion
[ 9123 9106 9107 9108 ] final -109.92 input   84.45 | X-H torsion
[ 9198 9183 9184 9185 ] final   61.38 input  123.29 | X-H torsion
[ 3599 3592 3593 3594 ] final  -22.61 input   84.32 | X-H torsion
[ 8984 8978 8979 8980 ] final   16.76 input   29.51 | X-H torsion
[ 9143 9136 9137 9138 ] final   47.57 input  134.07 | X-H torsion
[ 11056 11049 11050 11051 ] final  126.28 input   56.26 | X-H torsion
[ 4901 4888 4887 4884 ] final   -1.82 input   60.00 | X-H torsion
[ 8988 8983 8982 8979 ] final  155.16 input   59.98 | X-H torsion
[ 3554 3542 3543 3544 ] final  -44.78 input   80.85 | X-H torsion
[ 8491 8482 8483 8484 ] final  131.54 input   54.31 | X-H torsion
[ 8954 8943 8944 8945 ] final   35.64 input   47.77 | X-H torsion
[ 8520 8506 8507 8508 ] final   -8.93 input   67.56 | X-H torsion
[ 5580 5571 5572 5573 ] final   83.33 input   48.82 | X-H torsion
[ 3579 3563 3564 3565 ] final -145.69 input  103.62 | X-H torsion
[ 9231 9212 9213 9214 ] final   -1.61 input   91.82 | X-H torsion
[ 8587 8568 8569 8570 ] final  -62.09 input   67.63 | X-H torsion
[ 13465 1235 1234 1233 ] final -129.85 input    0.00 | X-H torsion
[ 13468 5549 5548 5547 ] final  -13.26 input   -0.00 | X-H torsion
[ 13472 8509 8508 8507 ] final -163.49 input    0.00 | X-H torsion
[ 13479 12900 12899 12898 ] final -147.68 input   -0.00 | X-H torsion
[ 13492 8406 8405 8404 ] final  136.21 input    0.00 | X-H torsion
[ 13496 8946 8945 8944 ] final  174.02 input   -0.00 | X-H torsion
[ 13499 9001 9000 8999 ] final  -53.94 input    0.00 | X-H torsion
[ 13502 9025 9024 9023 ] final  118.82 input    0.00 | X-H torsion
[ 13505 9071 9070 9069 ] final -156.84 input    0.00 | X-H torsion
[ 13510 9109 9108 9107 ] final    7.78 input    0.00 | X-H torsion
[ 13521 8981 8980 8979 ] final   58.34 input   -0.00 | X-H torsion
[ 13523 8351 8350 8349 ] final  -74.03 input   -0.00 | X-H torsion
[ 13531 8454 8453 8452 ] final -106.50 input    0.00 | X-H torsion
[ 13533 8432 8431 8430 ] final   21.46 input    0.00 | X-H torsion
[ 13535 3502 3501 3500 ] final  -69.71 input    0.00 | X-H torsion
[ 13543 12828 12827 12826 ] final  121.77 input   -0.00 | X-H torsion

> <Gold.Protein.ActiveResidues>
 TRP311  MET341  HIS342  TRP414  ALA417  ARG419  CYS420  VAL421  GLY422  LEU460 
 SER462  SER482  GLN483  ARG486  ALA502  TYR567  GLY568  LEU569  PRO570  ALA571 
 VAL572  SER573  ASN574  MET575  LEU576  PHE589  SER590  GLY591  TRP592  TYR593 
 MET594  GLY595  GLU597  ILE598  ARG601  ASP602  ARG608  ILE653  VAL654  TRP683 
 PHE709  GLU710  TYR711  GLN712  ASP714  HEM750  H4B760 

> <Gold.Protein.RotatedAtoms>
  120.2014  251.3968  330.3992 H   0  0  0  0  0  0  0  0  0  0  0  0  # atno 3554 bound_to 3542
  121.9658  249.5514  330.1795 H   0  0  0  0  0  0  0  0  0  0  0  0  # atno 3579 bound_to 3563
  124.4937  249.0330  328.3066 H   0  0  0  0  0  0  0  0  0  0  0  0  # atno 3599 bound_to 3592
  125.2382  245.5728  318.3006 H   0  0  0  0  0  0  0  0  0  0  0  0  # atno 4901 bound_to 4888
  107.6465  243.1284  320.4565 H   0  0  0  0  0  0  0  0  0  0  0  0  # atno 5556 bound_to 5551
  108.4785  243.0490  319.2995 H   0  0  0  0  0  0  0  0  0  0  0  0  # atno 5580 bound_to 5571
  116.2988  242.8027  319.4186 H   0  0  0  0  0  0  0  0  0  0  0  0  # atno 8434 bound_to 8429
  115.2633  245.6005  319.4982 H   0  0  0  0  0  0  0  0  0  0  0  0  # atno 8458 bound_to 8451
  111.6274  246.3593  318.1135 H   0  0  0  0  0  0  0  0  0  0  0  0  # atno 8491 bound_to 8482
  110.4551  249.5838  318.6437 H   0  0  0  0  0  0  0  0  0  0  0  0  # atno 8520 bound_to 8506
  109.8621  250.8670  320.2011 H   0  0  0  0  0  0  0  0  0  0  0  0  # atno 8551 bound_to 8534
  111.1122  254.5603  319.6026 H   0  0  0  0  0  0  0  0  0  0  0  0  # atno 8587 bound_to 8568
  115.1986  248.5190  316.6915 H   0  0  0  0  0  0  0  0  0  0  0  0  # atno 8954 bound_to 8943
  119.5570  247.6087  316.6501 H   0  0  0  0  0  0  0  0  0  0  0  0  # atno 8984 bound_to 8978
  119.8505  243.7922  314.8914 H   0  0  0  0  0  0  0  0  0  0  0  0  # atno 8988 bound_to 8983
  120.2403  245.3695  319.4824 H   0  0  0  0  0  0  0  0  0  0  0  0  # atno 9002 bound_to 8998
  121.9542  243.2185  321.0206 H   0  0  0  0  0  0  0  0  0  0  0  0  # atno 9036 bound_to 9022
  122.9836  239.9953  322.8584 H   0  0  0  0  0  0  0  0  0  0  0  0  # atno 9087 bound_to 9068
  114.6387  237.7017  323.3319 H   0  0  0  0  0  0  0  0  0  0  0  0  # atno 9095 bound_to 9079
  122.3249  239.8520  325.6664 H   0  0  0  0  0  0  0  0  0  0  0  0  # atno 9123 bound_to 9106
  122.3658  238.0367  329.4174 H   0  0  0  0  0  0  0  0  0  0  0  0  # atno 9143 bound_to 9136
  118.6472  237.7813  329.5399 H   0  0  0  0  0  0  0  0  0  0  0  0  # atno 9198 bound_to 9183
  116.8012  236.7864  329.4775 H   0  0  0  0  0  0  0  0  0  0  0  0  # atno 9231 bound_to 9212
  125.7652  238.6168  325.2740 H   0  0  0  0  0  0  0  0  0  0  0  0  # atno 11056 bound_to 11049
  110.4351  255.6878  324.4875 H   0  0  0  0  0  0  0  0  0  0  0  0  # atno 12879 bound_to 12858
  111.2818  252.2576  330.0120 H   0  0  0  0  0  0  0  0  0  0  0  0  # atno 12887 bound_to 12869
  107.3846  255.4725  322.7732 H   0  0  0  0  0  0  0  0  0  0  0  0  # atno 12914 bound_to 12897
  109.3443  254.9447  332.1854 LP  0  0  0  0  0  0  0  0  0  0  0  0  # atno 13465 bound_to 1235
  109.5386  253.2594  331.8364 LP  0  0  0  0  0  0  0  0  0  0  0  0  # atno 13466 bound_to 1235
  109.4087  246.7287  319.8408 LP  0  0  0  0  0  0  0  0  0  0  0  0  # atno 13468 bound_to 5549
  110.6061  245.4864  319.6889 LP  0  0  0  0  0  0  0  0  0  0  0  0  # atno 13469 bound_to 5549
  106.1340  242.9870  321.0405 LP  0  0  0  0  0  0  0  0  0  0  0  0  # atno 13470 bound_to 5551
  107.3801  243.2770  322.0552 LP  0  0  0  0  0  0  0  0  0  0  0  0  # atno 13471 bound_to 5551
  108.0015  252.9521  320.4168 LP  0  0  0  0  0  0  0  0  0  0  0  0  # atno 13472 bound_to 8509
  106.9477  251.5775  320.4141 LP  0  0  0  0  0  0  0  0  0  0  0  0  # atno 13473 bound_to 8509
  109.8389  251.6586  318.6471 LP  0  0  0  0  0  0  0  0  0  0  0  0  # atno 13474 bound_to 8534
  109.4058  257.0498  324.8578 LP  0  0  0  0  0  0  0  0  0  0  0  0  # atno 13475 bound_to 12858
  112.1957  251.9312  328.7055 LP  0  0  0  0  0  0  0  0  0  0  0  0  # atno 13476 bound_to 12869
  110.9621  250.9408  329.1106 LP  0  0  0  0  0  0  0  0  0  0  0  0  # atno 13477 bound_to 12869
  106.2973  254.4845  323.7197 LP  0  0  0  0  0  0  0  0  0  0  0  0  # atno 13478 bound_to 12897
  103.7363  252.8737  322.4189 LP  0  0  0  0  0  0  0  0  0  0  0  0  # atno 13479 bound_to 12900
  105.1140  253.3548  323.3521 LP  0  0  0  0  0  0  0  0  0  0  0  0  # atno 13480 bound_to 12900
  118.0101  243.6696  318.2477 LP  0  0  0  0  0  0  0  0  0  0  0  0  # atno 13492 bound_to 8406
  118.3613  243.4114  319.9240 LP  0  0  0  0  0  0  0  0  0  0  0  0  # atno 13493 bound_to 8406
  115.1101  241.9352  318.4785 LP  0  0  0  0  0  0  0  0  0  0  0  0  # atno 13494 bound_to 8429
  114.3708  245.2521  318.0331 LP  0  0  0  0  0  0  0  0  0  0  0  0  # atno 13495 bound_to 8451
  116.8676  245.9160  317.9912 LP  0  0  0  0  0  0  0  0  0  0  0  0  # atno 13496 bound_to 8946
  115.7771  247.2301  317.7014 LP  0  0  0  0  0  0  0  0  0  0  0  0  # atno 13497 bound_to 8946
  120.5355  244.4060  318.0526 LP  0  0  0  0  0  0  0  0  0  0  0  0  # atno 13498 bound_to 8998
  121.3526  242.2984  318.0826 LP  0  0  0  0  0  0  0  0  0  0  0  0  # atno 13499 bound_to 9001
  122.9315  241.6340  318.3393 LP  0  0  0  0  0  0  0  0  0  0  0  0  # atno 13500 bound_to 9001
  123.5087  243.0490  320.2485 LP  0  0  0  0  0  0  0  0  0  0  0  0  # atno 13501 bound_to 9022
  121.2652  242.3409  323.5332 LP  0  0  0  0  0  0  0  0  0  0  0  0  # atno 13502 bound_to 9025
  122.9569  242.6609  323.3440 LP  0  0  0  0  0  0  0  0  0  0  0  0  # atno 13503 bound_to 9025
  121.4360  239.8813  322.0509 LP  0  0  0  0  0  0  0  0  0  0  0  0  # atno 13504 bound_to 9068
  123.9318  238.8058  326.0090 LP  0  0  0  0  0  0  0  0  0  0  0  0  # atno 13505 bound_to 9071
  123.8596  239.1526  324.3135 LP  0  0  0  0  0  0  0  0  0  0  0  0  # atno 13506 bound_to 9071
  115.0077  238.2877  321.8591 LP  0  0  0  0  0  0  0  0  0  0  0  0  # atno 13507 bound_to 9079
  114.7129  239.3105  323.0975 LP  0  0  0  0  0  0  0  0  0  0  0  0  # atno 13508 bound_to 9079
  120.8830  240.4324  326.4699 LP  0  0  0  0  0  0  0  0  0  0  0  0  # atno 13509 bound_to 9106
  119.8619  239.2654  327.7208 LP  0  0  0  0  0  0  0  0  0  0  0  0  # atno 13510 bound_to 9109
  119.7544  237.7664  328.5820 LP  0  0  0  0  0  0  0  0  0  0  0  0  # atno 13511 bound_to 9109
  118.1788  238.7176  330.9367 LP  0  0  0  0  0  0  0  0  0  0  0  0  # atno 13512 bound_to 9183
  123.6759  247.5038  328.1244 LP  0  0  0  0  0  0  0  0  0  0  0  0  # atno 13519 bound_to 3592
  117.8595  247.2367  316.8145 LP  0  0  0  0  0  0  0  0  0  0  0  0  # atno 13520 bound_to 8978
  121.3289  247.3465  317.3851 LP  0  0  0  0  0  0  0  0  0  0  0  0  # atno 13521 bound_to 8981
  122.2455  245.9428  316.9498 LP  0  0  0  0  0  0  0  0  0  0  0  0  # atno 13522 bound_to 8981
  120.0098  237.2725  320.1905 LP  0  0  0  0  0  0  0  0  0  0  0  0  # atno 13523 bound_to 8351
  120.9212  237.7221  318.7879 LP  0  0  0  0  0  0  0  0  0  0  0  0  # atno 13524 bound_to 8351
  122.4793  237.5690  327.7344 LP  0  0  0  0  0  0  0  0  0  0  0  0  # atno 13525 bound_to 9136
  125.7374  236.9865  325.8976 LP  0  0  0  0  0  0  0  0  0  0  0  0  # atno 13526 bound_to 11049
  124.8143  246.8107  319.2680 LP  0  0  0  0  0  0  0  0  0  0  0  0  # atno 13527 bound_to 4888
  126.3255  246.7306  318.6546 LP  0  0  0  0  0  0  0  0  0  0  0  0  # atno 13528 bound_to 4888
  120.6473  245.0032  315.6307 LP  0  0  0  0  0  0  0  0  0  0  0  0  # atno 13529 bound_to 8983
  119.3720  245.3309  314.6648 LP  0  0  0  0  0  0  0  0  0  0  0  0  # atno 13530 bound_to 8983
  113.5369  249.1818  318.0994 LP  0  0  0  0  0  0  0  0  0  0  0  0  # atno 13531 bound_to 8454
  114.2171  247.8816  317.1791 LP  0  0  0  0  0  0  0  0  0  0  0  0  # atno 13532 bound_to 8454
  113.0467  243.5076  317.1372 LP  0  0  0  0  0  0  0  0  0  0  0  0  # atno 13533 bound_to 8432
  112.4649  245.1011  317.4868 LP  0  0  0  0  0  0  0  0  0  0  0  0  # atno 13534 bound_to 8432
  119.3431  249.5917  331.5056 LP  0  0  0  0  0  0  0  0  0  0  0  0  # atno 13535 bound_to 3502
  118.6697  249.2839  329.9398 LP  0  0  0  0  0  0  0  0  0  0  0  0  # atno 13536 bound_to 3502
  119.7312  252.1694  328.9054 LP  0  0  0  0  0  0  0  0  0  0  0  0  # atno 13537 bound_to 3542
  111.7252  247.8854  318.9559 LP  0  0  0  0  0  0  0  0  0  0  0  0  # atno 13538 bound_to 8482
  115.5573  249.3198  315.1810 LP  0  0  0  0  0  0  0  0  0  0  0  0  # atno 13539 bound_to 8943
  109.3976  248.2517  318.2520 LP  0  0  0  0  0  0  0  0  0  0  0  0  # atno 13541 bound_to 8506
  108.6862  244.7004  318.7579 LP  0  0  0  0  0  0  0  0  0  0  0  0  # atno 13542 bound_to 5571
  110.3153  254.7120  322.4899 LP  0  0  0  0  0  0  0  0  0  0  0  0  # atno 13543 bound_to 12828
  110.0492  256.2118  321.6654 LP  0  0  0  0  0  0  0  0  0  0  0  0  # atno 13544 bound_to 12828

> <Gold.Score>
     Fitness  S(hb_ext) S(vdw_ext)  S(hb_int)    S(int)      intcor
     41.46       3.27      28.29       0.00      -0.71      -0.76

> <Gold.Goldscore.Fitness>
41.4610

> <Gold.Goldscore.Internal.Vdw>
-0.9864

> <Gold.Goldscore.Internal.Torsion>
-0.4812

> <Gold.Goldscore.External.Vdw>
28.2909

> <Gold.Goldscore.Internal.HBond>
0.0000

> <Gold.Goldscore.External.HBond>
3.2700

> <Gold.Goldscore.Internal.Correction>
-0.7585

> <Gold.Goldscore.Hbonds>
donor molecule, donor type, donor heavy atom, donor atom, acceptor molecule, acceptor atom, score
      P1  H  8451  8458       L1    11  0.89
      P1  H  9022  9036       L1    17  0.68
      L1  H    10    23       P1  8406  0.06

> <Gold.Goldscore.Internal.Vdw.Weighted>
-0.9864

> <Gold.Goldscore.Internal.Torsion.Weighted>
-0.4812

> <Gold.Goldscore.External.Vdw.Weighted>
38.9000

> <Gold.Goldscore.Internal.HBond.Weighted>
0.0000

> <Gold.Goldscore.External.HBond.Weighted>
3.2700

> <Gold.Goldscore.Internal.Correction.Weighted>
-0.7585

> <Gold.Rescore>
     Score     S(PLP)   S(hbond)     S(cho)   S(metal)  DE(clash)   DE(tors)     intcor
     31.80     -24.73       2.40       0.00       0.00       0.00       0.06       ----

> <Gold.PLP.Fitness>
31.7974

> <Gold.PLP.PLP>
-24.7252

> <Gold.PLP.part.hbond>
-4.0000

> <Gold.PLP.part.metal>
0.0000

> <Gold.PLP.part.buried>
14.2019

> <Gold.PLP.part.nonpolar>
-38.2422

> <Gold.PLP.part.repulsive>
2.2199

> <Gold.PLP.ligand.clash>
0.0000

> <Gold.PLP.ligand.torsion>
0.0645

> <Gold.PLP.Chemscore.Hbond>
2.4004

> <Gold.PLP.Chemscore.CHOScore>
0.0000

> <Gold.PLP.Chemscore.Metal>
0.0000

> <Gold.Chemscore.Hbonds>
donor molecule, donor type, donor heavy atom, donor atom, acceptor molecule, acceptor atom, score
      L1  H    10    23       P1  8406  0.61
      P1  H  8451  8458       L1    11  0.84
      P1  H  9022  9036       L1    17  0.13

> <Gold.PLP.Chemscore.Internal.Correction>
   9.000000E+99

