#       Name:                CT1002167954
#       Creating user name   hitesit
#       Creation time:       Sun Apr 16 02:29:32 2023


#       File generated by GOLD software.
#

@<TRIPOS>MOLECULE
CT1002167954|ligand_prepared|mol2|1|dock8
    29    30     1
SMALL
NO_CHARGES


@<TRIPOS>ATOM
      1 C1         279.9841 315.4225 -75.5142 C.3            1 RES1               0.0000
      2 C2         279.8405 315.3922 -77.0495 C.ar           1 RES1               0.0000
      3 C3         281.1412 316.3698 -75.2106 C.2            1 RES1               0.0000
      4 C4         278.6388 315.8890 -74.9690 C.2            1 RES1               0.0000
      5 C5         280.3009 314.0440 -74.8889 C.3            1 RES1               0.0000
      6 C6         280.7602 314.7022 -77.8337 C.ar           1 RES1               0.0000
      7 C7         278.7942 316.0461 -77.6947 C.ar           1 RES1               0.0000
      8 N8         280.8356 317.5978 -74.7023 N.am           1 RES1               0.0000
      9 O9         282.3013 316.0588 -75.4506 O.2            1 RES1               0.0000
     10 N10        278.5906 317.0988 -74.3274 N.am           1 RES1               0.0000
     11 O11        277.6168 315.2274 -75.1040 O.2            1 RES1               0.0000
     12 C12        280.1621 314.0109 -73.3751 C.3            1 RES1               0.0000
     13 C13        280.6366 314.6647 -79.2127 C.ar           1 RES1               0.0000
     14 C14        278.6726 316.0075 -79.0739 C.ar           1 RES1               0.0000
     15 C15        279.6219 317.9884 -74.1964 C.2            1 RES1               0.0000
     16 C16        279.5927 315.3168 -79.8337 C.ar           1 RES1               0.0000
     17 O17        279.4872 319.0813 -73.6535 O.2            1 RES1               0.0000
     18 H18        279.6250 313.2962 -75.3219 H              1 RES1               0.0000
     19 H19        281.3271 313.7627 -75.1556 H              1 RES1               0.0000
     20 H20        281.5896 314.1851 -77.3630 H              1 RES1               0.0000
     21 H21        278.0592 316.5965 -77.1173 H              1 RES1               0.0000
     22 H22        281.5782 318.2898 -74.6981 H              1 RES1               0.0000
     23 H23        277.7037 317.3605 -73.9086 H              1 RES1               0.0000
     24 H24        280.3956 313.0213 -72.9879 H              1 RES1               0.0000
     25 H25        280.8386 314.7250 -72.9100 H              1 RES1               0.0000
     26 H26        279.1466 314.2612 -73.0753 H              1 RES1               0.0000
     27 H27        281.3641 314.1209 -79.8062 H              1 RES1               0.0000
     28 H28        277.8498 316.5227 -79.5584 H              1 RES1               0.0000
     29 H29        279.4959 315.2870 -80.9139 H              1 RES1               0.0000
@<TRIPOS>BOND
    1    1    2 1     
    2    1    3 1     
    3    1    4 1     
    4    1    5 1     
    5    2    6 ar    
    6    2    7 ar    
    7    3    8 1     
    8    3    9 2     
    9    4   10 1     
   10    4   11 2     
   11    5   12 1     
   12    5   18 1     
   13    5   19 1     
   14    6   13 ar    
   15    6   20 1     
   16    7   14 ar    
   17    7   21 1     
   18    8   15 1     
   19    8   22 1     
   20   10   15 1     
   21   10   23 1     
   22   12   24 1     
   23   12   25 1     
   24   12   26 1     
   25   13   16 ar    
   26   13   27 1     
   27   14   16 ar    
   28   14   28 1     
   29   15   17 2     
   30   16   29 1     
@<TRIPOS>SUBSTRUCTURE
      1 RES1           1
@<TRIPOS>SET
DONOR_HYDROGENS      STATIC     ATOMS    <user>   **** ""
2 22 23
ATOM$RED        STATIC     ATOMS    COLORGROUP SYSTEM
2 22 23
@<TRIPOS>COMMENT
> <Gold.Version>
2022.3.0

> <Gold.Id.Protein>
unknown|7ts3_clean|pdb

> <Gold.Protein.RotatedTorsions>
[ 1460 1408 1409 1410 ] final  -97.23 input   75.91 | X-H torsion
[ 1470 1416 1415 1414 ] final  141.35 input   60.00 | X-H torsion
[ 1524 1493 1494 1495 ] final   20.26 input   90.66 | X-H torsion
[ 3989 3946 3947 3948 ] final  177.11 input  107.58 | X-H torsion
[ 6590 6548 6547 6545 ] final   95.51 input   60.02 | X-H torsion
[ 25689 25666 25667 25668 ] final   22.17 input   59.86 | X-H torsion
[ 1233 1187 1188 1189 ] final   78.12 input  121.09 | X-H torsion
[ 1309 1265 1266 1267 ] final  112.77 input  118.31 | X-H torsion
[ 1377 1331 1332 1333 ] final -169.60 input  114.28 | X-H torsion
[ 4211 4184 4183 4180 ] final  -68.84 input   59.99 | X-H torsion
[ 4071 4017 4018 4019 ] final -137.37 input  119.49 | X-H torsion
[ 4251 4223 4224 4225 ] final -178.57 input  117.97 | X-H torsion
[ 23683 23650 23651 23652 ] final -110.73 input   58.12 | X-H torsion
[ 23751 23739 23740 23741 ] final -149.30 input  -88.68 | X-H torsion
[ 4255 4228 4227 4224 ] final   31.56 input   59.96 | X-H torsion
[ 23779 23767 23768 23769 ] final   67.98 input  -24.14 | X-H torsion
[ 4400 4354 4353 4352 ] final -110.59 input   60.02 | X-H torsion
[ 27271 1190 1189 1188 ] final   -7.43 input   -0.00 | X-H torsion
[ 27274 1411 1410 1409 ] final   43.06 input   -0.00 | X-H torsion
[ 27277 3685 3684 3683 ] final    5.58 input    0.00 | X-H torsion
[ 27284 3949 3948 3947 ] final   -5.66 input   -0.00 | X-H torsion
[ 27289 23653 23652 23651 ] final -122.09 input   -0.00 | X-H torsion
[ 27292 25669 25668 25667 ] final   26.89 input    0.00 | X-H torsion
[ 27295 1133 1132 1131 ] final  -10.38 input    0.00 | X-H torsion
[ 27300 1334 1333 1332 ] final  -44.33 input   -0.00 | X-H torsion
[ 27306 6778 6777 6776 ] final   93.56 input    0.00 | X-H torsion
[ 27308 23601 23600 23599 ] final  -26.97 input   -0.00 | X-H torsion
[ 27312 4182 4181 4180 ] final  -96.34 input   -0.00 | X-H torsion
[ 27316 23770 23769 23768 ] final   21.95 input   -0.00 | X-H torsion

> <Gold.Protein.ActiveResidues>
 THR320  LEU321  HIS322  LEU323  LYS324  SER325  GLU365  PHE366  GLN369  TYR370 
 SER372  SER373  LYS375  TYR408  HIS412  ARG415  ASN416  TRP426  CYS673  ARG674 
 GLY675  GLY676  TYR703  LEU705  THR706  PRO707 

> <Gold.Protein.RotatedAtoms>
  278.6217  326.0050  -73.2238 H   0  0  0  0  0  0  0  0  0  0  0  0  # atno 1233 bound_to 1187
  276.9500  326.3497  -74.5532 H   0  0  0  0  0  0  0  0  0  0  0  0  # atno 1309 bound_to 1265
  276.7454  326.7093  -77.4033 H   0  0  0  0  0  0  0  0  0  0  0  0  # atno 1377 bound_to 1331
  276.4354  323.9134  -79.4513 H   0  0  0  0  0  0  0  0  0  0  0  0  # atno 1460 bound_to 1408
  281.1636  320.3530  -76.3690 H   0  0  0  0  0  0  0  0  0  0  0  0  # atno 1470 bound_to 1416
  281.8657  320.6672  -77.8365 H   0  0  0  0  0  0  0  0  0  0  0  0  # atno 1471 bound_to 1416
  280.4631  321.4397  -77.4067 H   0  0  0  0  0  0  0  0  0  0  0  0  # atno 1472 bound_to 1416
  274.0895  322.9396  -79.6942 H   0  0  0  0  0  0  0  0  0  0  0  0  # atno 1524 bound_to 1493
  278.7938  311.6104  -79.7647 H   0  0  0  0  0  0  0  0  0  0  0  0  # atno 3989 bound_to 3946
  278.1491  310.3143  -76.3976 H   0  0  0  0  0  0  0  0  0  0  0  0  # atno 4071 bound_to 4017
  283.7927  313.3618  -75.2734 H   0  0  0  0  0  0  0  0  0  0  0  0  # atno 4211 bound_to 4184
  282.0780  311.2931  -74.6527 H   0  0  0  0  0  0  0  0  0  0  0  0  # atno 4251 bound_to 4223
  281.6304  308.5736  -71.9419 H   0  0  0  0  0  0  0  0  0  0  0  0  # atno 4255 bound_to 4228
  286.5206  313.6683  -71.1499 H   0  0  0  0  0  0  0  0  0  0  0  0  # atno 4400 bound_to 4354
  286.5546  312.0362  -70.8640 H   0  0  0  0  0  0  0  0  0  0  0  0  # atno 4401 bound_to 4354
  287.3908  313.0683  -69.8730 H   0  0  0  0  0  0  0  0  0  0  0  0  # atno 4402 bound_to 4354
  278.0002  311.4796  -74.0264 H   0  0  0  0  0  0  0  0  0  0  0  0  # atno 6590 bound_to 6548
  283.1307  320.6278  -67.8936 H   0  0  0  0  0  0  0  0  0  0  0  0  # atno 23683 bound_to 23650
  282.4365  322.8945  -69.3392 H   0  0  0  0  0  0  0  0  0  0  0  0  # atno 23751 bound_to 23739
  279.1729  323.7175  -70.1571 H   0  0  0  0  0  0  0  0  0  0  0  0  # atno 23779 bound_to 23767
  271.5141  317.1356  -76.0119 H   0  0  0  0  0  0  0  0  0  0  0  0  # atno 25689 bound_to 25666
  277.1165  322.6344  -75.9044 LP  0  0  0  0  0  0  0  0  0  0  0  0  # atno 27271 bound_to 1190
  275.7691  323.6240  -76.3572 LP  0  0  0  0  0  0  0  0  0  0  0  0  # atno 27272 bound_to 1190
  276.4829  323.4723  -77.7600 LP  0  0  0  0  0  0  0  0  0  0  0  0  # atno 27273 bound_to 1408
  274.7184  319.6711  -78.3711 LP  0  0  0  0  0  0  0  0  0  0  0  0  # atno 27274 bound_to 1411
  273.4039  320.0487  -79.4338 LP  0  0  0  0  0  0  0  0  0  0  0  0  # atno 27275 bound_to 1411
  274.2851  322.3150  -78.0792 LP  0  0  0  0  0  0  0  0  0  0  0  0  # atno 27276 bound_to 1493
  277.2137  312.4917  -80.8340 LP  0  0  0  0  0  0  0  0  0  0  0  0  # atno 27277 bound_to 3685
  276.6598  311.3465  -79.6584 LP  0  0  0  0  0  0  0  0  0  0  0  0  # atno 27278 bound_to 3685
  279.0848  310.0724  -78.9986 LP  0  0  0  0  0  0  0  0  0  0  0  0  # atno 27283 bound_to 3946
  280.6802  311.7985  -75.6070 LP  0  0  0  0  0  0  0  0  0  0  0  0  # atno 27284 bound_to 3949
  280.2196  310.3218  -74.8278 LP  0  0  0  0  0  0  0  0  0  0  0  0  # atno 27285 bound_to 3949
  277.8433  312.2410  -72.5963 LP  0  0  0  0  0  0  0  0  0  0  0  0  # atno 27286 bound_to 6548
  276.5740  312.1505  -73.6197 LP  0  0  0  0  0  0  0  0  0  0  0  0  # atno 27287 bound_to 6548
  281.3914  321.9698  -72.0679 LP  0  0  0  0  0  0  0  0  0  0  0  0  # atno 27289 bound_to 23653
  279.9706  321.2035  -71.4400 LP  0  0  0  0  0  0  0  0  0  0  0  0  # atno 27290 bound_to 23653
  269.8763  317.7236  -75.8845 LP  0  0  0  0  0  0  0  0  0  0  0  0  # atno 27291 bound_to 25666
  272.5906  315.8419  -75.8962 LP  0  0  0  0  0  0  0  0  0  0  0  0  # atno 27292 bound_to 25669
  272.9654  314.1511  -75.9196 LP  0  0  0  0  0  0  0  0  0  0  0  0  # atno 27293 bound_to 25669
  279.6739  326.4296  -76.7661 LP  0  0  0  0  0  0  0  0  0  0  0  0  # atno 27295 bound_to 1133
  278.8767  324.9483  -76.3535 LP  0  0  0  0  0  0  0  0  0  0  0  0  # atno 27296 bound_to 1133
  279.8393  325.4613  -74.3563 LP  0  0  0  0  0  0  0  0  0  0  0  0  # atno 27297 bound_to 1187
  276.8085  324.6676  -75.0080 LP  0  0  0  0  0  0  0  0  0  0  0  0  # atno 27298 bound_to 1265
  276.4682  324.9987  -77.1789 LP  0  0  0  0  0  0  0  0  0  0  0  0  # atno 27299 bound_to 1331
  276.0750  324.5185  -81.4701 LP  0  0  0  0  0  0  0  0  0  0  0  0  # atno 27300 bound_to 1334
  276.9511  323.0469  -81.2118 LP  0  0  0  0  0  0  0  0  0  0  0  0  # atno 27301 bound_to 1334
  283.7917  314.1284  -76.7089 LP  0  0  0  0  0  0  0  0  0  0  0  0  # atno 27302 bound_to 4184
  284.9942  313.0882  -76.3364 LP  0  0  0  0  0  0  0  0  0  0  0  0  # atno 27303 bound_to 4184
  279.1585  309.4744  -77.5448 LP  0  0  0  0  0  0  0  0  0  0  0  0  # atno 27304 bound_to 4017
  283.2186  309.9760  -74.5313 LP  0  0  0  0  0  0  0  0  0  0  0  0  # atno 27305 bound_to 4223
  271.1751  315.0940  -70.5342 LP  0  0  0  0  0  0  0  0  0  0  0  0  # atno 27306 bound_to 6778
  270.8383  315.1033  -68.8352 LP  0  0  0  0  0  0  0  0  0  0  0  0  # atno 27307 bound_to 6778
  284.8419  319.4223  -68.4342 LP  0  0  0  0  0  0  0  0  0  0  0  0  # atno 27308 bound_to 23601
  283.2978  319.0903  -69.1454 LP  0  0  0  0  0  0  0  0  0  0  0  0  # atno 27309 bound_to 23601
  281.8159  321.6140  -67.2967 LP  0  0  0  0  0  0  0  0  0  0  0  0  # atno 27310 bound_to 23650
  280.7372  322.5103  -69.4583 LP  0  0  0  0  0  0  0  0  0  0  0  0  # atno 27311 bound_to 23739
  285.3738  310.3527  -73.7582 LP  0  0  0  0  0  0  0  0  0  0  0  0  # atno 27312 bound_to 4182
  285.1358  312.0587  -73.9390 LP  0  0  0  0  0  0  0  0  0  0  0  0  # atno 27313 bound_to 4182
  280.4730  308.8023  -73.0628 LP  0  0  0  0  0  0  0  0  0  0  0  0  # atno 27314 bound_to 4228
  280.1057  308.8980  -71.4745 LP  0  0  0  0  0  0  0  0  0  0  0  0  # atno 27315 bound_to 4228
  278.1301  322.7892  -68.0980 LP  0  0  0  0  0  0  0  0  0  0  0  0  # atno 27316 bound_to 23770
  276.4440  322.3930  -68.0792 LP  0  0  0  0  0  0  0  0  0  0  0  0  # atno 27317 bound_to 23770

> <Gold.Score>
     Fitness  S(hb_ext) S(vdw_ext)  S(hb_int)    S(int)      intcor
     28.80       0.00      21.97       0.00      -1.41      -0.76

> <Gold.Goldscore.Fitness>
28.7997

> <Gold.Goldscore.Internal.Vdw>
-1.5863

> <Gold.Goldscore.Internal.Torsion>
-0.5812

> <Gold.Goldscore.External.Vdw>
21.9715

> <Gold.Goldscore.Internal.HBond>
0.0000

> <Gold.Goldscore.External.HBond>
0.0000

> <Gold.Goldscore.Internal.Correction>
-0.7564

> <Gold.Goldscore.Internal.Vdw.Weighted>
-1.5863

> <Gold.Goldscore.Internal.Torsion.Weighted>
-0.5812

> <Gold.Goldscore.External.Vdw.Weighted>
30.2108

> <Gold.Goldscore.Internal.HBond.Weighted>
0.0000

> <Gold.Goldscore.External.HBond.Weighted>
0.0000

> <Gold.Goldscore.Internal.Correction.Weighted>
-0.7564

> <Gold.Rescore>
     Score     S(PLP)   S(hbond)     S(cho)   S(metal)  DE(clash)   DE(tors)     intcor
     31.06     -32.78       0.00       0.00       0.00       1.38       0.17       ----

> <Gold.PLP.Fitness>
31.0647

> <Gold.PLP.PLP>
-32.7807

> <Gold.PLP.part.hbond>
-1.0000

> <Gold.PLP.part.metal>
0.0000

> <Gold.PLP.part.buried>
-5.4110

> <Gold.PLP.part.nonpolar>
-26.6890

> <Gold.PLP.part.repulsive>
0.2758

> <Gold.PLP.ligand.clash>
1.3750

> <Gold.PLP.ligand.torsion>
0.1705

> <Gold.PLP.Chemscore.Hbond>
0.0000

> <Gold.PLP.Chemscore.CHOScore>
0.0000

> <Gold.PLP.Chemscore.Metal>
0.0000

> <Gold.PLP.Chemscore.Internal.Correction>
   9.000000E+99

