#       Name:                CT1002167954
#       Creating user name   hitesit
#       Creation time:       Sun Apr 16 02:29:30 2023


#       File generated by GOLD software.
#

@<TRIPOS>MOLECULE
CT1002167954|ligand_prepared|mol2|1|dock4
    29    30     1
SMALL
NO_CHARGES


@<TRIPOS>ATOM
      1 C1         279.5179 316.0656 -74.0835 C.3            1 RES1               0.0000
      2 C2         278.3730 316.2904 -75.0922 C.ar           1 RES1               0.0000
      3 C3         278.8751 316.0625 -72.6996 C.2            1 RES1               0.0000
      4 C4         280.1721 314.7433 -74.4685 C.2            1 RES1               0.0000
      5 C5         280.6054 317.1645 -74.1176 C.3            1 RES1               0.0000
      6 C6         278.6492 316.6244 -76.4147 C.ar           1 RES1               0.0000
      7 C7         277.0382 316.1649 -74.7165 C.ar           1 RES1               0.0000
      8 N8         278.7536 314.8631 -72.0620 N.am           1 RES1               0.0000
      9 O9         278.4455 317.0913 -72.1923 O.2            1 RES1               0.0000
     10 N10        280.0765 313.6988 -73.5867 N.am           1 RES1               0.0000
     11 O11        280.7554 314.5916 -75.5349 O.2            1 RES1               0.0000
     12 C12        280.0475 318.5790 -74.1322 C.3            1 RES1               0.0000
     13 C13        277.6281 316.8230 -77.3292 C.ar           1 RES1               0.0000
     14 C14        276.0186 316.3641 -75.6326 C.ar           1 RES1               0.0000
     15 C15        279.3705 313.6897 -72.4146 C.2            1 RES1               0.0000
     16 C16        276.3123 316.6925 -76.9390 C.ar           1 RES1               0.0000
     17 O17        279.2865 312.6940 -71.7013 O.2            1 RES1               0.0000
     18 H18        281.2518 317.0490 -73.2388 H              1 RES1               0.0000
     19 H19        281.2253 317.0202 -75.0110 H              1 RES1               0.0000
     20 H20        279.6785 316.7339 -76.7395 H              1 RES1               0.0000
     21 H21        276.7835 315.9083 -73.6938 H              1 RES1               0.0000
     22 H22        278.1481 314.8361 -71.2479 H              1 RES1               0.0000
     23 H23        280.5780 312.8495 -73.8261 H              1 RES1               0.0000
     24 H24        280.8523 319.3108 -74.1561 H              1 RES1               0.0000
     25 H25        279.4197 318.7370 -75.0067 H              1 RES1               0.0000
     26 H26        279.4460 318.7655 -73.2450 H              1 RES1               0.0000
     27 H27        277.8646 317.0826 -78.3558 H              1 RES1               0.0000
     28 H28        274.9845 316.2610 -75.3210 H              1 RES1               0.0000
     29 H29        275.5127 316.8477 -77.6557 H              1 RES1               0.0000
@<TRIPOS>BOND
    1    1    2 1     
    2    1    3 1     
    3    1    4 1     
    4    1    5 1     
    5    2    6 ar    
    6    2    7 ar    
    7    3    8 1     
    8    3    9 2     
    9    4   10 1     
   10    4   11 2     
   11    5   12 1     
   12    5   18 1     
   13    5   19 1     
   14    6   13 ar    
   15    6   20 1     
   16    7   14 ar    
   17    7   21 1     
   18    8   15 1     
   19    8   22 1     
   20   10   15 1     
   21   10   23 1     
   22   12   24 1     
   23   12   25 1     
   24   12   26 1     
   25   13   16 ar    
   26   13   27 1     
   27   14   16 ar    
   28   14   28 1     
   29   15   17 2     
   30   16   29 1     
@<TRIPOS>SUBSTRUCTURE
      1 RES1           1
@<TRIPOS>SET
DONOR_HYDROGENS      STATIC     ATOMS    <user>   **** ""
2 22 23
ATOM$RED        STATIC     ATOMS    COLORGROUP SYSTEM
2 22 23
@<TRIPOS>COMMENT
> <Gold.Version>
2022.3.0

> <Gold.Id.Protein>
unknown|7ts3_clean|pdb

> <Gold.Protein.RotatedTorsions>
[ 1460 1408 1409 1410 ] final  145.18 input   75.91 | X-H torsion
[ 1470 1416 1415 1414 ] final   -7.28 input   60.00 | X-H torsion
[ 1524 1493 1494 1495 ] final  164.73 input   90.66 | X-H torsion
[ 3989 3946 3947 3948 ] final  142.55 input  107.58 | X-H torsion
[ 6590 6548 6547 6545 ] final  128.49 input   60.02 | X-H torsion
[ 25689 25666 25667 25668 ] final  159.33 input   59.86 | X-H torsion
[ 1233 1187 1188 1189 ] final   27.74 input  121.09 | X-H torsion
[ 1309 1265 1266 1267 ] final  107.91 input  118.31 | X-H torsion
[ 1377 1331 1332 1333 ] final -153.06 input  114.28 | X-H torsion
[ 4211 4184 4183 4180 ] final  160.23 input   59.99 | X-H torsion
[ 4071 4017 4018 4019 ] final  102.49 input  119.49 | X-H torsion
[ 4251 4223 4224 4225 ] final   15.32 input  117.97 | X-H torsion
[ 23683 23650 23651 23652 ] final   79.28 input   58.12 | X-H torsion
[ 23751 23739 23740 23741 ] final -102.81 input  -88.68 | X-H torsion
[ 4255 4228 4227 4224 ] final   11.08 input   59.96 | X-H torsion
[ 23779 23767 23768 23769 ] final   -8.74 input  -24.14 | X-H torsion
[ 4400 4354 4353 4352 ] final  -62.13 input   60.02 | X-H torsion
[ 27271 1190 1189 1188 ] final   74.54 input   -0.00 | X-H torsion
[ 27274 1411 1410 1409 ] final  147.47 input   -0.00 | X-H torsion
[ 27277 3685 3684 3683 ] final  144.69 input    0.00 | X-H torsion
[ 27284 3949 3948 3947 ] final  -30.06 input   -0.00 | X-H torsion
[ 27289 23653 23652 23651 ] final  -41.74 input   -0.00 | X-H torsion
[ 27292 25669 25668 25667 ] final -128.63 input    0.00 | X-H torsion
[ 27295 1133 1132 1131 ] final  -57.20 input    0.00 | X-H torsion
[ 27300 1334 1333 1332 ] final  136.93 input   -0.00 | X-H torsion
[ 27306 6778 6777 6776 ] final  156.33 input    0.00 | X-H torsion
[ 27308 23601 23600 23599 ] final   14.56 input   -0.00 | X-H torsion
[ 27312 4182 4181 4180 ] final  -10.36 input   -0.00 | X-H torsion
[ 27316 23770 23769 23768 ] final   92.15 input   -0.00 | X-H torsion

> <Gold.Protein.ActiveResidues>
 THR320  LEU321  HIS322  LEU323  LYS324  SER325  GLU365  PHE366  GLN369  TYR370 
 SER372  SER373  LYS375  TYR408  HIS412  ARG415  ASN416  TRP426  CYS673  ARG674 
 GLY675  GLY676  TYR703  LEU705  THR706  PRO707 

> <Gold.Protein.RotatedAtoms>
  278.5165  326.2246  -73.9394 H   0  0  0  0  0  0  0  0  0  0  0  0  # atno 1233 bound_to 1187
  276.9917  326.3596  -74.6149 H   0  0  0  0  0  0  0  0  0  0  0  0  # atno 1309 bound_to 1265
  276.4954  326.7064  -77.4495 H   0  0  0  0  0  0  0  0  0  0  0  0  # atno 1377 bound_to 1331
  277.2362  323.4254  -78.2614 H   0  0  0  0  0  0  0  0  0  0  0  0  # atno 1460 bound_to 1408
  280.7437  321.4504  -77.7879 H   0  0  0  0  0  0  0  0  0  0  0  0  # atno 1470 bound_to 1416
  280.7755  320.6236  -76.3525 H   0  0  0  0  0  0  0  0  0  0  0  0  # atno 1471 bound_to 1416
  281.9744  320.3855  -77.4725 H   0  0  0  0  0  0  0  0  0  0  0  0  # atno 1472 bound_to 1416
  274.1941  322.8372  -78.0349 H   0  0  0  0  0  0  0  0  0  0  0  0  # atno 1524 bound_to 1493
  278.3330  311.4233  -79.6140 H   0  0  0  0  0  0  0  0  0  0  0  0  # atno 3989 bound_to 3946
  278.3068  309.2989  -77.5152 H   0  0  0  0  0  0  0  0  0  0  0  0  # atno 4071 bound_to 4017
  283.9311  314.0817  -76.8112 H   0  0  0  0  0  0  0  0  0  0  0  0  # atno 4211 bound_to 4184
  283.0532  309.8437  -74.5370 H   0  0  0  0  0  0  0  0  0  0  0  0  # atno 4251 bound_to 4223
  281.6477  308.5662  -72.2743 H   0  0  0  0  0  0  0  0  0  0  0  0  # atno 4255 bound_to 4228
  286.2607  312.9716  -71.4026 H   0  0  0  0  0  0  0  0  0  0  0  0  # atno 4400 bound_to 4354
  287.0205  312.0761  -70.2331 H   0  0  0  0  0  0  0  0  0  0  0  0  # atno 4401 bound_to 4354
  287.1849  313.7251  -70.2512 H   0  0  0  0  0  0  0  0  0  0  0  0  # atno 4402 bound_to 4354
  277.5189  311.5279  -74.2474 H   0  0  0  0  0  0  0  0  0  0  0  0  # atno 6590 bound_to 6548
  281.7407  321.4945  -67.2327 H   0  0  0  0  0  0  0  0  0  0  0  0  # atno 23683 bound_to 23650
  282.0515  323.1956  -68.8437 H   0  0  0  0  0  0  0  0  0  0  0  0  # atno 23751 bound_to 23739
  279.3041  323.5373  -69.0852 H   0  0  0  0  0  0  0  0  0  0  0  0  # atno 23779 bound_to 23767
  270.0521  317.6873  -76.4961 H   0  0  0  0  0  0  0  0  0  0  0  0  # atno 25689 bound_to 25666
  276.0755  322.7248  -75.4588 LP  0  0  0  0  0  0  0  0  0  0  0  0  # atno 27271 bound_to 1190
  276.8101  323.5336  -76.8028 LP  0  0  0  0  0  0  0  0  0  0  0  0  # atno 27272 bound_to 1190
  275.7027  323.9477  -78.9192 LP  0  0  0  0  0  0  0  0  0  0  0  0  # atno 27273 bound_to 1408
  273.4093  320.0704  -78.3726 LP  0  0  0  0  0  0  0  0  0  0  0  0  # atno 27274 bound_to 1411
  274.7130  319.6493  -79.4323 LP  0  0  0  0  0  0  0  0  0  0  0  0  # atno 27275 bound_to 1411
  274.1813  322.4166  -79.7260 LP  0  0  0  0  0  0  0  0  0  0  0  0  # atno 27276 bound_to 1493
  276.4156  311.8903  -79.5552 LP  0  0  0  0  0  0  0  0  0  0  0  0  # atno 27277 bound_to 3685
  277.4579  311.9479  -80.9373 LP  0  0  0  0  0  0  0  0  0  0  0  0  # atno 27278 bound_to 3685
  279.5423  310.2581  -79.1481 LP  0  0  0  0  0  0  0  0  0  0  0  0  # atno 27283 bound_to 3946
  280.9238  311.5608  -75.7416 LP  0  0  0  0  0  0  0  0  0  0  0  0  # atno 27284 bound_to 3949
  279.9759  310.5595  -74.6932 LP  0  0  0  0  0  0  0  0  0  0  0  0  # atno 27285 bound_to 3949
  278.2333  311.9841  -72.8578 LP  0  0  0  0  0  0  0  0  0  0  0  0  # atno 27286 bound_to 6548
  276.6684  312.3589  -73.1358 LP  0  0  0  0  0  0  0  0  0  0  0  0  # atno 27287 bound_to 6548
  281.2037  320.8986  -71.8115 LP  0  0  0  0  0  0  0  0  0  0  0  0  # atno 27289 bound_to 23653
  280.1583  322.2748  -71.6964 LP  0  0  0  0  0  0  0  0  0  0  0  0  # atno 27290 bound_to 23653
  271.3175  317.1798  -75.4072 LP  0  0  0  0  0  0  0  0  0  0  0  0  # atno 27291 bound_to 25666
  272.8810  314.2170  -76.2708 LP  0  0  0  0  0  0  0  0  0  0  0  0  # atno 27292 bound_to 25669
  272.6750  315.7760  -75.5450 LP  0  0  0  0  0  0  0  0  0  0  0  0  # atno 27293 bound_to 25669
  278.9969  326.5022  -76.6656 LP  0  0  0  0  0  0  0  0  0  0  0  0  # atno 27295 bound_to 1133
  279.5537  324.8757  -76.4540 LP  0  0  0  0  0  0  0  0  0  0  0  0  # atno 27296 bound_to 1133
  279.9413  325.2482  -73.6620 LP  0  0  0  0  0  0  0  0  0  0  0  0  # atno 27297 bound_to 1187
  276.7679  324.6580  -74.9478 LP  0  0  0  0  0  0  0  0  0  0  0  0  # atno 27298 bound_to 1265
  276.7125  325.0015  -77.1338 LP  0  0  0  0  0  0  0  0  0  0  0  0  # atno 27299 bound_to 1331
  276.9346  323.0378  -81.2090 LP  0  0  0  0  0  0  0  0  0  0  0  0  # atno 27300 bound_to 1334
  276.0916  324.5277  -81.4729 LP  0  0  0  0  0  0  0  0  0  0  0  0  # atno 27301 bound_to 1334
  284.9796  313.0124  -76.1743 LP  0  0  0  0  0  0  0  0  0  0  0  0  # atno 27302 bound_to 4184
  283.6669  313.4794  -75.3226 LP  0  0  0  0  0  0  0  0  0  0  0  0  # atno 27303 bound_to 4184
  279.0023  310.4803  -76.4377 LP  0  0  0  0  0  0  0  0  0  0  0  0  # atno 27304 bound_to 4017
  282.2623  311.3972  -74.6448 LP  0  0  0  0  0  0  0  0  0  0  0  0  # atno 27305 bound_to 4223
  270.3304  315.0403  -70.2224 LP  0  0  0  0  0  0  0  0  0  0  0  0  # atno 27306 bound_to 6778
  271.6831  315.1570  -69.1470 LP  0  0  0  0  0  0  0  0  0  0  0  0  # atno 27307 bound_to 6778
  284.5652  318.9560  -68.1460 LP  0  0  0  0  0  0  0  0  0  0  0  0  # atno 27308 bound_to 23601
  283.5745  319.5566  -69.4336 LP  0  0  0  0  0  0  0  0  0  0  0  0  # atno 27309 bound_to 23601
  283.1674  320.7714  -67.9393 LP  0  0  0  0  0  0  0  0  0  0  0  0  # atno 27310 bound_to 23650
  281.1147  322.2152  -69.9442 LP  0  0  0  0  0  0  0  0  0  0  0  0  # atno 27311 bound_to 23739
  285.7030  311.1284  -74.5856 LP  0  0  0  0  0  0  0  0  0  0  0  0  # atno 27312 bound_to 4182
  284.8066  311.2830  -73.1116 LP  0  0  0  0  0  0  0  0  0  0  0  0  # atno 27313 bound_to 4182
  280.1805  308.8656  -72.9115 LP  0  0  0  0  0  0  0  0  0  0  0  0  # atno 27314 bound_to 4228
  280.3807  308.8422  -71.2910 LP  0  0  0  0  0  0  0  0  0  0  0  0  # atno 27315 bound_to 4228
  277.5341  322.8591  -67.3030 LP  0  0  0  0  0  0  0  0  0  0  0  0  # atno 27316 bound_to 23770
  277.0400  322.3231  -68.8742 LP  0  0  0  0  0  0  0  0  0  0  0  0  # atno 27317 bound_to 23770

> <Gold.Score>
     Fitness  S(hb_ext) S(vdw_ext)  S(hb_int)    S(int)      intcor
     35.60       6.72      23.41       0.00      -3.31      -0.78

> <Gold.Goldscore.Fitness>
35.5977

> <Gold.Goldscore.Internal.Vdw>
-3.4265

> <Gold.Goldscore.Internal.Torsion>
-0.6594

> <Gold.Goldscore.External.Vdw>
23.4117

> <Gold.Goldscore.Internal.HBond>
0.0000

> <Gold.Goldscore.External.HBond>
6.7157

> <Gold.Goldscore.Internal.Correction>
-0.7769

> <Gold.Goldscore.Hbonds>
donor molecule, donor type, donor heavy atom, donor atom, acceptor molecule, acceptor atom, score
      P1  H 23657 23691       L1     9  1.00
      L1  H    10    23       P1  4223  0.12

> <Gold.Goldscore.Internal.Vdw.Weighted>
-3.4265

> <Gold.Goldscore.Internal.Torsion.Weighted>
-0.6594

> <Gold.Goldscore.External.Vdw.Weighted>
32.1910

> <Gold.Goldscore.Internal.HBond.Weighted>
0.0000

> <Gold.Goldscore.External.HBond.Weighted>
6.7157

> <Gold.Goldscore.Internal.Correction.Weighted>
-0.7769

> <Gold.Rescore>
     Score     S(PLP)   S(hbond)     S(cho)   S(metal)  DE(clash)   DE(tors)     intcor
     32.98     -30.56       1.30       0.00       0.00       1.34       0.07       ----

> <Gold.PLP.Fitness>
32.9773

> <Gold.PLP.PLP>
-30.5605

> <Gold.PLP.part.hbond>
-2.4730

> <Gold.PLP.part.metal>
0.0000

> <Gold.PLP.part.buried>
-2.7170

> <Gold.PLP.part.nonpolar>
-27.8920

> <Gold.PLP.part.repulsive>
0.2737

> <Gold.PLP.ligand.clash>
1.3367

> <Gold.PLP.ligand.torsion>
0.0679

> <Gold.PLP.Chemscore.Hbond>
1.2964

> <Gold.PLP.Chemscore.CHOScore>
0.0000

> <Gold.PLP.Chemscore.Metal>
0.0000

> <Gold.Chemscore.Hbonds>
donor molecule, donor type, donor heavy atom, donor atom, acceptor molecule, acceptor atom, score
      P1  H 23657 23691       L1     9  0.67

> <Gold.PLP.Chemscore.Internal.Correction>
   9.000000E+99

