#       Name:                CT1002167954
#       Creating user name   hitesit
#       Creation time:       Sun Apr 16 02:29:31 2023


#       File generated by GOLD software.
#

@<TRIPOS>MOLECULE
CT1002167954|ligand_prepared|mol2|1|dock5
    29    30     1
SMALL
NO_CHARGES


@<TRIPOS>ATOM
      1 C1         279.6956 315.3037 -74.7463 C.3            1 RES1               0.0000
      2 C2         279.4376 315.4134 -76.2630 C.ar           1 RES1               0.0000
      3 C3         280.1296 313.8637 -74.4886 C.2            1 RES1               0.0000
      4 C4         280.7620 316.3430 -74.4187 C.2            1 RES1               0.0000
      5 C5         278.4521 315.6048 -73.8777 C.3            1 RES1               0.0000
      6 C6         280.3521 314.8976 -77.1764 C.ar           1 RES1               0.0000
      7 C7         278.2906 316.0242 -76.7628 C.ar           1 RES1               0.0000
      8 N8         281.4475 313.6397 -74.2188 N.am           1 RES1               0.0000
      9 O9         279.3350 312.9343 -74.5601 O.2            1 RES1               0.0000
     10 N10        281.9842 315.8957 -73.9898 N.am           1 RES1               0.0000
     11 O11        280.5603 317.5446 -74.5439 O.2            1 RES1               0.0000
     12 C12        278.6491 315.3048 -72.4001 C.3            1 RES1               0.0000
     13 C13        280.1267 314.9865 -78.5401 C.ar           1 RES1               0.0000
     14 C14        278.0672 316.1122 -78.1269 C.ar           1 RES1               0.0000
     15 C15        282.3852 314.5903 -73.9044 C.2            1 RES1               0.0000
     16 C16        278.9841 315.5933 -79.0163 C.ar           1 RES1               0.0000
     17 O17        283.5193 314.2683 -73.5620 O.2            1 RES1               0.0000
     18 H18        278.1903 316.6641 -73.9911 H              1 RES1               0.0000
     19 H19        277.6091 315.0094 -74.2495 H              1 RES1               0.0000
     20 H20        281.2582 314.4187 -76.8205 H              1 RES1               0.0000
     21 H21        277.5560 316.4403 -76.0818 H              1 RES1               0.0000
     22 H22        281.7653 312.6764 -74.2542 H              1 RES1               0.0000
     23 H23        282.6573 316.6012 -73.7079 H              1 RES1               0.0000
     24 H24        277.7471 315.5336 -71.8364 H              1 RES1               0.0000
     25 H25        278.8862 314.2538 -72.2481 H              1 RES1               0.0000
     26 H26        279.4640 315.8986 -71.9912 H              1 RES1               0.0000
     27 H27        280.8521 314.5778 -79.2359 H              1 RES1               0.0000
     28 H28        277.1668 316.5912 -78.4972 H              1 RES1               0.0000
     29 H29        278.8076 315.6625 -80.0846 H              1 RES1               0.0000
@<TRIPOS>BOND
    1    1    2 1     
    2    1    3 1     
    3    1    4 1     
    4    1    5 1     
    5    2    6 ar    
    6    2    7 ar    
    7    3    8 1     
    8    3    9 2     
    9    4   10 1     
   10    4   11 2     
   11    5   12 1     
   12    5   18 1     
   13    5   19 1     
   14    6   13 ar    
   15    6   20 1     
   16    7   14 ar    
   17    7   21 1     
   18    8   15 1     
   19    8   22 1     
   20   10   15 1     
   21   10   23 1     
   22   12   24 1     
   23   12   25 1     
   24   12   26 1     
   25   13   16 ar    
   26   13   27 1     
   27   14   16 ar    
   28   14   28 1     
   29   15   17 2     
   30   16   29 1     
@<TRIPOS>SUBSTRUCTURE
      1 RES1           1
@<TRIPOS>SET
DONOR_HYDROGENS      STATIC     ATOMS    <user>   **** ""
2 22 23
ATOM$RED        STATIC     ATOMS    COLORGROUP SYSTEM
2 22 23
@<TRIPOS>COMMENT
> <Gold.Version>
2022.3.0

> <Gold.Id.Protein>
unknown|7ts3_clean|pdb

> <Gold.Protein.RotatedTorsions>
[ 1460 1408 1409 1410 ] final  -12.68 input   75.91 | X-H torsion
[ 1470 1416 1415 1414 ] final    1.81 input   60.00 | X-H torsion
[ 1524 1493 1494 1495 ] final   23.24 input   90.66 | X-H torsion
[ 3989 3946 3947 3948 ] final   36.08 input  107.58 | X-H torsion
[ 6590 6548 6547 6545 ] final  -33.73 input   60.02 | X-H torsion
[ 25689 25666 25667 25668 ] final   98.54 input   59.86 | X-H torsion
[ 1233 1187 1188 1189 ] final  -95.04 input  121.09 | X-H torsion
[ 1309 1265 1266 1267 ] final -114.24 input  118.31 | X-H torsion
[ 1377 1331 1332 1333 ] final   69.41 input  114.28 | X-H torsion
[ 4211 4184 4183 4180 ] final -175.50 input   59.99 | X-H torsion
[ 4071 4017 4018 4019 ] final  150.77 input  119.49 | X-H torsion
[ 4251 4223 4224 4225 ] final    0.54 input  117.97 | X-H torsion
[ 23683 23650 23651 23652 ] final -174.77 input   58.12 | X-H torsion
[ 23751 23739 23740 23741 ] final   87.41 input  -88.68 | X-H torsion
[ 4255 4228 4227 4224 ] final  140.46 input   59.96 | X-H torsion
[ 23779 23767 23768 23769 ] final  139.25 input  -24.14 | X-H torsion
[ 4400 4354 4353 4352 ] final  -22.91 input   60.02 | X-H torsion
[ 27271 1190 1189 1188 ] final  160.45 input   -0.00 | X-H torsion
[ 27274 1411 1410 1409 ] final  -18.09 input   -0.00 | X-H torsion
[ 27277 3685 3684 3683 ] final  116.98 input    0.00 | X-H torsion
[ 27284 3949 3948 3947 ] final  164.79 input   -0.00 | X-H torsion
[ 27289 23653 23652 23651 ] final   28.37 input   -0.00 | X-H torsion
[ 27292 25669 25668 25667 ] final -154.49 input    0.00 | X-H torsion
[ 27295 1133 1132 1131 ] final -171.20 input    0.00 | X-H torsion
[ 27300 1334 1333 1332 ] final  -16.54 input   -0.00 | X-H torsion
[ 27306 6778 6777 6776 ] final    8.48 input    0.00 | X-H torsion
[ 27308 23601 23600 23599 ] final -116.68 input   -0.00 | X-H torsion
[ 27312 4182 4181 4180 ] final  -64.52 input   -0.00 | X-H torsion
[ 27316 23770 23769 23768 ] final -142.72 input   -0.00 | X-H torsion

> <Gold.Protein.ActiveResidues>
 THR320  LEU321  HIS322  LEU323  LYS324  SER325  GLU365  PHE366  GLN369  TYR370 
 SER372  SER373  LYS375  TYR408  HIS412  ARG415  ASN416  TRP426  CYS673  ARG674 
 GLY675  GLY676  TYR703  LEU705  THR706  PRO707 

> <Gold.Protein.RotatedAtoms>
  279.7936  325.4909  -74.4506 H   0  0  0  0  0  0  0  0  0  0  0  0  # atno 1233 bound_to 1187
  276.4613  324.8069  -74.4192 H   0  0  0  0  0  0  0  0  0  0  0  0  # atno 1309 bound_to 1265
  277.2691  325.2987  -77.0826 H   0  0  0  0  0  0  0  0  0  0  0  0  # atno 1377 bound_to 1331
  275.5946  323.8807  -78.6076 H   0  0  0  0  0  0  0  0  0  0  0  0  # atno 1460 bound_to 1408
  280.6397  321.4642  -77.6784 H   0  0  0  0  0  0  0  0  0  0  0  0  # atno 1470 bound_to 1416
  280.8926  320.5289  -76.3343 H   0  0  0  0  0  0  0  0  0  0  0  0  # atno 1471 bound_to 1416
  281.9613  320.4665  -77.6003 H   0  0  0  0  0  0  0  0  0  0  0  0  # atno 1472 bound_to 1416
  274.0817  322.9806  -79.6762 H   0  0  0  0  0  0  0  0  0  0  0  0  # atno 1524 bound_to 1493
  278.5126  310.1755  -79.0027 H   0  0  0  0  0  0  0  0  0  0  0  0  # atno 3989 bound_to 3946
  277.8360  309.5988  -77.0659 H   0  0  0  0  0  0  0  0  0  0  0  0  # atno 4071 bound_to 4017
  283.6446  314.1426  -76.5479 H   0  0  0  0  0  0  0  0  0  0  0  0  # atno 4211 bound_to 4184
  283.2401  309.9721  -74.5309 H   0  0  0  0  0  0  0  0  0  0  0  0  # atno 4251 bound_to 4223
  280.2507  308.8707  -71.3681 H   0  0  0  0  0  0  0  0  0  0  0  0  # atno 4255 bound_to 4228
  286.3271  312.3587  -71.2215 H   0  0  0  0  0  0  0  0  0  0  0  0  # atno 4400 bound_to 4354
  287.3130  312.5424  -69.9019 H   0  0  0  0  0  0  0  0  0  0  0  0  # atno 4401 bound_to 4354
  286.8259  313.8717  -70.7634 H   0  0  0  0  0  0  0  0  0  0  0  0  # atno 4402 bound_to 4354
  277.7038  312.2953  -72.5732 H   0  0  0  0  0  0  0  0  0  0  0  0  # atno 6590 bound_to 6548
  282.4456  320.2730  -67.3565 H   0  0  0  0  0  0  0  0  0  0  0  0  # atno 23683 bound_to 23650
  281.2432  322.1776  -70.0252 H   0  0  0  0  0  0  0  0  0  0  0  0  # atno 23751 bound_to 23739
  279.6222  324.6216  -70.3496 H   0  0  0  0  0  0  0  0  0  0  0  0  # atno 23779 bound_to 23767
  270.8350  317.4106  -76.8140 H   0  0  0  0  0  0  0  0  0  0  0  0  # atno 25689 bound_to 25666
  275.6863  323.5419  -76.2165 LP  0  0  0  0  0  0  0  0  0  0  0  0  # atno 27271 bound_to 1190
  277.1993  322.7165  -76.0451 LP  0  0  0  0  0  0  0  0  0  0  0  0  # atno 27272 bound_to 1190
  277.3019  323.5041  -78.5819 LP  0  0  0  0  0  0  0  0  0  0  0  0  # atno 27273 bound_to 1408
  274.8199  319.6208  -79.2447 LP  0  0  0  0  0  0  0  0  0  0  0  0  # atno 27274 bound_to 1411
  273.3024  320.0989  -78.5602 LP  0  0  0  0  0  0  0  0  0  0  0  0  # atno 27275 bound_to 1411
  274.2929  322.2743  -78.0971 LP  0  0  0  0  0  0  0  0  0  0  0  0  # atno 27276 bound_to 1493
  276.3922  312.2849  -79.6809 LP  0  0  0  0  0  0  0  0  0  0  0  0  # atno 27277 bound_to 3685
  277.4813  311.5533  -80.8116 LP  0  0  0  0  0  0  0  0  0  0  0  0  # atno 27278 bound_to 3685
  279.3640  311.4969  -79.7551 LP  0  0  0  0  0  0  0  0  0  0  0  0  # atno 27283 bound_to 3946
  280.1166  310.4011  -74.7651 LP  0  0  0  0  0  0  0  0  0  0  0  0  # atno 27284 bound_to 3949
  280.7831  311.7192  -75.6697 LP  0  0  0  0  0  0  0  0  0  0  0  0  # atno 27285 bound_to 3949
  276.6006  312.0774  -73.7500 LP  0  0  0  0  0  0  0  0  0  0  0  0  # atno 27286 bound_to 6548
  278.1151  311.4933  -73.9286 LP  0  0  0  0  0  0  0  0  0  0  0  0  # atno 27287 bound_to 6548
  280.2648  320.8771  -71.4833 LP  0  0  0  0  0  0  0  0  0  0  0  0  # atno 27289 bound_to 23653
  281.0972  322.2963  -72.0247 LP  0  0  0  0  0  0  0  0  0  0  0  0  # atno 27290 bound_to 23653
  270.5458  317.4526  -75.0938 LP  0  0  0  0  0  0  0  0  0  0  0  0  # atno 27291 bound_to 25666
  272.9692  314.1519  -75.8992 LP  0  0  0  0  0  0  0  0  0  0  0  0  # atno 27292 bound_to 25669
  272.5868  315.8411  -75.9166 LP  0  0  0  0  0  0  0  0  0  0  0  0  # atno 27293 bound_to 25669
  278.6506  325.1274  -76.3490 LP  0  0  0  0  0  0  0  0  0  0  0  0  # atno 27295 bound_to 1133
  279.8999  326.2505  -76.7706 LP  0  0  0  0  0  0  0  0  0  0  0  0  # atno 27296 bound_to 1133
  278.7024  325.9600  -73.1662 LP  0  0  0  0  0  0  0  0  0  0  0  0  # atno 27297 bound_to 1187
  277.2848  326.1710  -75.1386 LP  0  0  0  0  0  0  0  0  0  0  0  0  # atno 27298 bound_to 1265
  275.9565  326.3769  -77.4923 LP  0  0  0  0  0  0  0  0  0  0  0  0  # atno 27299 bound_to 1331
  276.4732  324.6303  -81.5144 LP  0  0  0  0  0  0  0  0  0  0  0  0  # atno 27300 bound_to 1334
  276.5530  322.9352  -81.1675 LP  0  0  0  0  0  0  0  0  0  0  0  0  # atno 27301 bound_to 1334
  284.9726  313.2022  -76.5224 LP  0  0  0  0  0  0  0  0  0  0  0  0  # atno 27302 bound_to 4184
  283.9623  313.2283  -75.2396 LP  0  0  0  0  0  0  0  0  0  0  0  0  # atno 27303 bound_to 4184
  279.4686  310.1832  -76.8828 LP  0  0  0  0  0  0  0  0  0  0  0  0  # atno 27304 bound_to 4017
  282.0790  311.2714  -74.6507 LP  0  0  0  0  0  0  0  0  0  0  0  0  # atno 27305 bound_to 4223
  271.8654  315.1612  -69.5907 LP  0  0  0  0  0  0  0  0  0  0  0  0  # atno 27306 bound_to 6778
  270.1481  315.0361  -69.7788 LP  0  0  0  0  0  0  0  0  0  0  0  0  # atno 27307 bound_to 6778
  284.1983  319.8975  -69.3576 LP  0  0  0  0  0  0  0  0  0  0  0  0  # atno 27308 bound_to 23601
  283.9414  318.6151  -68.2220 LP  0  0  0  0  0  0  0  0  0  0  0  0  # atno 27309 bound_to 23601
  282.4820  321.9590  -67.8190 LP  0  0  0  0  0  0  0  0  0  0  0  0  # atno 27310 bound_to 23650
  281.9072  323.2132  -68.7857 LP  0  0  0  0  0  0  0  0  0  0  0  0  # atno 27311 bound_to 23739
  285.5884  310.4717  -74.1647 LP  0  0  0  0  0  0  0  0  0  0  0  0  # atno 27312 bound_to 4182
  284.9212  311.9397  -73.5325 LP  0  0  0  0  0  0  0  0  0  0  0  0  # atno 27313 bound_to 4182
  281.6603  308.5632  -72.1210 LP  0  0  0  0  0  0  0  0  0  0  0  0  # atno 27314 bound_to 4228
  280.3080  308.8379  -72.9942 LP  0  0  0  0  0  0  0  0  0  0  0  0  # atno 27315 bound_to 4228
  276.4848  322.3436  -68.3012 LP  0  0  0  0  0  0  0  0  0  0  0  0  # atno 27316 bound_to 23770
  278.0893  322.8387  -67.8760 LP  0  0  0  0  0  0  0  0  0  0  0  0  # atno 27317 bound_to 23770

> <Gold.Score>
     Fitness  S(hb_ext) S(vdw_ext)  S(hb_int)    S(int)      intcor
     34.98       3.59      22.88       0.00      -0.08      -0.78

> <Gold.Goldscore.Fitness>
34.9796

> <Gold.Goldscore.Internal.Vdw>
-0.3741

> <Gold.Goldscore.Internal.Torsion>
-0.4790

> <Gold.Goldscore.External.Vdw>
22.8831

> <Gold.Goldscore.Internal.HBond>
0.0000

> <Gold.Goldscore.External.HBond>
3.5916

> <Gold.Goldscore.Internal.Correction>
-0.7769

> <Gold.Goldscore.Hbonds>
donor molecule, donor type, donor heavy atom, donor atom, acceptor molecule, acceptor atom, score
      L1  H     8    22       P1  4223  0.60

> <Gold.Goldscore.Internal.Vdw.Weighted>
-0.3741

> <Gold.Goldscore.Internal.Torsion.Weighted>
-0.4790

> <Gold.Goldscore.External.Vdw.Weighted>
31.4642

> <Gold.Goldscore.Internal.HBond.Weighted>
0.0000

> <Gold.Goldscore.External.HBond.Weighted>
3.5916

> <Gold.Goldscore.Internal.Correction.Weighted>
-0.7769

> <Gold.Rescore>
     Score     S(PLP)   S(hbond)     S(cho)   S(metal)  DE(clash)   DE(tors)     intcor
     30.17     -30.58       0.03       0.00       0.00       0.00       0.25       ----

> <Gold.PLP.Fitness>
30.1745

> <Gold.PLP.PLP>
-30.5845

> <Gold.PLP.part.hbond>
-1.8822

> <Gold.PLP.part.metal>
0.0000

> <Gold.PLP.part.buried>
-6.0217

> <Gold.PLP.part.nonpolar>
-24.9008

> <Gold.PLP.part.repulsive>
2.3811

> <Gold.PLP.ligand.clash>
0.0000

> <Gold.PLP.ligand.torsion>
0.2525

> <Gold.PLP.Chemscore.Hbond>
0.0317

> <Gold.PLP.Chemscore.CHOScore>
0.0000

> <Gold.PLP.Chemscore.Metal>
0.0000

> <Gold.Chemscore.Hbonds>
donor molecule, donor type, donor heavy atom, donor atom, acceptor molecule, acceptor atom, score
      L1  H     8    22       P1  4223  0.40

> <Gold.PLP.Chemscore.Internal.Correction>
   9.000000E+99

