#       Name:                CT1002167954
#       Creating user name   hitesit
#       Creation time:       Sun Apr 16 20:19:03 2023


#       File generated by GOLD software.
#

@<TRIPOS>MOLECULE
CT1002167954|ligand_prepared|mol2|1|dock6
    29    30     1
SMALL
NO_CHARGES


@<TRIPOS>ATOM
      1 C1          12.8824  13.1519  12.9455 C.3            1 RES1               0.0000
      2 C2          12.9850  12.9347  11.4220 C.ar           1 RES1               0.0000
      3 C3          11.5548  13.8639  13.1882 C.2            1 RES1               0.0000
      4 C4          12.9716  11.7686  13.5805 C.2            1 RES1               0.0000
      5 C5          14.0200  14.0206  13.5308 C.3            1 RES1               0.0000
      6 C6          14.2179  12.6977  10.8214 C.ar           1 RES1               0.0000
      7 C7          11.8574  12.9657  10.6058 C.ar           1 RES1               0.0000
      8 N8          10.5375  13.1360  13.7313 N.am           1 RES1               0.0000
      9 O9          11.3909  15.0357  12.8714 O.2            1 RES1               0.0000
     10 N10         11.8689  11.2926  14.2402 N.am           1 RES1               0.0000
     11 O11         13.9813  11.0798  13.5014 O.2            1 RES1               0.0000
     12 C12         13.8129  14.4012  14.9883 C.3            1 RES1               0.0000
     13 C13         14.3196  12.4961   9.4549 C.ar           1 RES1               0.0000
     14 C14         11.9614  12.7640   9.2394 C.ar           1 RES1               0.0000
     15 C15         10.6457  11.9007  14.3180 C.2            1 RES1               0.0000
     16 C16         13.1915  12.5287   8.6631 C.ar           1 RES1               0.0000
     17 O17          9.6857  11.3846  14.8830 O.2            1 RES1               0.0000
     18 H18         14.9656  13.4721  13.4400 H              1 RES1               0.0000
     19 H19         14.1059  14.9379  12.9352 H              1 RES1               0.0000
     20 H20         15.1169  12.6710  11.4281 H              1 RES1               0.0000
     21 H21         10.8794  13.1502  11.0372 H              1 RES1               0.0000
     22 H22          9.6105  13.5481  13.6981 H              1 RES1               0.0000
     23 H23         11.9693  10.4024  14.7176 H              1 RES1               0.0000
     24 H24         14.6392  15.0101  15.3492 H              1 RES1               0.0000
     25 H25         12.8937  14.9701  15.1116 H              1 RES1               0.0000
     26 H26         13.7482  13.5130  15.6134 H              1 RES1               0.0000
     27 H27         15.2902  12.3127   9.0061 H              1 RES1               0.0000
     28 H28         11.0710  12.7911   8.6200 H              1 RES1               0.0000
     29 H29         13.2714  12.3703   7.5927 H              1 RES1               0.0000
@<TRIPOS>BOND
    1    1    2 1     
    2    1    3 1     
    3    1    4 1     
    4    1    5 1     
    5    2    6 ar    
    6    2    7 ar    
    7    3    8 1     
    8    3    9 2     
    9    4   10 1     
   10    4   11 2     
   11    5   12 1     
   12    5   18 1     
   13    5   19 1     
   14    6   13 ar    
   15    6   20 1     
   16    7   14 ar    
   17    7   21 1     
   18    8   15 1     
   19    8   22 1     
   20   10   15 1     
   21   10   23 1     
   22   12   24 1     
   23   12   25 1     
   24   12   26 1     
   25   13   16 ar    
   26   13   27 1     
   27   14   16 ar    
   28   14   28 1     
   29   15   17 2     
   30   16   29 1     
@<TRIPOS>SUBSTRUCTURE
      1 RES1           1
@<TRIPOS>SET
DONOR_HYDROGENS      STATIC     ATOMS    <user>   **** ""
2 22 23
ATOM$RED        STATIC     ATOMS    COLORGROUP SYSTEM
2 22 23
@<TRIPOS>COMMENT
> <Gold.Version>
2022.3.0

> <Gold.Id.Protein>
unknown|3mvj_clean|pdb

> <Gold.Protein.RotatedTorsions>
[ 9935 9915 9914 9913 ] final   76.96 input   59.98 | X-H torsion
[ 10977 10935 10934 10932 ] final  166.35 input   60.03 | X-H torsion
[ 9832 9816 9817 9818 ] final -129.88 input   89.09 | X-H torsion
[ 9883 9871 9872 9873 ] final  160.10 input -126.12 | X-H torsion
[ 9925 9907 9908 9909 ] final   99.55 input  109.17 | X-H torsion
[ 9887 9876 9875 9872 ] final -126.93 input   59.96 | X-H torsion
[ 10737 10695 10694 10692 ] final -113.76 input   59.99 | X-H torsion
[ 11660 11631 11630 11629 ] final  -29.07 input   60.02 | X-H torsion
[ 9775 9759 9760 9761 ] final   34.08 input  126.36 | X-H torsion
[ 11617 11587 11588 11589 ] final  -37.17 input  114.14 | X-H torsion
[ 11577 11538 11537 11535 ] final -129.36 input   60.01 | X-H torsion
[ 11396 11358 11359 11360 ] final  128.18 input   98.08 | X-H torsion
[ 11450 11416 11417 11418 ] final -119.36 input  102.35 | X-H torsion
[ 11569 11527 11528 11529 ] final   52.30 input  127.83 | X-H torsion
[ 11822 11800 11801 11802 ] final  114.15 input  127.47 | X-H torsion
[ 11676 11632 11633 11634 ] final   67.16 input  113.96 | X-H torsion
[ 11504 11466 11467 11468 ] final   -7.86 input  126.08 | X-H torsion
[ 11785 11753 11754 11755 ] final  155.99 input  105.73 | X-H torsion
[ 11735 11697 11698 11699 ] final   91.47 input  116.95 | X-H torsion
[ 11559 11526 11525 11523 ] final -138.74 input   60.00 | X-H torsion
[ 9355 9334 9332 9329 ] final  107.52 input   60.01 | X-H torsion
[ 7755 7713 7712 7711 ] final  128.67 input   60.03 | X-H torsion
[ 15483 15454 15453 15451 ] final   31.57 input   59.98 | X-H torsion
[ 5786 5760 5759 5756 ] final   35.57 input   59.99 | X-H torsion
[ 1845 1810 1808 1805 ] final   39.76 input   60.00 | X-H torsion
[ 8483 8455 8453 8450 ] final  136.28 input   60.02 | X-H torsion
[ 1888 1872 1871 1868 ] final   73.90 input   59.98 | X-H torsion
[ 9501 9468 9467 9465 ] final -173.55 input   60.02 | X-H torsion
[ 3466 3411 3410 3409 ] final  -91.07 input   59.97 | X-H torsion
[ 16458 9819 9818 9817 ] final  133.45 input    0.00 | X-H torsion
[ 16464 9874 9873 9872 ] final  -21.91 input    0.00 | X-H torsion
[ 16467 9762 9761 9760 ] final   10.41 input    0.00 | X-H torsion
[ 16495 9617 9616 9615 ] final -107.79 input    0.00 | X-H torsion
[ 16497 9705 9704 9703 ] final   39.52 input    0.00 | X-H torsion
[ 16500 11530 11529 11528 ] final  114.08 input    0.00 | X-H torsion
[ 16504 11361 11360 11359 ] final  105.62 input    0.00 | X-H torsion
[ 16511 11318 11317 11316 ] final   21.12 input    0.00 | X-H torsion
[ 16520 11590 11589 11588 ] final  137.77 input    0.00 | X-H torsion
[ 16523 11756 11755 11754 ] final   71.42 input    0.00 | X-H torsion
[ 16543 11419 11418 11417 ] final   -4.26 input   -0.00 | X-H torsion
[ 16547 11469 11468 11467 ] final   52.56 input    0.00 | X-H torsion
[ 16571 11269 11268 11267 ] final  -74.47 input   -0.00 | X-H torsion

> <Gold.Protein.ActiveResidues>
 THR48   LEU49   GLY50   THR51   GLY52   SER53   PHE54   GLY55   ARG56   VAL57  
 LYS78   LYS81   LEU82   LYS83   GLN84   HIS87   GLU127  PHE129  SER130  LEU132 
 ARG133  ARG134  ILE135  GLY136  ARG137  ARG165  ASP166  LEU167  LYS168  PRO169 
 GLU170  ASN171  LEU172  LEU173  THR183  ASP184  GLY186  PHE187  TPO197  LEU198 
 CYS199  GLY200  THR201  PRO202  GLU203  TYR204  LEU205  PRO207  ILE209  ILE210 
 LEU211  SER212  LYS213  VAL226  LEU227  TYR229  GLU230  ALA233  GLY234  TYR235 
 PRO236  PRO237  PHE238  PHE239  ALA240  ASP241  GLN242  PRO243  ILE244  GLN245 
 ILE246  TYR247  GLU248  LYS249  ILE250  VAL251  SER252  ARG256  PHE257  PRO258 
 SER259  PHE327  ASP328  TYR330 

> <Gold.Protein.RotatedAtoms>
   16.1640    6.4410   10.5822 H   0  0  0  0  0  0  0  0  0  0  0  0  # atno 1845 bound_to 1810
    6.9032    8.9110   10.0777 H   0  0  0  0  0  0  0  0  0  0  0  0  # atno 1888 bound_to 1872
    1.8512   11.6819   -6.2047 H   0  0  0  0  0  0  0  0  0  0  0  0  # atno 3466 bound_to 3411
    0.5562   10.6523   -6.1009 H   0  0  0  0  0  0  0  0  0  0  0  0  # atno 3467 bound_to 3411
    0.3626   12.1665   -6.7473 H   0  0  0  0  0  0  0  0  0  0  0  0  # atno 3468 bound_to 3411
   16.3004   13.1123   25.4564 H   0  0  0  0  0  0  0  0  0  0  0  0  # atno 5786 bound_to 5760
    6.6028   13.4242   14.0693 H   0  0  0  0  0  0  0  0  0  0  0  0  # atno 7755 bound_to 7713
    7.8649   12.7323   14.8909 H   0  0  0  0  0  0  0  0  0  0  0  0  # atno 7756 bound_to 7713
    6.4176   12.9881   15.6574 H   0  0  0  0  0  0  0  0  0  0  0  0  # atno 7757 bound_to 7713
   15.3153   18.0080   14.2703 H   0  0  0  0  0  0  0  0  0  0  0  0  # atno 8483 bound_to 8455
    4.5927   15.6359   13.9281 H   0  0  0  0  0  0  0  0  0  0  0  0  # atno 9355 bound_to 9334
    4.2323   18.6389   22.8327 H   0  0  0  0  0  0  0  0  0  0  0  0  # atno 9501 bound_to 9468
    6.9697    7.3222   41.5366 H   0  0  0  0  0  0  0  0  0  0  0  0  # atno 9775 bound_to 9759
    5.4707    7.6871   39.2613 H   0  0  0  0  0  0  0  0  0  0  0  0  # atno 9832 bound_to 9816
    4.8396   10.3317   40.4335 H   0  0  0  0  0  0  0  0  0  0  0  0  # atno 9883 bound_to 9871
    5.3043   13.8220   40.1221 H   0  0  0  0  0  0  0  0  0  0  0  0  # atno 9887 bound_to 9876
    3.7146    9.6100   43.6735 H   0  0  0  0  0  0  0  0  0  0  0  0  # atno 9925 bound_to 9907
   -0.7751    7.7421   42.2241 H   0  0  0  0  0  0  0  0  0  0  0  0  # atno 9935 bound_to 9915
   -1.8817    6.5087   42.2736 H   0  0  0  0  0  0  0  0  0  0  0  0  # atno 9936 bound_to 9915
   -1.8640    7.6543   43.4712 H   0  0  0  0  0  0  0  0  0  0  0  0  # atno 9937 bound_to 9915
   -5.0749   16.8731   29.8499 H   0  0  0  0  0  0  0  0  0  0  0  0  # atno 10737 bound_to 10695
   -2.4278   14.2075   34.3020 H   0  0  0  0  0  0  0  0  0  0  0  0  # atno 10977 bound_to 10935
   11.2016    5.6415   29.3373 H   0  0  0  0  0  0  0  0  0  0  0  0  # atno 11396 bound_to 11358
    8.7693    3.6292   29.6012 H   0  0  0  0  0  0  0  0  0  0  0  0  # atno 11450 bound_to 11416
    9.5864    1.5490   31.2235 H   0  0  0  0  0  0  0  0  0  0  0  0  # atno 11504 bound_to 11466
   -3.6290   11.0464   11.2176 H   0  0  0  0  0  0  0  0  0  0  0  0  # atno 11559 bound_to 11526
    9.3165    2.4559   32.6705 H   0  0  0  0  0  0  0  0  0  0  0  0  # atno 11569 bound_to 11527
   12.4132    8.9226   34.8557 H   0  0  0  0  0  0  0  0  0  0  0  0  # atno 11577 bound_to 11538
    7.3248    1.7317   34.2074 H   0  0  0  0  0  0  0  0  0  0  0  0  # atno 11617 bound_to 11587
   -7.9255    8.7024   25.5477 H   0  0  0  0  0  0  0  0  0  0  0  0  # atno 11660 bound_to 11631
   -8.5939    9.2164   26.9742 H   0  0  0  0  0  0  0  0  0  0  0  0  # atno 11661 bound_to 11631
   -9.3208    8.0047   26.1087 H   0  0  0  0  0  0  0  0  0  0  0  0  # atno 11662 bound_to 11631
    7.6299   -0.2748   33.8167 H   0  0  0  0  0  0  0  0  0  0  0  0  # atno 11676 bound_to 11632
    7.6954   -0.3207   35.7302 H   0  0  0  0  0  0  0  0  0  0  0  0  # atno 11735 bound_to 11697
    6.1353    0.8963   37.4894 H   0  0  0  0  0  0  0  0  0  0  0  0  # atno 11785 bound_to 11753
    4.1853   -1.3641   36.4695 H   0  0  0  0  0  0  0  0  0  0  0  0  # atno 11822 bound_to 11800
   16.2020    9.1945   17.9225 H   0  0  0  0  0  0  0  0  0  0  0  0  # atno 15483 bound_to 15454
    1.9576   10.3361   41.9431 LP  0  0  0  0  0  0  0  0  0  0  0  0  # atno 16458 bound_to 9819
    1.6074   10.1231   40.2602 LP  0  0  0  0  0  0  0  0  0  0  0  0  # atno 16459 bound_to 9819
   -3.6533   14.1696   33.2320 LP  0  0  0  0  0  0  0  0  0  0  0  0  # atno 16460 bound_to 10935
   -2.7180   15.5021   33.3596 LP  0  0  0  0  0  0  0  0  0  0  0  0  # atno 16461 bound_to 10935
    5.3601    7.7543   41.0029 LP  0  0  0  0  0  0  0  0  0  0  0  0  # atno 16462 bound_to 9816
    4.1486    9.4547   41.7787 LP  0  0  0  0  0  0  0  0  0  0  0  0  # atno 16463 bound_to 9871
    2.9637   13.4316   43.2948 LP  0  0  0  0  0  0  0  0  0  0  0  0  # atno 16464 bound_to 9874
    1.7627   12.4332   44.0435 LP  0  0  0  0  0  0  0  0  0  0  0  0  # atno 16465 bound_to 9874
    3.1114   11.2177   43.3472 LP  0  0  0  0  0  0  0  0  0  0  0  0  # atno 16466 bound_to 9907
    6.4171    9.3172   37.7108 LP  0  0  0  0  0  0  0  0  0  0  0  0  # atno 16467 bound_to 9762
    4.8924    9.7197   38.4273 LP  0  0  0  0  0  0  0  0  0  0  0  0  # atno 16468 bound_to 9762
    4.5798   12.6601   39.2427 LP  0  0  0  0  0  0  0  0  0  0  0  0  # atno 16469 bound_to 9876
    5.7270   12.2651   40.3357 LP  0  0  0  0  0  0  0  0  0  0  0  0  # atno 16470 bound_to 9876
   -4.4363   17.5153   31.2013 LP  0  0  0  0  0  0  0  0  0  0  0  0  # atno 16477 bound_to 10695
   -3.7769   16.1760   30.5394 LP  0  0  0  0  0  0  0  0  0  0  0  0  # atno 16478 bound_to 10695
    5.9070    6.1169   41.4587 LP  0  0  0  0  0  0  0  0  0  0  0  0  # atno 16495 bound_to 9617
    4.4982    5.1197   41.3139 LP  0  0  0  0  0  0  0  0  0  0  0  0  # atno 16496 bound_to 9617
    7.9982   10.4390   41.5777 LP  0  0  0  0  0  0  0  0  0  0  0  0  # atno 16497 bound_to 9705
    6.6726    9.8100   40.6573 LP  0  0  0  0  0  0  0  0  0  0  0  0  # atno 16498 bound_to 9705
    8.6384    7.4994   41.0433 LP  0  0  0  0  0  0  0  0  0  0  0  0  # atno 16499 bound_to 9759
    5.6803    2.3953   35.6480 LP  0  0  0  0  0  0  0  0  0  0  0  0  # atno 16500 bound_to 11530
    7.0041    1.4558   36.2520 LP  0  0  0  0  0  0  0  0  0  0  0  0  # atno 16501 bound_to 11530
    6.9050    3.3867   30.5538 LP  0  0  0  0  0  0  0  0  0  0  0  0  # atno 16504 bound_to 11361
    7.8509    3.3670   32.0046 LP  0  0  0  0  0  0  0  0  0  0  0  0  # atno 16505 bound_to 11361
    7.1775    2.3292   32.5686 LP  0  0  0  0  0  0  0  0  0  0  0  0  # atno 16508 bound_to 11587
   13.1279    8.0413   33.6896 LP  0  0  0  0  0  0  0  0  0  0  0  0  # atno 16509 bound_to 11538
   13.3399    7.6480   35.2602 LP  0  0  0  0  0  0  0  0  0  0  0  0  # atno 16510 bound_to 11538
   11.7778    4.1583   32.8762 LP  0  0  0  0  0  0  0  0  0  0  0  0  # atno 16511 bound_to 11318
   10.3226    3.6998   32.0563 LP  0  0  0  0  0  0  0  0  0  0  0  0  # atno 16512 bound_to 11318
   11.3722    4.4106   30.5531 LP  0  0  0  0  0  0  0  0  0  0  0  0  # atno 16513 bound_to 11358
   10.4058    3.0346   29.7347 LP  0  0  0  0  0  0  0  0  0  0  0  0  # atno 16514 bound_to 11416
   10.4542    2.4076   33.9907 LP  0  0  0  0  0  0  0  0  0  0  0  0  # atno 16515 bound_to 11527
    4.6303   -1.8043   34.5363 LP  0  0  0  0  0  0  0  0  0  0  0  0  # atno 16520 bound_to 11590
    4.3426   -0.2236   35.1832 LP  0  0  0  0  0  0  0  0  0  0  0  0  # atno 16521 bound_to 11590
    3.1774   -0.8619   37.8062 LP  0  0  0  0  0  0  0  0  0  0  0  0  # atno 16522 bound_to 11800
    1.7322   -0.4826   39.2782 LP  0  0  0  0  0  0  0  0  0  0  0  0  # atno 16523 bound_to 11756
    2.6628   -1.8974   39.6418 LP  0  0  0  0  0  0  0  0  0  0  0  0  # atno 16524 bound_to 11756
    7.7170   -0.2418   30.9595 LP  0  0  0  0  0  0  0  0  0  0  0  0  # atno 16543 bound_to 11419
    8.9060   -0.5354   32.1842 LP  0  0  0  0  0  0  0  0  0  0  0  0  # atno 16544 bound_to 11419
    6.0833   -0.8221   33.2210 LP  0  0  0  0  0  0  0  0  0  0  0  0  # atno 16545 bound_to 11632
   11.1467    1.0783   30.5819 LP  0  0  0  0  0  0  0  0  0  0  0  0  # atno 16546 bound_to 11466
    9.8699   -0.0891   35.0138 LP  0  0  0  0  0  0  0  0  0  0  0  0  # atno 16547 bound_to 11469
    8.3218    0.4620   34.4664 LP  0  0  0  0  0  0  0  0  0  0  0  0  # atno 16548 bound_to 11469
    5.8769   -0.8220   37.6749 LP  0  0  0  0  0  0  0  0  0  0  0  0  # atno 16549 bound_to 11753
    7.6484   -2.0471   36.0443 LP  0  0  0  0  0  0  0  0  0  0  0  0  # atno 16550 bound_to 11697
   -3.0738   10.2149   12.5016 LP  0  0  0  0  0  0  0  0  0  0  0  0  # atno 16565 bound_to 11526
   -2.8340   11.8272   12.4036 LP  0  0  0  0  0  0  0  0  0  0  0  0  # atno 16566 bound_to 11526
    4.1044   14.4124   12.9723 LP  0  0  0  0  0  0  0  0  0  0  0  0  # atno 16567 bound_to 9334
    5.1294   14.1256   14.2108 LP  0  0  0  0  0  0  0  0  0  0  0  0  # atno 16568 bound_to 9334
   11.4983    2.8134   28.9441 LP  0  0  0  0  0  0  0  0  0  0  0  0  # atno 16571 bound_to 11269
   12.8148    2.1596   29.8603 LP  0  0  0  0  0  0  0  0  0  0  0  0  # atno 16572 bound_to 11269
   15.5149    8.0232   18.8186 LP  0  0  0  0  0  0  0  0  0  0  0  0  # atno 16581 bound_to 15454
   14.8432    8.4692   17.3985 LP  0  0  0  0  0  0  0  0  0  0  0  0  # atno 16582 bound_to 15454
   16.1751   12.9006   23.8480 LP  0  0  0  0  0  0  0  0  0  0  0  0  # atno 16589 bound_to 5760
   17.2556   12.0287   24.7076 LP  0  0  0  0  0  0  0  0  0  0  0  0  # atno 16590 bound_to 5760
   14.6338    5.8867   10.5736 LP  0  0  0  0  0  0  0  0  0  0  0  0  # atno 16601 bound_to 1810
   15.8158    5.0178   11.2909 LP  0  0  0  0  0  0  0  0  0  0  0  0  # atno 16602 bound_to 1810
   14.0727   19.0442   14.4437 LP  0  0  0  0  0  0  0  0  0  0  0  0  # atno 16609 bound_to 8455
   15.3111   19.0644   15.5080 LP  0  0  0  0  0  0  0  0  0  0  0  0  # atno 16610 bound_to 8455
    6.5806    7.7354    8.9999 LP  0  0  0  0  0  0  0  0  0  0  0  0  # atno 16611 bound_to 1872
    5.8461    9.1882    8.8721 LP  0  0  0  0  0  0  0  0  0  0  0  0  # atno 16612 bound_to 1872
    4.9919   17.2900   22.3320 LP  0  0  0  0  0  0  0  0  0  0  0  0  # atno 16621 bound_to 9468
    3.5546   17.1841   23.0999 LP  0  0  0  0  0  0  0  0  0  0  0  0  # atno 16622 bound_to 9468

> <Gold.Score>
     Fitness  S(hb_ext) S(vdw_ext)  S(hb_int)    S(int)      intcor
     37.17       6.00      23.45       0.00      -1.08      -0.76

> <Gold.Goldscore.Fitness>
37.1735

> <Gold.Goldscore.Internal.Vdw>
-1.3517

> <Gold.Goldscore.Internal.Torsion>
-0.4822

> <Gold.Goldscore.External.Vdw>
23.4538

> <Gold.Goldscore.Internal.HBond>
0.0000

> <Gold.Goldscore.External.HBond>
6.0000

> <Gold.Goldscore.Internal.Correction>
-0.7585

> <Gold.Goldscore.Hbonds>
donor molecule, donor type, donor heavy atom, donor atom, acceptor molecule, acceptor atom, score
      P1  H  7713  7756       L1    17  1.00

> <Gold.Goldscore.Internal.Vdw.Weighted>
-1.3517

> <Gold.Goldscore.Internal.Torsion.Weighted>
-0.4822

> <Gold.Goldscore.External.Vdw.Weighted>
32.2490

> <Gold.Goldscore.Internal.HBond.Weighted>
0.0000

> <Gold.Goldscore.External.HBond.Weighted>
6.0000

> <Gold.Goldscore.Internal.Correction.Weighted>
-0.7585

> <Gold.Rescore>
     Score     S(PLP)   S(hbond)     S(cho)   S(metal)  DE(clash)   DE(tors)     intcor
     17.00     -18.43       0.00       0.00       0.00       1.25       0.09       ----

> <Gold.PLP.Fitness>
17.0002

> <Gold.PLP.PLP>
-18.4270

> <Gold.PLP.part.hbond>
-1.3774

> <Gold.PLP.part.metal>
0.0000

> <Gold.PLP.part.buried>
3.5679

> <Gold.PLP.part.nonpolar>
-27.8988

> <Gold.PLP.part.repulsive>
6.3658

> <Gold.PLP.ligand.clash>
1.2481

> <Gold.PLP.ligand.torsion>
0.0894

> <Gold.PLP.Chemscore.Hbond>
0.0000

> <Gold.PLP.Chemscore.CHOScore>
0.0000

> <Gold.PLP.Chemscore.Metal>
0.0000

> <Gold.Chemscore.Hbonds>
donor molecule, donor type, donor heavy atom, donor atom, acceptor molecule, acceptor atom, score
      P1  H  7713  7756       L1    17  0.59

> <Gold.PLP.Chemscore.Internal.Correction>
   9.000000E+99

