#       Name:                CT1002167954
#       Creating user name   hitesit
#       Creation time:       Sun Apr 16 20:18:59 2023


#       File generated by GOLD software.
#

@<TRIPOS>MOLECULE
CT1002167954|ligand_prepared|mol2|1|dock4
    29    30     1
SMALL
NO_CHARGES


@<TRIPOS>ATOM
      1 C1          13.2980  12.1169  14.3983 C.3            1 RES1               0.0000
      2 C2          13.8756  12.1062  12.9682 C.ar           1 RES1               0.0000
      3 C3          12.1927  11.0651  14.4218 C.2            1 RES1               0.0000
      4 C4          14.4647  11.8142  15.3319 C.2            1 RES1               0.0000
      5 C5          12.6913  13.4764  14.8169 C.3            1 RES1               0.0000
      6 C6          13.1390  12.6148  11.9026 C.ar           1 RES1               0.0000
      7 C7          15.1424  11.5945  12.6999 C.ar           1 RES1               0.0000
      8 N8          12.4476   9.8952  15.0745 N.am           1 RES1               0.0000
      9 O9          11.1283  11.2437  13.8427 O.2            1 RES1               0.0000
     10 N10         14.4342  10.6402  16.0380 N.am           1 RES1               0.0000
     11 O11         15.4182  12.5740  15.4500 O.2            1 RES1               0.0000
     12 C12         13.5620  14.6715  14.4625 C.3            1 RES1               0.0000
     13 C13         13.6513  12.6146  10.6158 C.ar           1 RES1               0.0000
     14 C14         15.6527  11.5950  11.4122 C.ar           1 RES1               0.0000
     15 C15         13.4935   9.6527  15.9285 C.2            1 RES1               0.0000
     16 C16         14.9085  12.1052  10.3698 C.ar           1 RES1               0.0000
     17 O17         13.5634   8.6005  16.5570 O.2            1 RES1               0.0000
     18 H18         11.7158  13.5931  14.3288 H              1 RES1               0.0000
     19 H19         12.5250  13.4699  15.9012 H              1 RES1               0.0000
     20 H20         12.1467  13.0176  12.0766 H              1 RES1               0.0000
     21 H21         15.7453  11.1870  13.5043 H              1 RES1               0.0000
     22 H22         11.8009   9.1297  14.9128 H              1 RES1               0.0000
     23 H23         15.1820  10.4885  16.7074 H              1 RES1               0.0000
     24 H24         13.0901  15.5997  14.7781 H              1 RES1               0.0000
     25 H25         14.5314  14.6010  14.9514 H              1 RES1               0.0000
     26 H26         13.7271  14.7234  13.3883 H              1 RES1               0.0000
     27 H27         13.0610  13.0160   9.7987 H              1 RES1               0.0000
     28 H28         16.6424  11.1925  11.2232 H              1 RES1               0.0000
     29 H29         15.3098  12.1054   9.3618 H              1 RES1               0.0000
@<TRIPOS>BOND
    1    1    2 1     
    2    1    3 1     
    3    1    4 1     
    4    1    5 1     
    5    2    6 ar    
    6    2    7 ar    
    7    3    8 1     
    8    3    9 2     
    9    4   10 1     
   10    4   11 2     
   11    5   12 1     
   12    5   18 1     
   13    5   19 1     
   14    6   13 ar    
   15    6   20 1     
   16    7   14 ar    
   17    7   21 1     
   18    8   15 1     
   19    8   22 1     
   20   10   15 1     
   21   10   23 1     
   22   12   24 1     
   23   12   25 1     
   24   12   26 1     
   25   13   16 ar    
   26   13   27 1     
   27   14   16 ar    
   28   14   28 1     
   29   15   17 2     
   30   16   29 1     
@<TRIPOS>SUBSTRUCTURE
      1 RES1           1
@<TRIPOS>SET
DONOR_HYDROGENS      STATIC     ATOMS    <user>   **** ""
2 22 23
ATOM$RED        STATIC     ATOMS    COLORGROUP SYSTEM
2 22 23
@<TRIPOS>COMMENT
> <Gold.Version>
2022.3.0

> <Gold.Id.Protein>
unknown|3mvj_clean|pdb

> <Gold.Protein.RotatedTorsions>
[ 9935 9915 9914 9913 ] final -131.51 input   59.98 | X-H torsion
[ 10977 10935 10934 10932 ] final  -39.74 input   60.03 | X-H torsion
[ 9832 9816 9817 9818 ] final  132.70 input   89.09 | X-H torsion
[ 9883 9871 9872 9873 ] final  147.36 input -126.12 | X-H torsion
[ 9925 9907 9908 9909 ] final   44.49 input  109.17 | X-H torsion
[ 9887 9876 9875 9872 ] final  -38.46 input   59.96 | X-H torsion
[ 10737 10695 10694 10692 ] final   23.73 input   59.99 | X-H torsion
[ 11660 11631 11630 11629 ] final   41.25 input   60.02 | X-H torsion
[ 9775 9759 9760 9761 ] final -137.11 input  126.36 | X-H torsion
[ 11617 11587 11588 11589 ] final -119.14 input  114.14 | X-H torsion
[ 11577 11538 11537 11535 ] final  -57.30 input   60.01 | X-H torsion
[ 11396 11358 11359 11360 ] final  133.21 input   98.08 | X-H torsion
[ 11450 11416 11417 11418 ] final  -56.32 input  102.35 | X-H torsion
[ 11569 11527 11528 11529 ] final  -63.58 input  127.83 | X-H torsion
[ 11822 11800 11801 11802 ] final  -31.30 input  127.47 | X-H torsion
[ 11676 11632 11633 11634 ] final  -17.00 input  113.96 | X-H torsion
[ 11504 11466 11467 11468 ] final   67.88 input  126.08 | X-H torsion
[ 11785 11753 11754 11755 ] final  -48.20 input  105.73 | X-H torsion
[ 11735 11697 11698 11699 ] final -107.83 input  116.95 | X-H torsion
[ 11559 11526 11525 11523 ] final  137.73 input   60.00 | X-H torsion
[ 9355 9334 9332 9329 ] final   80.13 input   60.01 | X-H torsion
[ 7755 7713 7712 7711 ] final    9.59 input   60.03 | X-H torsion
[ 15483 15454 15453 15451 ] final  155.27 input   59.98 | X-H torsion
[ 5786 5760 5759 5756 ] final  -48.26 input   59.99 | X-H torsion
[ 1845 1810 1808 1805 ] final   -1.76 input   60.00 | X-H torsion
[ 8483 8455 8453 8450 ] final   82.06 input   60.02 | X-H torsion
[ 1888 1872 1871 1868 ] final  -79.15 input   59.98 | X-H torsion
[ 9501 9468 9467 9465 ] final   17.02 input   60.02 | X-H torsion
[ 3466 3411 3410 3409 ] final  -46.06 input   59.97 | X-H torsion
[ 16458 9819 9818 9817 ] final   97.47 input    0.00 | X-H torsion
[ 16464 9874 9873 9872 ] final  126.50 input    0.00 | X-H torsion
[ 16467 9762 9761 9760 ] final  -75.27 input    0.00 | X-H torsion
[ 16495 9617 9616 9615 ] final  -55.18 input    0.00 | X-H torsion
[ 16497 9705 9704 9703 ] final  -65.36 input    0.00 | X-H torsion
[ 16500 11530 11529 11528 ] final -158.29 input    0.00 | X-H torsion
[ 16504 11361 11360 11359 ] final   73.61 input    0.00 | X-H torsion
[ 16511 11318 11317 11316 ] final  127.05 input    0.00 | X-H torsion
[ 16520 11590 11589 11588 ] final    7.49 input    0.00 | X-H torsion
[ 16523 11756 11755 11754 ] final   76.16 input    0.00 | X-H torsion
[ 16543 11419 11418 11417 ] final   62.11 input   -0.00 | X-H torsion
[ 16547 11469 11468 11467 ] final -113.77 input    0.00 | X-H torsion
[ 16571 11269 11268 11267 ] final   69.13 input   -0.00 | X-H torsion

> <Gold.Protein.ActiveResidues>
 THR48   LEU49   GLY50   THR51   GLY52   SER53   PHE54   GLY55   ARG56   VAL57  
 LYS78   LYS81   LEU82   LYS83   GLN84   HIS87   GLU127  PHE129  SER130  LEU132 
 ARG133  ARG134  ILE135  GLY136  ARG137  ARG165  ASP166  LEU167  LYS168  PRO169 
 GLU170  ASN171  LEU172  LEU173  THR183  ASP184  GLY186  PHE187  TPO197  LEU198 
 CYS199  GLY200  THR201  PRO202  GLU203  TYR204  LEU205  PRO207  ILE209  ILE210 
 LEU211  SER212  LYS213  VAL226  LEU227  TYR229  GLU230  ALA233  GLY234  TYR235 
 PRO236  PRO237  PHE238  PHE239  ALA240  ASP241  GLN242  PRO243  ILE244  GLN245 
 ILE246  TYR247  GLU248  LYS249  ILE250  VAL251  SER252  ARG256  PHE257  PRO258 
 SER259  PHE327  ASP328  TYR330 

> <Gold.Protein.RotatedAtoms>
   15.5576    6.6063   10.3683 H   0  0  0  0  0  0  0  0  0  0  0  0  # atno 1845 bound_to 1810
    6.2281    7.9692    8.6736 H   0  0  0  0  0  0  0  0  0  0  0  0  # atno 1888 bound_to 1872
    1.6588   11.0107   -5.9839 H   0  0  0  0  0  0  0  0  0  0  0  0  # atno 3466 bound_to 3411
    0.0555   11.0988   -6.3959 H   0  0  0  0  0  0  0  0  0  0  0  0  # atno 3467 bound_to 3411
    1.0556   12.3914   -6.6731 H   0  0  0  0  0  0  0  0  0  0  0  0  # atno 3468 bound_to 3411
   15.9299   13.2235   24.2672 H   0  0  0  0  0  0  0  0  0  0  0  0  # atno 5786 bound_to 5760
    6.4059   12.9949   15.6495 H   0  0  0  0  0  0  0  0  0  0  0  0  # atno 7755 bound_to 7713
    6.6160   13.4224   14.0621 H   0  0  0  0  0  0  0  0  0  0  0  0  # atno 7756 bound_to 7713
    7.8625   12.7279   14.9055 H   0  0  0  0  0  0  0  0  0  0  0  0  # atno 7757 bound_to 7713
   14.5674   18.2879   13.9700 H   0  0  0  0  0  0  0  0  0  0  0  0  # atno 8483 bound_to 8455
    4.3239   15.6096   13.5763 H   0  0  0  0  0  0  0  0  0  0  0  0  # atno 9355 bound_to 9334
    4.4356   16.8015   22.5944 H   0  0  0  0  0  0  0  0  0  0  0  0  # atno 9501 bound_to 9468
    8.6382    7.6362   41.0446 H   0  0  0  0  0  0  0  0  0  0  0  0  # atno 9775 bound_to 9759
    5.0847    6.9130   40.2649 H   0  0  0  0  0  0  0  0  0  0  0  0  # atno 9832 bound_to 9816
    4.6528   10.3444   40.3741 H   0  0  0  0  0  0  0  0  0  0  0  0  # atno 9883 bound_to 9871
    5.8630   12.7154   40.5342 H   0  0  0  0  0  0  0  0  0  0  0  0  # atno 9887 bound_to 9876
    4.1194   10.2396   44.0027 H   0  0  0  0  0  0  0  0  0  0  0  0  # atno 9925 bound_to 9907
   -2.1550    6.5986   42.7062 H   0  0  0  0  0  0  0  0  0  0  0  0  # atno 9935 bound_to 9915
   -1.4767    7.9741   43.3358 H   0  0  0  0  0  0  0  0  0  0  0  0  # atno 9936 bound_to 9915
   -0.8891    7.3313   41.9256 H   0  0  0  0  0  0  0  0  0  0  0  0  # atno 9937 bound_to 9915
   -3.6994   16.3244   30.7709 H   0  0  0  0  0  0  0  0  0  0  0  0  # atno 10737 bound_to 10695
   -3.1468   15.3357   33.0619 H   0  0  0  0  0  0  0  0  0  0  0  0  # atno 10977 bound_to 10935
   11.2182    5.6924   29.3913 H   0  0  0  0  0  0  0  0  0  0  0  0  # atno 11396 bound_to 11358
    9.1520    3.4515   30.4204 H   0  0  0  0  0  0  0  0  0  0  0  0  # atno 11450 bound_to 11416
   10.4761    2.1732   31.0955 H   0  0  0  0  0  0  0  0  0  0  0  0  # atno 11504 bound_to 11466
   -3.3681   10.1131   12.0028 H   0  0  0  0  0  0  0  0  0  0  0  0  # atno 11559 bound_to 11526
    9.9346    1.6741   33.7701 H   0  0  0  0  0  0  0  0  0  0  0  0  # atno 11569 bound_to 11527
   12.9055    8.2114   35.5369 H   0  0  0  0  0  0  0  0  0  0  0  0  # atno 11577 bound_to 11538
    6.7676    2.6636   33.7799 H   0  0  0  0  0  0  0  0  0  0  0  0  # atno 11617 bound_to 11587
   -7.9867    9.3208   26.4582 H   0  0  0  0  0  0  0  0  0  0  0  0  # atno 11660 bound_to 11631
   -9.3648    8.4560   26.7723 H   0  0  0  0  0  0  0  0  0  0  0  0  # atno 11661 bound_to 11631
   -8.4885    8.1471   25.4004 H   0  0  0  0  0  0  0  0  0  0  0  0  # atno 11662 bound_to 11631
    6.5467   -0.2420   34.2826 H   0  0  0  0  0  0  0  0  0  0  0  0  # atno 11676 bound_to 11632
    7.9479   -2.0420   36.0691 H   0  0  0  0  0  0  0  0  0  0  0  0  # atno 11735 bound_to 11697
    6.0260   -0.7511   38.0024 H   0  0  0  0  0  0  0  0  0  0  0  0  # atno 11785 bound_to 11753
    3.5230   -1.1894   38.0138 H   0  0  0  0  0  0  0  0  0  0  0  0  # atno 11822 bound_to 11800
   14.8255    8.4247   17.4365 H   0  0  0  0  0  0  0  0  0  0  0  0  # atno 15483 bound_to 15454
    1.7792    9.8367   41.8735 LP  0  0  0  0  0  0  0  0  0  0  0  0  # atno 16458 bound_to 9819
    1.7859   10.6224   40.3299 LP  0  0  0  0  0  0  0  0  0  0  0  0  # atno 16459 bound_to 9819
   -2.2106   14.7060   34.2346 LP  0  0  0  0  0  0  0  0  0  0  0  0  # atno 16460 bound_to 10935
   -3.4366   13.8296   33.6057 LP  0  0  0  0  0  0  0  0  0  0  0  0  # atno 16461 bound_to 10935
    5.7387    8.5134   40.0185 LP  0  0  0  0  0  0  0  0  0  0  0  0  # atno 16462 bound_to 9816
    4.3306    9.4423   41.8366 LP  0  0  0  0  0  0  0  0  0  0  0  0  # atno 16463 bound_to 9871
    1.6291   12.4793   43.5938 LP  0  0  0  0  0  0  0  0  0  0  0  0  # atno 16464 bound_to 9874
    3.0974   13.3855   43.7445 LP  0  0  0  0  0  0  0  0  0  0  0  0  # atno 16465 bound_to 9874
    2.7163   10.6032   43.0259 LP  0  0  0  0  0  0  0  0  0  0  0  0  # atno 16466 bound_to 9907
    6.1046   10.0765   38.5551 LP  0  0  0  0  0  0  0  0  0  0  0  0  # atno 16467 bound_to 9762
    5.2049    8.9605   37.5830 LP  0  0  0  0  0  0  0  0  0  0  0  0  # atno 16468 bound_to 9762
    4.9453   13.8133   39.7591 LP  0  0  0  0  0  0  0  0  0  0  0  0  # atno 16469 bound_to 9876
    4.7989   12.2261   39.4043 LP  0  0  0  0  0  0  0  0  0  0  0  0  # atno 16470 bound_to 9876
   -4.9368   16.6387   29.7627 LP  0  0  0  0  0  0  0  0  0  0  0  0  # atno 16477 bound_to 10695
   -4.6625   17.6055   31.0498 LP  0  0  0  0  0  0  0  0  0  0  0  0  # atno 16478 bound_to 10695
    5.9293    5.5732   40.9174 LP  0  0  0  0  0  0  0  0  0  0  0  0  # atno 16495 bound_to 9617
    4.4759    5.6634   41.8552 LP  0  0  0  0  0  0  0  0  0  0  0  0  # atno 16496 bound_to 9617
    6.6651   10.1224   41.6659 LP  0  0  0  0  0  0  0  0  0  0  0  0  # atno 16497 bound_to 9705
    8.0057   10.1266   40.5692 LP  0  0  0  0  0  0  0  0  0  0  0  0  # atno 16498 bound_to 9705
    7.0148    7.1938   41.5219 LP  0  0  0  0  0  0  0  0  0  0  0  0  # atno 16499 bound_to 9759
    5.9752    1.2351   35.5777 LP  0  0  0  0  0  0  0  0  0  0  0  0  # atno 16500 bound_to 11530
    6.7092    2.6160   36.3222 LP  0  0  0  0  0  0  0  0  0  0  0  0  # atno 16501 bound_to 11530
    6.8942    3.8328   30.7241 LP  0  0  0  0  0  0  0  0  0  0  0  0  # atno 16504 bound_to 11361
    7.8617    2.9209   31.8343 LP  0  0  0  0  0  0  0  0  0  0  0  0  # atno 16505 bound_to 11361
    7.7166    1.4276   32.9822 LP  0  0  0  0  0  0  0  0  0  0  0  0  # atno 16508 bound_to 11587
   12.5014    8.8593   34.1001 LP  0  0  0  0  0  0  0  0  0  0  0  0  # atno 16509 bound_to 11538
   13.4704    7.5464   34.1636 LP  0  0  0  0  0  0  0  0  0  0  0  0  # atno 16510 bound_to 11538
   10.4892    4.5756   32.5981 LP  0  0  0  0  0  0  0  0  0  0  0  0  # atno 16511 bound_to 11318
   11.6112    3.2826   32.3345 LP  0  0  0  0  0  0  0  0  0  0  0  0  # atno 16512 bound_to 11318
   11.3555    4.3593   30.4988 LP  0  0  0  0  0  0  0  0  0  0  0  0  # atno 16513 bound_to 11358
   10.0302    3.2089   28.9306 LP  0  0  0  0  0  0  0  0  0  0  0  0  # atno 16514 bound_to 11416
    9.8415    3.1824   32.9007 LP  0  0  0  0  0  0  0  0  0  0  0  0  # atno 16515 bound_to 11527
    3.9622   -0.3826   34.5830 LP  0  0  0  0  0  0  0  0  0  0  0  0  # atno 16520 bound_to 11590
    5.0107   -1.6453   35.1365 LP  0  0  0  0  0  0  0  0  0  0  0  0  # atno 16521 bound_to 11590
    3.8237   -1.0324   36.2992 LP  0  0  0  0  0  0  0  0  0  0  0  0  # atno 16522 bound_to 11800
    1.6941   -0.5229   39.2330 LP  0  0  0  0  0  0  0  0  0  0  0  0  # atno 16523 bound_to 11756
    2.7009   -1.8572   39.6870 LP  0  0  0  0  0  0  0  0  0  0  0  0  # atno 16524 bound_to 11756
    8.4070   -0.8856   30.8690 LP  0  0  0  0  0  0  0  0  0  0  0  0  # atno 16543 bound_to 11419
    8.2160    0.1084   32.2746 LP  0  0  0  0  0  0  0  0  0  0  0  0  # atno 16544 bound_to 11419
    7.1482   -0.8543   32.7629 LP  0  0  0  0  0  0  0  0  0  0  0  0  # atno 16545 bound_to 11632
   10.2884    0.4761   30.7054 LP  0  0  0  0  0  0  0  0  0  0  0  0  # atno 16546 bound_to 11466
    8.3465    0.3140   34.3251 LP  0  0  0  0  0  0  0  0  0  0  0  0  # atno 16547 bound_to 11469
    9.8452    0.0589   35.1551 LP  0  0  0  0  0  0  0  0  0  0  0  0  # atno 16548 bound_to 11469
    5.9836    0.7869   37.1738 LP  0  0  0  0  0  0  0  0  0  0  0  0  # atno 16549 bound_to 11753
    7.4080   -0.4083   35.7216 LP  0  0  0  0  0  0  0  0  0  0  0  0  # atno 16550 bound_to 11697
   -2.7106   11.3859   12.7750 LP  0  0  0  0  0  0  0  0  0  0  0  0  # atno 16565 bound_to 11526
   -3.4600   11.5963   11.3394 LP  0  0  0  0  0  0  0  0  0  0  0  0  # atno 16566 bound_to 11526
    4.3030   14.0447   13.1294 LP  0  0  0  0  0  0  0  0  0  0  0  0  # atno 16567 bound_to 9334
    5.2013   14.5197   14.4077 LP  0  0  0  0  0  0  0  0  0  0  0  0  # atno 16568 bound_to 9334
   12.7975    1.9043   29.3838 LP  0  0  0  0  0  0  0  0  0  0  0  0  # atno 16571 bound_to 11269
   11.5157    3.0687   29.4206 LP  0  0  0  0  0  0  0  0  0  0  0  0  # atno 16572 bound_to 11269
   16.1791    9.2163   17.8702 LP  0  0  0  0  0  0  0  0  0  0  0  0  # atno 16581 bound_to 15454
   15.5657    8.0516   18.8365 LP  0  0  0  0  0  0  0  0  0  0  0  0  # atno 16582 bound_to 15454
   17.0822   12.0808   24.1510 LP  0  0  0  0  0  0  0  0  0  0  0  0  # atno 16589 bound_to 5760
   16.7217   12.7364   25.6025 LP  0  0  0  0  0  0  0  0  0  0  0  0  # atno 16590 bound_to 5760
   14.7263    5.3147   10.9067 LP  0  0  0  0  0  0  0  0  0  0  0  0  # atno 16601 bound_to 1810
   16.3337    5.4234   11.1731 LP  0  0  0  0  0  0  0  0  0  0  0  0  # atno 16602 bound_to 1810
   14.4136   19.4004   15.1476 LP  0  0  0  0  0  0  0  0  0  0  0  0  # atno 16609 bound_to 8455
   15.7236   18.4263   15.1067 LP  0  0  0  0  0  0  0  0  0  0  0  0  # atno 16610 bound_to 8455
    6.0450    9.4657    9.2858 LP  0  0  0  0  0  0  0  0  0  0  0  0  # atno 16611 bound_to 1872
    7.0619    8.4066   10.0007 LP  0  0  0  0  0  0  0  0  0  0  0  0  # atno 16612 bound_to 1872
    3.4687   17.9611   23.2006 LP  0  0  0  0  0  0  0  0  0  0  0  0  # atno 16621 bound_to 9468
    4.8731   18.3637   22.4712 LP  0  0  0  0  0  0  0  0  0  0  0  0  # atno 16622 bound_to 9468

> <Gold.Score>
     Fitness  S(hb_ext) S(vdw_ext)  S(hb_int)    S(int)      intcor
     34.30       2.06      25.77       0.00      -3.20      -0.76

> <Gold.Goldscore.Fitness>
34.2976

> <Gold.Goldscore.Internal.Vdw>
-3.2670

> <Gold.Goldscore.Internal.Torsion>
-0.6897

> <Gold.Goldscore.External.Vdw>
25.7711

> <Gold.Goldscore.Internal.HBond>
0.0000

> <Gold.Goldscore.External.HBond>
2.0606

> <Gold.Goldscore.Internal.Correction>
-0.7585

> <Gold.Goldscore.Hbonds>
donor molecule, donor type, donor heavy atom, donor atom, acceptor molecule, acceptor atom, score
      P1  H 15454 15483       L1    17  1.00
      P1  H  1804  1839       L1    17  0.03

> <Gold.Goldscore.Internal.Vdw.Weighted>
-3.2670

> <Gold.Goldscore.Internal.Torsion.Weighted>
-0.6897

> <Gold.Goldscore.External.Vdw.Weighted>
35.4352

> <Gold.Goldscore.Internal.HBond.Weighted>
0.0000

> <Gold.Goldscore.External.HBond.Weighted>
2.0606

> <Gold.Goldscore.Internal.Correction.Weighted>
-0.7585

> <Gold.Rescore>
     Score     S(PLP)   S(hbond)     S(cho)   S(metal)  DE(clash)   DE(tors)     intcor
     37.15     -35.72       1.00       0.00       0.00       1.44       0.06       ----

> <Gold.PLP.Fitness>
37.1544

> <Gold.PLP.PLP>
-35.7198

> <Gold.PLP.part.hbond>
-3.0000

> <Gold.PLP.part.metal>
0.0000

> <Gold.PLP.part.buried>
-3.2538

> <Gold.PLP.part.nonpolar>
-30.2044

> <Gold.PLP.part.repulsive>
0.5897

> <Gold.PLP.ligand.clash>
1.4427

> <Gold.PLP.ligand.torsion>
0.0614

> <Gold.PLP.Chemscore.Hbond>
1.0000

> <Gold.PLP.Chemscore.CHOScore>
0.0000

> <Gold.PLP.Chemscore.Metal>
0.0000

> <Gold.Chemscore.Hbonds>
donor molecule, donor type, donor heavy atom, donor atom, acceptor molecule, acceptor atom, score
      P1  H 15454 15483       L1    17  0.88

> <Gold.PLP.Chemscore.Internal.Correction>
   9.000000E+99

