#       Name:                CT1002167954
#       Creating user name   hitesit
#       Creation time:       Sun Apr 16 20:19:05 2023


#       File generated by GOLD software.
#

@<TRIPOS>MOLECULE
CT1002167954|ligand_prepared|mol2|1|dock7
    29    30     1
SMALL
NO_CHARGES


@<TRIPOS>ATOM
      1 C1          12.9600  13.0501  14.0472 C.3            1 RES1               0.0000
      2 C2          13.5569  12.6557  12.6808 C.ar           1 RES1               0.0000
      3 C3          11.6418  13.7590  13.7503 C.2            1 RES1               0.0000
      4 C4          12.8057  11.7541  14.8354 C.2            1 RES1               0.0000
      5 C5          13.8571  14.0050  14.8687 C.3            1 RES1               0.0000
      6 C6          14.8777  12.2287  12.5812 C.ar           1 RES1               0.0000
      7 C7          12.7997  12.7112  11.5136 C.ar           1 RES1               0.0000
      8 N8          10.4874  13.0802  14.0082 N.am           1 RES1               0.0000
      9 O9          11.6160  14.8813  13.2604 O.2            1 RES1               0.0000
     10 N10         11.5373  11.3375  15.1442 N.am           1 RES1               0.0000
     11 O11         13.7704  11.0813  15.1774 O.2            1 RES1               0.0000
     12 C12         14.4852  15.1174  14.0440 C.3            1 RES1               0.0000
     13 C13         15.4210  11.8672  11.3595 C.ar           1 RES1               0.0000
     14 C14         13.3451  12.3495  10.2929 C.ar           1 RES1               0.0000
     15 C15         10.3700  11.9258  14.7398 C.2            1 RES1               0.0000
     16 C16         14.6551  11.9270  10.2147 C.ar           1 RES1               0.0000
     17 O17          9.2668  11.4611  15.0120 O.2            1 RES1               0.0000
     18 H18         13.2551  14.4548  15.6679 H              1 RES1               0.0000
     19 H19         14.6567  13.4203  15.3399 H              1 RES1               0.0000
     20 H20         15.4964  12.1775  13.4709 H              1 RES1               0.0000
     21 H21         11.7672  13.0416  11.5510 H              1 RES1               0.0000
     22 H22          9.6323  13.4666  13.6212 H              1 RES1               0.0000
     23 H23         11.4558  10.5125  15.7299 H              1 RES1               0.0000
     24 H24         15.1043  15.7581  14.6685 H              1 RES1               0.0000
     25 H25         15.1113  14.7062  13.2549 H              1 RES1               0.0000
     26 H26         13.7180  15.7346  13.5810 H              1 RES1               0.0000
     27 H27         16.4529  11.5367  11.3031 H              1 RES1               0.0000
     28 H28         12.7389  12.3987   9.3944 H              1 RES1               0.0000
     29 H29         15.0809  11.6434   9.2579 H              1 RES1               0.0000
@<TRIPOS>BOND
    1    1    2 1     
    2    1    3 1     
    3    1    4 1     
    4    1    5 1     
    5    2    6 ar    
    6    2    7 ar    
    7    3    8 1     
    8    3    9 2     
    9    4   10 1     
   10    4   11 2     
   11    5   12 1     
   12    5   18 1     
   13    5   19 1     
   14    6   13 ar    
   15    6   20 1     
   16    7   14 ar    
   17    7   21 1     
   18    8   15 1     
   19    8   22 1     
   20   10   15 1     
   21   10   23 1     
   22   12   24 1     
   23   12   25 1     
   24   12   26 1     
   25   13   16 ar    
   26   13   27 1     
   27   14   16 ar    
   28   14   28 1     
   29   15   17 2     
   30   16   29 1     
@<TRIPOS>SUBSTRUCTURE
      1 RES1           1
@<TRIPOS>SET
DONOR_HYDROGENS      STATIC     ATOMS    <user>   **** ""
2 22 23
ATOM$RED        STATIC     ATOMS    COLORGROUP SYSTEM
2 22 23
@<TRIPOS>COMMENT
> <Gold.Version>
2022.3.0

> <Gold.Id.Protein>
unknown|3mvj_clean|pdb

> <Gold.Protein.RotatedTorsions>
[ 9935 9915 9914 9913 ] final  110.43 input   59.98 | X-H torsion
[ 10977 10935 10934 10932 ] final   19.36 input   60.03 | X-H torsion
[ 9832 9816 9817 9818 ] final   29.30 input   89.09 | X-H torsion
[ 9883 9871 9872 9873 ] final    2.92 input -126.12 | X-H torsion
[ 9925 9907 9908 9909 ] final  128.37 input  109.17 | X-H torsion
[ 9887 9876 9875 9872 ] final  159.28 input   59.96 | X-H torsion
[ 10737 10695 10694 10692 ] final  109.32 input   59.99 | X-H torsion
[ 11660 11631 11630 11629 ] final -143.72 input   60.02 | X-H torsion
[ 9775 9759 9760 9761 ] final   15.12 input  126.36 | X-H torsion
[ 11617 11587 11588 11589 ] final   55.24 input  114.14 | X-H torsion
[ 11577 11538 11537 11535 ] final  171.93 input   60.01 | X-H torsion
[ 11396 11358 11359 11360 ] final  -43.34 input   98.08 | X-H torsion
[ 11450 11416 11417 11418 ] final  100.55 input  102.35 | X-H torsion
[ 11569 11527 11528 11529 ] final  -94.49 input  127.83 | X-H torsion
[ 11822 11800 11801 11802 ] final -105.91 input  127.47 | X-H torsion
[ 11676 11632 11633 11634 ] final -146.54 input  113.96 | X-H torsion
[ 11504 11466 11467 11468 ] final   20.45 input  126.08 | X-H torsion
[ 11785 11753 11754 11755 ] final  113.07 input  105.73 | X-H torsion
[ 11735 11697 11698 11699 ] final  -18.71 input  116.95 | X-H torsion
[ 11559 11526 11525 11523 ] final -154.98 input   60.00 | X-H torsion
[ 9355 9334 9332 9329 ] final  -31.23 input   60.01 | X-H torsion
[ 7755 7713 7712 7711 ] final  135.03 input   60.03 | X-H torsion
[ 15483 15454 15453 15451 ] final  173.10 input   59.98 | X-H torsion
[ 5786 5760 5759 5756 ] final   14.09 input   59.99 | X-H torsion
[ 1845 1810 1808 1805 ] final  111.95 input   60.00 | X-H torsion
[ 8483 8455 8453 8450 ] final  103.93 input   60.02 | X-H torsion
[ 1888 1872 1871 1868 ] final  -47.76 input   59.98 | X-H torsion
[ 9501 9468 9467 9465 ] final -140.12 input   60.02 | X-H torsion
[ 3466 3411 3410 3409 ] final  -58.92 input   59.97 | X-H torsion
[ 16458 9819 9818 9817 ] final  149.95 input    0.00 | X-H torsion
[ 16464 9874 9873 9872 ] final -153.89 input    0.00 | X-H torsion
[ 16467 9762 9761 9760 ] final   78.25 input    0.00 | X-H torsion
[ 16495 9617 9616 9615 ] final  141.28 input    0.00 | X-H torsion
[ 16497 9705 9704 9703 ] final   85.82 input    0.00 | X-H torsion
[ 16500 11530 11529 11528 ] final -130.75 input    0.00 | X-H torsion
[ 16504 11361 11360 11359 ] final    8.19 input    0.00 | X-H torsion
[ 16511 11318 11317 11316 ] final  -23.85 input    0.00 | X-H torsion
[ 16520 11590 11589 11588 ] final -176.08 input    0.00 | X-H torsion
[ 16523 11756 11755 11754 ] final  -60.72 input    0.00 | X-H torsion
[ 16543 11419 11418 11417 ] final  -59.31 input   -0.00 | X-H torsion
[ 16547 11469 11468 11467 ] final  165.45 input    0.00 | X-H torsion
[ 16571 11269 11268 11267 ] final   60.32 input   -0.00 | X-H torsion

> <Gold.Protein.ActiveResidues>
 THR48   LEU49   GLY50   THR51   GLY52   SER53   PHE54   GLY55   ARG56   VAL57  
 LYS78   LYS81   LEU82   LYS83   GLN84   HIS87   GLU127  PHE129  SER130  LEU132 
 ARG133  ARG134  ILE135  GLY136  ARG137  ARG165  ASP166  LEU167  LYS168  PRO169 
 GLU170  ASN171  LEU172  LEU173  THR183  ASP184  GLY186  PHE187  TPO197  LEU198 
 CYS199  GLY200  THR201  PRO202  GLU203  TYR204  LEU205  PRO207  ILE209  ILE210 
 LEU211  SER212  LYS213  VAL226  LEU227  TYR229  GLU230  ALA233  GLY234  TYR235 
 PRO236  PRO237  PHE238  PHE239  ALA240  ASP241  GLN242  PRO243  ILE244  GLN245 
 ILE246  TYR247  GLU248  LYS249  ILE250  VAL251  SER252  ARG256  PHE257  PRO258 
 SER259  PHE327  ASP328  TYR330 

> <Gold.Protein.RotatedAtoms>
   16.3756    5.5105   11.1364 H   0  0  0  0  0  0  0  0  0  0  0  0  # atno 1845 bound_to 1810
    6.5635    7.7472    8.9813 H   0  0  0  0  0  0  0  0  0  0  0  0  # atno 1888 bound_to 1872
    1.7687   11.1889   -6.0287 H   0  0  0  0  0  0  0  0  0  0  0  0  # atno 3466 bound_to 3411
    0.1548   10.9314   -6.3061 H   0  0  0  0  0  0  0  0  0  0  0  0  # atno 3467 bound_to 3411
    0.8465   12.3804   -6.7181 H   0  0  0  0  0  0  0  0  0  0  0  0  # atno 3468 bound_to 3411
   16.0927   13.2653   25.2216 H   0  0  0  0  0  0  0  0  0  0  0  0  # atno 5786 bound_to 5760
    6.6975   13.4055   14.0252 H   0  0  0  0  0  0  0  0  0  0  0  0  # atno 7755 bound_to 7713
    7.8475   12.7064   14.9924 H   0  0  0  0  0  0  0  0  0  0  0  0  # atno 7756 bound_to 7713
    6.3403   13.0328   15.6001 H   0  0  0  0  0  0  0  0  0  0  0  0  # atno 7757 bound_to 7713
   14.8711   18.1100   14.0166 H   0  0  0  0  0  0  0  0  0  0  0  0  # atno 8483 bound_to 8455
    4.2307   14.1508   13.0695 H   0  0  0  0  0  0  0  0  0  0  0  0  # atno 9355 bound_to 9334
    3.7828   18.4511   23.0621 H   0  0  0  0  0  0  0  0  0  0  0  0  # atno 9501 bound_to 9468
    6.9945    7.6126   41.5544 H   0  0  0  0  0  0  0  0  0  0  0  0  # atno 9775 bound_to 9759
    5.4793    8.0436   40.9585 H   0  0  0  0  0  0  0  0  0  0  0  0  # atno 9832 bound_to 9816
    3.8528    9.5270   41.6130 H   0  0  0  0  0  0  0  0  0  0  0  0  # atno 9883 bound_to 9871
    4.5995   13.3876   39.3616 H   0  0  0  0  0  0  0  0  0  0  0  0  # atno 9887 bound_to 9876
    3.3613    9.5450   43.4190 H   0  0  0  0  0  0  0  0  0  0  0  0  # atno 9925 bound_to 9907
   -0.9022    7.3042   41.9141 H   0  0  0  0  0  0  0  0  0  0  0  0  # atno 9935 bound_to 9915
   -2.1659    6.6123   42.7342 H   0  0  0  0  0  0  0  0  0  0  0  0  # atno 9936 bound_to 9915
   -1.4524    7.9887   43.3202 H   0  0  0  0  0  0  0  0  0  0  0  0  # atno 9937 bound_to 9915
   -4.2172   17.3671   31.2816 H   0  0  0  0  0  0  0  0  0  0  0  0  # atno 10737 bound_to 10695
   -3.6450   14.5586   33.0297 H   0  0  0  0  0  0  0  0  0  0  0  0  # atno 10977 bound_to 10935
   11.3812    4.3295   30.4462 H   0  0  0  0  0  0  0  0  0  0  0  0  # atno 11396 bound_to 11358
   10.2791    3.1115   29.1572 H   0  0  0  0  0  0  0  0  0  0  0  0  # atno 11450 bound_to 11416
    9.8229    1.9148   31.2394 H   0  0  0  0  0  0  0  0  0  0  0  0  # atno 11504 bound_to 11466
   -3.6496   10.7871   11.2661 H   0  0  0  0  0  0  0  0  0  0  0  0  # atno 11559 bound_to 11526
   10.2483    1.9539   33.9726 H   0  0  0  0  0  0  0  0  0  0  0  0  # atno 11569 bound_to 11527
   12.5710    8.7702   33.9647 H   0  0  0  0  0  0  0  0  0  0  0  0  # atno 11577 bound_to 11538
    7.7281    1.3608   33.0456 H   0  0  0  0  0  0  0  0  0  0  0  0  # atno 11617 bound_to 11587
   -9.2818    7.9797   26.0321 H   0  0  0  0  0  0  0  0  0  0  0  0  # atno 11660 bound_to 11631
   -7.8901    8.7671   25.5976 H   0  0  0  0  0  0  0  0  0  0  0  0  # atno 11661 bound_to 11631
   -8.6689    9.1768   27.0015 H   0  0  0  0  0  0  0  0  0  0  0  0  # atno 11662 bound_to 11631
    6.4140   -0.9331   32.8543 H   0  0  0  0  0  0  0  0  0  0  0  0  # atno 11676 bound_to 11632
    6.8234   -1.4718   36.0271 H   0  0  0  0  0  0  0  0  0  0  0  0  # atno 11735 bound_to 11697
    5.8568    0.6409   36.9643 H   0  0  0  0  0  0  0  0  0  0  0  0  # atno 11785 bound_to 11753
    2.9722   -0.5983   37.3090 H   0  0  0  0  0  0  0  0  0  0  0  0  # atno 11822 bound_to 11800
   14.7513    8.2269   17.6353 H   0  0  0  0  0  0  0  0  0  0  0  0  # atno 15483 bound_to 15454
    2.0206   10.5634   41.8645 LP  0  0  0  0  0  0  0  0  0  0  0  0  # atno 16458 bound_to 9819
    1.5445    9.8958   40.3388 LP  0  0  0  0  0  0  0  0  0  0  0  0  # atno 16459 bound_to 9819
   -2.4197   15.4160   33.6714 LP  0  0  0  0  0  0  0  0  0  0  0  0  # atno 16460 bound_to 10935
   -2.7260   13.9021   34.2013 LP  0  0  0  0  0  0  0  0  0  0  0  0  # atno 16461 bound_to 10935
    5.3517    7.4046   39.3382 LP  0  0  0  0  0  0  0  0  0  0  0  0  # atno 16462 bound_to 9816
    5.1104   10.2389   40.6291 LP  0  0  0  0  0  0  0  0  0  0  0  0  # atno 16463 bound_to 9871
    2.2774   12.6380   44.4791 LP  0  0  0  0  0  0  0  0  0  0  0  0  # atno 16464 bound_to 9874
    2.4490   13.2268   42.8593 LP  0  0  0  0  0  0  0  0  0  0  0  0  # atno 16465 bound_to 9874
    3.4562   11.2813   43.5957 LP  0  0  0  0  0  0  0  0  0  0  0  0  # atno 16466 bound_to 9907
    5.5777    8.9102   37.4574 LP  0  0  0  0  0  0  0  0  0  0  0  0  # atno 16467 bound_to 9762
    5.7318   10.1267   38.6807 LP  0  0  0  0  0  0  0  0  0  0  0  0  # atno 16468 bound_to 9762
    5.2630   11.9792   39.8350 LP  0  0  0  0  0  0  0  0  0  0  0  0  # atno 16469 bound_to 9876
    5.7534   13.3834   40.5090 LP  0  0  0  0  0  0  0  0  0  0  0  0  # atno 16470 bound_to 9876
   -3.9136   16.0973   30.3112 LP  0  0  0  0  0  0  0  0  0  0  0  0  # atno 16477 bound_to 10695
   -5.1640   17.0962   29.9867 LP  0  0  0  0  0  0  0  0  0  0  0  0  # atno 16478 bound_to 10695
    4.5995    5.8492   41.9634 LP  0  0  0  0  0  0  0  0  0  0  0  0  # atno 16495 bound_to 9617
    5.8056    5.3874   40.8092 LP  0  0  0  0  0  0  0  0  0  0  0  0  # atno 16496 bound_to 9617
    8.1674   10.2829   40.9369 LP  0  0  0  0  0  0  0  0  0  0  0  0  # atno 16497 bound_to 9705
    6.5033    9.9660   41.2982 LP  0  0  0  0  0  0  0  0  0  0  0  0  # atno 16498 bound_to 9705
    8.6142    7.2168   41.0259 LP  0  0  0  0  0  0  0  0  0  0  0  0  # atno 16499 bound_to 9759
    6.3160    1.0827   35.7525 LP  0  0  0  0  0  0  0  0  0  0  0  0  # atno 16500 bound_to 11530
    6.3683    2.7683   36.1474 LP  0  0  0  0  0  0  0  0  0  0  0  0  # atno 16501 bound_to 11530
    7.2844    4.2128   31.4853 LP  0  0  0  0  0  0  0  0  0  0  0  0  # atno 16504 bound_to 11361
    7.4715    2.5409   31.0731 LP  0  0  0  0  0  0  0  0  0  0  0  0  # atno 16505 bound_to 11361
    6.7874    2.6879   33.6925 LP  0  0  0  0  0  0  0  0  0  0  0  0  # atno 16508 bound_to 11587
   13.5052    7.4883   34.3270 LP  0  0  0  0  0  0  0  0  0  0  0  0  # atno 16509 bound_to 11538
   12.8036    8.3545   35.5204 LP  0  0  0  0  0  0  0  0  0  0  0  0  # atno 16510 bound_to 11538
   11.8304    3.5699   32.5768 LP  0  0  0  0  0  0  0  0  0  0  0  0  # atno 16511 bound_to 11318
   10.2699    4.2883   32.3558 LP  0  0  0  0  0  0  0  0  0  0  0  0  # atno 16512 bound_to 11318
   11.1913    5.7318   29.4363 LP  0  0  0  0  0  0  0  0  0  0  0  0  # atno 16513 bound_to 11358
    8.9238    3.5427   30.1706 LP  0  0  0  0  0  0  0  0  0  0  0  0  # atno 16514 bound_to 11416
    9.5306    2.9052   32.7000 LP  0  0  0  0  0  0  0  0  0  0  0  0  # atno 16515 bound_to 11527
    4.9937   -1.6753   35.0949 LP  0  0  0  0  0  0  0  0  0  0  0  0  # atno 16520 bound_to 11590
    3.9791   -0.3526   34.6246 LP  0  0  0  0  0  0  0  0  0  0  0  0  # atno 16521 bound_to 11590
    4.3612   -1.6092   36.9869 LP  0  0  0  0  0  0  0  0  0  0  0  0  # atno 16522 bound_to 11800
    2.8661   -1.3244   39.9938 LP  0  0  0  0  0  0  0  0  0  0  0  0  # atno 16523 bound_to 11756
    1.5289   -1.0556   38.9262 LP  0  0  0  0  0  0  0  0  0  0  0  0  # atno 16524 bound_to 11756
    7.6723    0.1928   31.6302 LP  0  0  0  0  0  0  0  0  0  0  0  0  # atno 16543 bound_to 11419
    8.9507   -0.9700   31.5134 LP  0  0  0  0  0  0  0  0  0  0  0  0  # atno 16544 bound_to 11419
    7.2787   -0.1749   34.1672 LP  0  0  0  0  0  0  0  0  0  0  0  0  # atno 16545 bound_to 11632
   10.9185    0.7254   30.5666 LP  0  0  0  0  0  0  0  0  0  0  0  0  # atno 16546 bound_to 11466
    8.7840    0.8404   35.2145 LP  0  0  0  0  0  0  0  0  0  0  0  0  # atno 16547 bound_to 11469
    9.4077   -0.4675   34.2657 LP  0  0  0  0  0  0  0  0  0  0  0  0  # atno 16548 bound_to 11469
    6.1489   -0.5725   38.1876 LP  0  0  0  0  0  0  0  0  0  0  0  0  # atno 16549 bound_to 11753
    8.4786   -0.9512   35.7616 LP  0  0  0  0  0  0  0  0  0  0  0  0  # atno 16550 bound_to 11697
   -2.9493   10.3736   12.6758 LP  0  0  0  0  0  0  0  0  0  0  0  0  # atno 16565 bound_to 11526
   -2.9378   11.9297   12.1806 LP  0  0  0  0  0  0  0  0  0  0  0  0  # atno 16566 bound_to 11526
    5.1928   14.3857   14.3612 LP  0  0  0  0  0  0  0  0  0  0  0  0  # atno 16567 bound_to 9334
    4.4053   15.6469   13.6860 LP  0  0  0  0  0  0  0  0  0  0  0  0  # atno 16568 bound_to 9334
   12.7531    1.8746   29.2619 LP  0  0  0  0  0  0  0  0  0  0  0  0  # atno 16571 bound_to 11269
   11.5600    3.0984   29.5425 LP  0  0  0  0  0  0  0  0  0  0  0  0  # atno 16572 bound_to 11269
   16.0155    9.2510   17.6306 LP  0  0  0  0  0  0  0  0  0  0  0  0  # atno 16581 bound_to 15454
   15.8040    8.2160   18.8758 LP  0  0  0  0  0  0  0  0  0  0  0  0  # atno 16582 bound_to 15454
   16.4050   12.6553   23.7459 LP  0  0  0  0  0  0  0  0  0  0  0  0  # atno 16589 bound_to 5760
   17.2350   12.1199   25.0464 LP  0  0  0  0  0  0  0  0  0  0  0  0  # atno 16590 bound_to 5760
   15.4563    6.5988   10.3492 LP  0  0  0  0  0  0  0  0  0  0  0  0  # atno 16601 bound_to 1810
   14.7802    5.2424   10.9573 LP  0  0  0  0  0  0  0  0  0  0  0  0  # atno 16602 bound_to 1810
   14.1993   19.3196   14.8729 LP  0  0  0  0  0  0  0  0  0  0  0  0  # atno 16609 bound_to 8455
   15.6320   18.6863   15.3345 LP  0  0  0  0  0  0  0  0  0  0  0  0  # atno 16610 bound_to 8455
    5.8518    9.2077    8.8905 LP  0  0  0  0  0  0  0  0  0  0  0  0  # atno 16611 bound_to 1872
    6.9172    8.8883   10.0861 LP  0  0  0  0  0  0  0  0  0  0  0  0  # atno 16612 bound_to 1872
    5.0867   17.8239   22.3181 LP  0  0  0  0  0  0  0  0  0  0  0  0  # atno 16621 bound_to 9468
    3.9126   16.8393   22.8827 LP  0  0  0  0  0  0  0  0  0  0  0  0  # atno 16622 bound_to 9468

> <Gold.Score>
     Fitness  S(hb_ext) S(vdw_ext)  S(hb_int)    S(int)      intcor
     36.87       6.00      24.67       0.00      -3.05      -0.76

> <Gold.Goldscore.Fitness>
36.8703

> <Gold.Goldscore.Internal.Vdw>
-2.9785

> <Gold.Goldscore.Internal.Torsion>
-0.8310

> <Gold.Goldscore.External.Vdw>
24.6700

> <Gold.Goldscore.Internal.HBond>
0.0000

> <Gold.Goldscore.External.HBond>
6.0000

> <Gold.Goldscore.Internal.Correction>
-0.7585

> <Gold.Goldscore.Hbonds>
donor molecule, donor type, donor heavy atom, donor atom, acceptor molecule, acceptor atom, score
      P1  H  7713  7756       L1    17  1.00

> <Gold.Goldscore.Internal.Vdw.Weighted>
-2.9785

> <Gold.Goldscore.Internal.Torsion.Weighted>
-0.8310

> <Gold.Goldscore.External.Vdw.Weighted>
33.9213

> <Gold.Goldscore.Internal.HBond.Weighted>
0.0000

> <Gold.Goldscore.External.HBond.Weighted>
6.0000

> <Gold.Goldscore.Internal.Correction.Weighted>
-0.7585

> <Gold.Rescore>
     Score     S(PLP)   S(hbond)     S(cho)   S(metal)  DE(clash)   DE(tors)     intcor
     21.07     -20.01       0.99       0.00       0.00       0.93       0.49       ----

> <Gold.PLP.Fitness>
21.0735

> <Gold.PLP.PLP>
-20.0107

> <Gold.PLP.part.hbond>
-0.9871

> <Gold.PLP.part.metal>
0.0000

> <Gold.PLP.part.buried>
-0.5747

> <Gold.PLP.part.nonpolar>
-27.9048

> <Gold.PLP.part.repulsive>
9.7614

> <Gold.PLP.ligand.clash>
0.9317

> <Gold.PLP.ligand.torsion>
0.4896

> <Gold.PLP.Chemscore.Hbond>
0.9913

> <Gold.PLP.Chemscore.CHOScore>
0.0000

> <Gold.PLP.Chemscore.Metal>
0.0000

> <Gold.Chemscore.Hbonds>
donor molecule, donor type, donor heavy atom, donor atom, acceptor molecule, acceptor atom, score
      P1  H  7713  7756       L1    17  1.00

> <Gold.PLP.Chemscore.Internal.Correction>
   9.000000E+99

