#       Name:                CT1002167954
#       Creating user name   hitesit
#       Creation time:       Sun Apr 16 20:21:17 2023


#       File generated by GOLD software.
#

@<TRIPOS>MOLECULE
CT1002167954|ligand_prepared|mol2|1|dock6
    29    30     1
SMALL
NO_CHARGES


@<TRIPOS>ATOM
      1 C1         143.9048 131.5361 146.1386 C.3            1 RES1               0.0000
      2 C2         143.2203 130.1747 146.3770 C.ar           1 RES1               0.0000
      3 C3         143.4812 131.9904 144.7448 C.2            1 RES1               0.0000
      4 C4         143.4333 132.4531 147.2618 C.2            1 RES1               0.0000
      5 C5         145.4493 131.4760 146.1874 C.3            1 RES1               0.0000
      6 C6         143.6097 129.0499 145.6559 C.ar           1 RES1               0.0000
      7 C7         142.2018 130.0276 147.3148 C.ar           1 RES1               0.0000
      8 N8         142.5703 133.0017 144.6595 N.am           1 RES1               0.0000
      9 O9         143.9101 131.4430 143.7365 O.2            1 RES1               0.0000
     10 N10        142.6559 133.5308 146.9273 N.am           1 RES1               0.0000
     11 O11        143.7143 132.2427 148.4353 O.2            1 RES1               0.0000
     12 C12        145.9944 130.6404 147.3348 C.3            1 RES1               0.0000
     13 C13        143.0048 127.8219 145.8667 C.ar           1 RES1               0.0000
     14 C14        141.5981 128.7987 147.5239 C.ar           1 RES1               0.0000
     15 C15        142.1775 133.8293 145.6806 C.2            1 RES1               0.0000
     16 C16        141.9991 127.6953 146.8010 C.ar           1 RES1               0.0000
     17 O17        141.4381 134.7860 145.4679 O.2            1 RES1               0.0000
     18 H18        145.8165 131.0592 145.2414 H              1 RES1               0.0000
     19 H19        145.8397 132.4972 146.2777 H              1 RES1               0.0000
     20 H20        144.3978 129.1308 144.9146 H              1 RES1               0.0000
     21 H21        141.8693 130.8822 147.8943 H              1 RES1               0.0000
     22 H22        142.1414 133.1570 143.7528 H              1 RES1               0.0000
     23 H23        142.4112 134.1697 147.6771 H              1 RES1               0.0000
     24 H24        147.0823 130.6316 147.3227 H              1 RES1               0.0000
     25 H25        145.6694 131.0416 148.2926 H              1 RES1               0.0000
     26 H26        145.6463 129.6121 147.2624 H              1 RES1               0.0000
     27 H27        143.3231 126.9569 145.2942 H              1 RES1               0.0000
     28 H28        140.8065 128.7038 148.2598 H              1 RES1               0.0000
     29 H29        141.5257 126.7332 146.9663 H              1 RES1               0.0000
@<TRIPOS>BOND
    1    1    2 1     
    2    1    3 1     
    3    1    4 1     
    4    1    5 1     
    5    2    6 ar    
    6    2    7 ar    
    7    3    8 1     
    8    3    9 2     
    9    4   10 1     
   10    4   11 2     
   11    5   12 1     
   12    5   18 1     
   13    5   19 1     
   14    6   13 ar    
   15    6   20 1     
   16    7   14 ar    
   17    7   21 1     
   18    8   15 1     
   19    8   22 1     
   20   10   15 1     
   21   10   23 1     
   22   12   24 1     
   23   12   25 1     
   24   12   26 1     
   25   13   16 ar    
   26   13   27 1     
   27   14   16 ar    
   28   14   28 1     
   29   15   17 2     
   30   16   29 1     
@<TRIPOS>SUBSTRUCTURE
      1 RES1           1
@<TRIPOS>SET
DONOR_HYDROGENS      STATIC     ATOMS    <user>   **** ""
2 22 23
ATOM$RED        STATIC     ATOMS    COLORGROUP SYSTEM
2 22 23
@<TRIPOS>COMMENT
> <Gold.Version>
2022.3.0

> <Gold.Id.Protein>
unknown|7rmi_cavity_clean|pdb

> <Gold.Protein.RotatedTorsions>
[  882  862  863  864 ] final   94.43 input   59.67 | X-H torsion
[ 4344 4325 4326 4327 ] final  -15.50 input   58.17 | X-H torsion
[ 1839 1834 1833 1830 ] final   11.33 input   59.99 | X-H torsion
[  114  103  104  105 ] final  130.27 input  112.99 | X-H torsion
[  166  159  158  157 ] final  -64.00 input   59.97 | X-H torsion
[ 4684 4679 4678 4675 ] final   95.59 input   59.98 | X-H torsion
[ 8046 8035 8034 8033 ] final   52.23 input   59.99 | X-H torsion
[ 2742 2733 2732 2730 ] final   -0.00 input   60.00 | X-H torsion
[ 3268 3259 3258 3256 ] final -168.42 input   59.98 | X-H torsion
[  210  204  203  201 ] final -119.92 input   60.02 | X-H torsion
[ 1184 1170 1171 1172 ] final -100.59 input   67.97 | X-H torsion
[  241  225  226  227 ] final   40.86 input   51.53 | X-H torsion
[ 2774 2765 2764 2762 ] final  -74.98 input   60.03 | X-H torsion
[ 3932 3927 3928 3929 ] final  109.37 input   88.25 | X-H torsion
[  295  288  286  283 ] final -145.30 input   60.03 | X-H torsion
[  297  289  290  291 ] final  123.16 input  115.34 | X-H torsion
[ 4755 4748 4746 4743 ] final -102.98 input   60.02 | X-H torsion
[ 1228 1222 1220 1217 ] final   11.99 input   59.96 | X-H torsion
[   74   64   65   66 ] final -123.81 input  112.25 | X-H torsion
[ 3990 3972 3973 3974 ] final -140.81 input   60.58 | X-H torsion
[ 1778 1767 1768 1769 ] final  -84.71 input  110.17 | X-H torsion
[  348  334  335  336 ] final  115.03 input   81.54 | X-H torsion
[ 4022 4013 4012 4010 ] final -160.00 input   60.01 | X-H torsion
[ 1809 1802 1800 1797 ] final  -21.01 input   60.00 | X-H torsion
[ 14302  865  864  863 ] final -144.70 input   -0.00 | X-H torsion
[ 14307 4328 4327 4326 ] final  140.37 input   -0.00 | X-H torsion
[ 14336  106  105  104 ] final -132.79 input    0.00 | X-H torsion
[ 14422 1173 1172 1171 ] final  139.39 input   -0.00 | X-H torsion
[ 14429  228  227  226 ] final  -55.65 input    0.00 | X-H torsion
[ 14438 3930 3929 3928 ] final -170.01 input   -0.00 | X-H torsion
[ 14453  292  291  290 ] final    4.99 input    0.00 | X-H torsion
[ 14470   67   66   65 ] final  106.92 input   -0.00 | X-H torsion
[ 14478 3975 3974 3973 ] final   24.89 input   -0.00 | X-H torsion
[ 14485 1770 1769 1768 ] final -131.46 input   -0.00 | X-H torsion
[ 14496  337  336  335 ] final  -52.15 input   -0.00 | X-H torsion

> <Gold.Protein.ActiveResidues>
 GLU27   LEU30   GLN31   ASP33   LYS34   GLN35   VAL36   TYR37   ARG38   THR40  
 HIS41   ARG42   GLU209  HIS220  PHE222  GLN236  ASN239  ASP240  VAL241  THR242 
 ARG280  TRP281  LEU282  ARG283  THR284  ILE285  SER286  VAL287  ILE288  GLY355 
 ARG356  HIS357  TYR358  CYS359  TYR360  ASP381  ILE382  ILE383  GLN385  MET386 
 ASN387  LEU388  ARG389  GLU390  TYR391  VAL394  ALA56   LYS57   ILE58   TYR59  
 ALA60   MET61   LEU79   ILE80   ILE81   TRP82   ILE93   SER98   TRP99   VAL100 
 MET101  THR102  CYS103  GLY310  HIS311  ASP312  ASN313  TRP332  ASP333  SER334 
 PHE335  LYS337 

> <Gold.Protein.RotatedAtoms>
  114.9328  152.4928  181.5528 H   0  0  0  0  0  0  0  0  0  0  0  0  # atno 74   bound_to 64  
  109.1039  134.2401   96.6862 H   0  0  0  0  0  0  0  0  0  0  0  0  # atno 114  bound_to 103 
  144.7149  139.4489  140.6289 H   0  0  0  0  0  0  0  0  0  0  0  0  # atno 166  bound_to 159 
  144.9845  138.3965  141.8810 H   0  0  0  0  0  0  0  0  0  0  0  0  # atno 167  bound_to 159 
  143.7319  139.4791  141.9631 H   0  0  0  0  0  0  0  0  0  0  0  0  # atno 168  bound_to 159 
  144.0638  133.4107  149.7262 H   0  0  0  0  0  0  0  0  0  0  0  0  # atno 210  bound_to 204 
  131.1370  113.2272  179.6054 H   0  0  0  0  0  0  0  0  0  0  0  0  # atno 241  bound_to 225 
  153.6163  129.6522  147.3912 H   0  0  0  0  0  0  0  0  0  0  0  0  # atno 295  bound_to 288 
  113.6570  137.1224  109.1398 H   0  0  0  0  0  0  0  0  0  0  0  0  # atno 297  bound_to 289 
  114.6322  158.7943  159.1817 H   0  0  0  0  0  0  0  0  0  0  0  0  # atno 348  bound_to 334 
  130.8868  143.3576  184.0786 H   0  0  0  0  0  0  0  0  0  0  0  0  # atno 882  bound_to 862 
  131.7482  156.7785  180.3964 H   0  0  0  0  0  0  0  0  0  0  0  0  # atno 1184 bound_to 1170
  143.4286  126.7126  149.1719 H   0  0  0  0  0  0  0  0  0  0  0  0  # atno 1228 bound_to 1222
  125.2519  158.9287  170.4117 H   0  0  0  0  0  0  0  0  0  0  0  0  # atno 1778 bound_to 1767
  130.8353  127.1831  151.9158 H   0  0  0  0  0  0  0  0  0  0  0  0  # atno 1809 bound_to 1802
  138.5600  120.1293  150.6617 H   0  0  0  0  0  0  0  0  0  0  0  0  # atno 1839 bound_to 1834
  129.1851  115.8510  144.4839 H   0  0  0  0  0  0  0  0  0  0  0  0  # atno 2742 bound_to 2733
  137.4859  114.9637  144.4655 H   0  0  0  0  0  0  0  0  0  0  0  0  # atno 2774 bound_to 2765
  139.6808  129.5383  134.9061 H   0  0  0  0  0  0  0  0  0  0  0  0  # atno 3268 bound_to 3259
  114.5933  117.3609  167.1475 H   0  0  0  0  0  0  0  0  0  0  0  0  # atno 3932 bound_to 3927
  118.7964  114.4449  167.3632 H   0  0  0  0  0  0  0  0  0  0  0  0  # atno 3990 bound_to 3972
  137.7492  137.5510  164.9189 H   0  0  0  0  0  0  0  0  0  0  0  0  # atno 4022 bound_to 4013
  116.0520  119.8354  182.1749 H   0  0  0  0  0  0  0  0  0  0  0  0  # atno 4344 bound_to 4325
  148.9565  135.3986  155.0809 H   0  0  0  0  0  0  0  0  0  0  0  0  # atno 4684 bound_to 4679
  144.7765  144.8370  167.7196 H   0  0  0  0  0  0  0  0  0  0  0  0  # atno 4755 bound_to 4748
  132.4951  146.9149  149.3740 H   0  0  0  0  0  0  0  0  0  0  0  0  # atno 8046 bound_to 8035
  132.4956  147.2641  147.7539 H   0  0  0  0  0  0  0  0  0  0  0  0  # atno 8047 bound_to 8035
  133.5394  148.0531  148.7720 H   0  0  0  0  0  0  0  0  0  0  0  0  # atno 8048 bound_to 8035
  130.2035  142.5416  185.4698 LP  0  0  0  0  0  0  0  0  0  0  0  0  # atno 14301 bound_to 862 
  128.7791  141.0095  181.4609 LP  0  0  0  0  0  0  0  0  0  0  0  0  # atno 14302 bound_to 865 
  130.1672  141.6291  182.2911 LP  0  0  0  0  0  0  0  0  0  0  0  0  # atno 14303 bound_to 865 
  116.6890  120.9944  181.0240 LP  0  0  0  0  0  0  0  0  0  0  0  0  # atno 14306 bound_to 4325
  116.8875  117.1561  183.1828 LP  0  0  0  0  0  0  0  0  0  0  0  0  # atno 14307 bound_to 4328
  118.1886  118.1963  182.7083 LP  0  0  0  0  0  0  0  0  0  0  0  0  # atno 14308 bound_to 4328
  137.8173  120.4474  149.2492 LP  0  0  0  0  0  0  0  0  0  0  0  0  # atno 14311 bound_to 1834
  138.2540  118.9180  149.6191 LP  0  0  0  0  0  0  0  0  0  0  0  0  # atno 14312 bound_to 1834
  108.6144  134.5572   98.3326 LP  0  0  0  0  0  0  0  0  0  0  0  0  # atno 14335 bound_to 103 
  111.6829  135.0717  100.9617 LP  0  0  0  0  0  0  0  0  0  0  0  0  # atno 14336 bound_to 106 
  112.6150  133.9899   99.9815 LP  0  0  0  0  0  0  0  0  0  0  0  0  # atno 14337 bound_to 106 
  148.1504  135.4312  156.4946 LP  0  0  0  0  0  0  0  0  0  0  0  0  # atno 14376 bound_to 4679
  148.3913  134.0132  155.7215 LP  0  0  0  0  0  0  0  0  0  0  0  0  # atno 14377 bound_to 4679
  130.2733  116.5487  143.4955 LP  0  0  0  0  0  0  0  0  0  0  0  0  # atno 14397 bound_to 2733
  129.4337  117.4573  144.5615 LP  0  0  0  0  0  0  0  0  0  0  0  0  # atno 14398 bound_to 2733
  138.8853  130.7386  135.6640 LP  0  0  0  0  0  0  0  0  0  0  0  0  # atno 14401 bound_to 3259
  139.1605  130.8250  134.0567 LP  0  0  0  0  0  0  0  0  0  0  0  0  # atno 14402 bound_to 3259
  143.8727  134.9495  150.2210 LP  0  0  0  0  0  0  0  0  0  0  0  0  # atno 14409 bound_to 204 
  144.8251  133.9288  151.0682 LP  0  0  0  0  0  0  0  0  0  0  0  0  # atno 14410 bound_to 204 
  130.4404  157.8287  179.8939 LP  0  0  0  0  0  0  0  0  0  0  0  0  # atno 14421 bound_to 1170
  127.1316  155.0375  181.4088 LP  0  0  0  0  0  0  0  0  0  0  0  0  # atno 14422 bound_to 1173
  128.1845  155.0641  182.7838 LP  0  0  0  0  0  0  0  0  0  0  0  0  # atno 14423 bound_to 1173
  129.7419  113.9422  180.3816 LP  0  0  0  0  0  0  0  0  0  0  0  0  # atno 14428 bound_to 225 
  133.2168  112.1736  180.2198 LP  0  0  0  0  0  0  0  0  0  0  0  0  # atno 14429 bound_to 228 
  133.8950  113.6168  180.8959 LP  0  0  0  0  0  0  0  0  0  0  0  0  # atno 14430 bound_to 228 
  137.8034  116.3804  145.2008 LP  0  0  0  0  0  0  0  0  0  0  0  0  # atno 14433 bound_to 2765
  136.3735  115.6313  145.4479 LP  0  0  0  0  0  0  0  0  0  0  0  0  # atno 14434 bound_to 2765
  114.8335  116.1700  168.4055 LP  0  0  0  0  0  0  0  0  0  0  0  0  # atno 14437 bound_to 3927
  117.1645  113.1245  166.3370 LP  0  0  0  0  0  0  0  0  0  0  0  0  # atno 14438 bound_to 3930
  115.4466  112.9060  166.3678 LP  0  0  0  0  0  0  0  0  0  0  0  0  # atno 14439 bound_to 3930
  152.8317  130.6436  146.3668 LP  0  0  0  0  0  0  0  0  0  0  0  0  # atno 14450 bound_to 288 
  153.0468  129.0712  145.9819 LP  0  0  0  0  0  0  0  0  0  0  0  0  # atno 14451 bound_to 288 
  115.1348  136.8913  110.0419 LP  0  0  0  0  0  0  0  0  0  0  0  0  # atno 14452 bound_to 289 
  114.1792  138.5316  113.5331 LP  0  0  0  0  0  0  0  0  0  0  0  0  # atno 14453 bound_to 292 
  114.0651  136.9669  114.2672 LP  0  0  0  0  0  0  0  0  0  0  0  0  # atno 14454 bound_to 292 
  143.3023  144.3546  168.2117 LP  0  0  0  0  0  0  0  0  0  0  0  0  # atno 14459 bound_to 4748
  143.5041  144.9737  166.7142 LP  0  0  0  0  0  0  0  0  0  0  0  0  # atno 14460 bound_to 4748
  143.5943  125.9788  147.7286 LP  0  0  0  0  0  0  0  0  0  0  0  0  # atno 14463 bound_to 1222
  144.8316  125.9792  148.7943 LP  0  0  0  0  0  0  0  0  0  0  0  0  # atno 14464 bound_to 1222
  114.4193  151.7936  180.0377 LP  0  0  0  0  0  0  0  0  0  0  0  0  # atno 14469 bound_to 64  
  115.0159  155.9797  177.9809 LP  0  0  0  0  0  0  0  0  0  0  0  0  # atno 14470 bound_to 67  
  114.2968  156.1056  179.5516 LP  0  0  0  0  0  0  0  0  0  0  0  0  # atno 14471 bound_to 67  
  118.8291  112.8372  166.6668 LP  0  0  0  0  0  0  0  0  0  0  0  0  # atno 14477 bound_to 3972
  119.6136  111.0840  166.9048 LP  0  0  0  0  0  0  0  0  0  0  0  0  # atno 14478 bound_to 3975
  120.8221  110.1050  167.6672 LP  0  0  0  0  0  0  0  0  0  0  0  0  # atno 14479 bound_to 3975
  125.2926  160.0935  169.1109 LP  0  0  0  0  0  0  0  0  0  0  0  0  # atno 14484 bound_to 1767
  122.7877  156.0304  168.6356 LP  0  0  0  0  0  0  0  0  0  0  0  0  # atno 14485 bound_to 1770
  121.5398  157.2136  168.8431 LP  0  0  0  0  0  0  0  0  0  0  0  0  # atno 14486 bound_to 1770
  115.7419  158.4749  160.4951 LP  0  0  0  0  0  0  0  0  0  0  0  0  # atno 14495 bound_to 334 
  117.2547  159.5501  157.2785 LP  0  0  0  0  0  0  0  0  0  0  0  0  # atno 14496 bound_to 337 
  118.3638  159.8196  158.5813 LP  0  0  0  0  0  0  0  0  0  0  0  0  # atno 14497 bound_to 337 
  138.4196  136.1858  164.3404 LP  0  0  0  0  0  0  0  0  0  0  0  0  # atno 14500 bound_to 4013
  137.0581  136.7809  163.6630 LP  0  0  0  0  0  0  0  0  0  0  0  0  # atno 14501 bound_to 4013
  131.5258  128.4713  151.1995 LP  0  0  0  0  0  0  0  0  0  0  0  0  # atno 14506 bound_to 1802
  131.7624  128.1945  152.7914 LP  0  0  0  0  0  0  0  0  0  0  0  0  # atno 14507 bound_to 1802

> <Gold.Score>
     Fitness  S(hb_ext) S(vdw_ext)  S(hb_int)    S(int)      intcor
     30.78       6.43      20.23       0.00      -3.46      -0.76

> <Gold.Goldscore.Fitness>
30.7814

> <Gold.Goldscore.Internal.Vdw>
-3.4547

> <Gold.Goldscore.Internal.Torsion>
-0.7659

> <Gold.Goldscore.External.Vdw>
20.2313

> <Gold.Goldscore.Internal.HBond>
0.0000

> <Gold.Goldscore.External.HBond>
6.4254

> <Gold.Goldscore.Internal.Correction>
-0.7585

> <Gold.Goldscore.Hbonds>
donor molecule, donor type, donor heavy atom, donor atom, acceptor molecule, acceptor atom, score
      P1  H   204   210       L1    11  0.21
      P1  H   332   339       L1    11  1.00

> <Gold.Goldscore.Internal.Vdw.Weighted>
-3.4547

> <Gold.Goldscore.Internal.Torsion.Weighted>
-0.7659

> <Gold.Goldscore.External.Vdw.Weighted>
27.8181

> <Gold.Goldscore.Internal.HBond.Weighted>
0.0000

> <Gold.Goldscore.External.HBond.Weighted>
6.4254

> <Gold.Goldscore.Internal.Correction.Weighted>
-0.7585

> <Gold.Rescore>
     Score     S(PLP)   S(hbond)     S(cho)   S(metal)  DE(clash)   DE(tors)     intcor
     28.98     -24.73       2.02       0.00       0.00       1.23       0.29       ----

> <Gold.PLP.Fitness>
28.9818

> <Gold.PLP.PLP>
-24.7291

> <Gold.PLP.part.hbond>
-2.4534

> <Gold.PLP.part.metal>
0.0000

> <Gold.PLP.part.buried>
-4.7133

> <Gold.PLP.part.nonpolar>
-18.0077

> <Gold.PLP.part.repulsive>
0.1698

> <Gold.PLP.ligand.clash>
1.2313

> <Gold.PLP.ligand.torsion>
0.2860

> <Gold.PLP.Chemscore.Hbond>
2.0186

> <Gold.PLP.Chemscore.CHOScore>
0.0000

> <Gold.PLP.Chemscore.Metal>
0.0000

> <Gold.Chemscore.Hbonds>
donor molecule, donor type, donor heavy atom, donor atom, acceptor molecule, acceptor atom, score
      P1  H   204   210       L1    11  1.00
      P1  H   332   339       L1    11  0.91

> <Gold.PLP.Chemscore.Internal.Correction>
   9.000000E+99

