#       Name:                CT1002167954
#       Creating user name   hitesit
#       Creation time:       Sun Apr 16 20:21:43 2023


#       File generated by GOLD software.
#

@<TRIPOS>MOLECULE
CT1002167954|ligand_prepared|mol2|1|dock8
    29    30     1
SMALL
NO_CHARGES


@<TRIPOS>ATOM
      1 C1         137.0247 141.9938 166.4231 C.3            1 RES1               0.0000
      2 C2         136.2329 140.7692 165.9210 C.ar           1 RES1               0.0000
      3 C3         137.8599 142.4778 165.2413 C.2            1 RES1               0.0000
      4 C4         135.9889 143.0023 166.9074 C.2            1 RES1               0.0000
      5 C5         137.9759 141.6824 167.6020 C.3            1 RES1               0.0000
      6 C6         135.8480 140.6725 164.5871 C.ar           1 RES1               0.0000
      7 C7         135.8830 139.7288 166.7777 C.ar           1 RES1               0.0000
      8 N8         137.4640 143.6225 164.6146 N.am           1 RES1               0.0000
      9 O9         138.8281 141.8435 164.8407 O.2            1 RES1               0.0000
     10 N10        135.8753 144.1846 166.2239 N.am           1 RES1               0.0000
     11 O11        135.2585 142.7769 167.8645 O.2            1 RES1               0.0000
     12 C12        138.9419 142.8113 167.9251 C.3            1 RES1               0.0000
     13 C13        135.1414 139.5742 164.1257 C.ar           1 RES1               0.0000
     14 C14        135.1762 138.6315 166.3142 C.ar           1 RES1               0.0000
     15 C15        136.5447 144.5276 165.0809 C.2            1 RES1               0.0000
     16 C16        134.8055 138.5529 164.9886 C.ar           1 RES1               0.0000
     17 O17        136.3486 145.5872 164.4928 O.2            1 RES1               0.0000
     18 H18        137.3743 141.4664 168.4935 H              1 RES1               0.0000
     19 H19        138.5536 140.7815 167.3611 H              1 RES1               0.0000
     20 H20        136.1012 141.4676 163.8938 H              1 RES1               0.0000
     21 H21        136.1632 139.7698 167.8248 H              1 RES1               0.0000
     22 H22        137.8910 143.8243 163.7161 H              1 RES1               0.0000
     23 H23        135.2323 144.8728 166.6024 H              1 RES1               0.0000
     24 H24        139.5859 142.5410 168.7593 H              1 RES1               0.0000
     25 H25        139.5736 143.0356 167.0681 H              1 RES1               0.0000
     26 H26        138.4012 143.7165 168.1938 H              1 RES1               0.0000
     27 H27        134.8508 139.5177 163.0818 H              1 RES1               0.0000
     28 H28        134.9135 137.8303 166.9971 H              1 RES1               0.0000
     29 H29        134.2524 137.6924 164.6268 H              1 RES1               0.0000
@<TRIPOS>BOND
    1    1    2 1     
    2    1    3 1     
    3    1    4 1     
    4    1    5 1     
    5    2    6 ar    
    6    2    7 ar    
    7    3    8 1     
    8    3    9 2     
    9    4   10 1     
   10    4   11 2     
   11    5   12 1     
   12    5   18 1     
   13    5   19 1     
   14    6   13 ar    
   15    6   20 1     
   16    7   14 ar    
   17    7   21 1     
   18    8   15 1     
   19    8   22 1     
   20   10   15 1     
   21   10   23 1     
   22   12   24 1     
   23   12   25 1     
   24   12   26 1     
   25   13   16 ar    
   26   13   27 1     
   27   14   16 ar    
   28   14   28 1     
   29   15   17 2     
   30   16   29 1     
@<TRIPOS>SUBSTRUCTURE
      1 RES1           1
@<TRIPOS>SET
DONOR_HYDROGENS      STATIC     ATOMS    <user>   **** ""
2 22 23
ATOM$RED        STATIC     ATOMS    COLORGROUP SYSTEM
2 22 23
@<TRIPOS>COMMENT
> <Gold.Version>
2022.3.0

> <Gold.Id.Protein>
unknown|7rmi_cavity_clean|pdb

> <Gold.Protein.RotatedTorsions>
[  882  862  863  864 ] final -101.55 input   59.67 | X-H torsion
[ 4344 4325 4326 4327 ] final  -10.43 input   58.17 | X-H torsion
[ 1839 1834 1833 1830 ] final   71.36 input   59.99 | X-H torsion
[  114  103  104  105 ] final -118.95 input  112.99 | X-H torsion
[  166  159  158  157 ] final  117.22 input   59.97 | X-H torsion
[ 4684 4679 4678 4675 ] final -124.63 input   59.98 | X-H torsion
[ 8046 8035 8034 8033 ] final    3.94 input   59.99 | X-H torsion
[ 2742 2733 2732 2730 ] final -170.27 input   60.00 | X-H torsion
[ 3268 3259 3258 3256 ] final -143.65 input   59.98 | X-H torsion
[  210  204  203  201 ] final -164.81 input   60.02 | X-H torsion
[ 1184 1170 1171 1172 ] final  -76.65 input   67.97 | X-H torsion
[  241  225  226  227 ] final -152.80 input   51.53 | X-H torsion
[ 2774 2765 2764 2762 ] final  -59.54 input   60.03 | X-H torsion
[ 3932 3927 3928 3929 ] final   47.15 input   88.25 | X-H torsion
[  295  288  286  283 ] final -160.89 input   60.03 | X-H torsion
[  297  289  290  291 ] final    9.85 input  115.34 | X-H torsion
[ 4755 4748 4746 4743 ] final   88.01 input   60.02 | X-H torsion
[ 1228 1222 1220 1217 ] final -136.23 input   59.96 | X-H torsion
[   74   64   65   66 ] final -179.70 input  112.25 | X-H torsion
[ 3990 3972 3973 3974 ] final  -52.03 input   60.58 | X-H torsion
[ 1778 1767 1768 1769 ] final   35.86 input  110.17 | X-H torsion
[  348  334  335  336 ] final   14.10 input   81.54 | X-H torsion
[ 4022 4013 4012 4010 ] final -161.09 input   60.01 | X-H torsion
[ 1809 1802 1800 1797 ] final   39.66 input   60.00 | X-H torsion
[ 14302  865  864  863 ] final -156.00 input   -0.00 | X-H torsion
[ 14307 4328 4327 4326 ] final    8.84 input   -0.00 | X-H torsion
[ 14336  106  105  104 ] final   74.94 input    0.00 | X-H torsion
[ 14422 1173 1172 1171 ] final -139.03 input   -0.00 | X-H torsion
[ 14429  228  227  226 ] final  147.31 input    0.00 | X-H torsion
[ 14438 3930 3929 3928 ] final  -35.43 input   -0.00 | X-H torsion
[ 14453  292  291  290 ] final   98.87 input    0.00 | X-H torsion
[ 14470   67   66   65 ] final   85.73 input   -0.00 | X-H torsion
[ 14478 3975 3974 3973 ] final  -13.12 input   -0.00 | X-H torsion
[ 14485 1770 1769 1768 ] final   87.79 input   -0.00 | X-H torsion
[ 14496  337  336  335 ] final  -81.23 input   -0.00 | X-H torsion

> <Gold.Protein.ActiveResidues>
 GLU27   LEU30   GLN31   ASP33   LYS34   GLN35   VAL36   TYR37   ARG38   THR40  
 HIS41   ARG42   GLU209  HIS220  PHE222  GLN236  ASN239  ASP240  VAL241  THR242 
 ARG280  TRP281  LEU282  ARG283  THR284  ILE285  SER286  VAL287  ILE288  GLY355 
 ARG356  HIS357  TYR358  CYS359  TYR360  ASP381  ILE382  ILE383  GLN385  MET386 
 ASN387  LEU388  ARG389  GLU390  TYR391  VAL394  ALA56   LYS57   ILE58   TYR59  
 ALA60   MET61   LEU79   ILE80   ILE81   TRP82   ILE93   SER98   TRP99   VAL100 
 MET101  THR102  CYS103  GLY310  HIS311  ASP312  ASN313  TRP332  ASP333  SER334 
 PHE335  LYS337 

> <Gold.Protein.RotatedAtoms>
  115.4277  151.9373  181.1959 H   0  0  0  0  0  0  0  0  0  0  0  0  # atno 74   bound_to 64  
  108.5321  133.6713   97.8934 H   0  0  0  0  0  0  0  0  0  0  0  0  # atno 114  bound_to 103 
  144.2237  138.7801  142.3537 H   0  0  0  0  0  0  0  0  0  0  0  0  # atno 166  bound_to 159 
  143.9822  139.8192  141.0849 H   0  0  0  0  0  0  0  0  0  0  0  0  # atno 167  bound_to 159 
  145.2259  138.7245  141.0348 H   0  0  0  0  0  0  0  0  0  0  0  0  # atno 168  bound_to 159 
  143.7339  134.0234  149.5611 H   0  0  0  0  0  0  0  0  0  0  0  0  # atno 210  bound_to 204 
  129.6306  113.7676  180.3443 H   0  0  0  0  0  0  0  0  0  0  0  0  # atno 241  bound_to 225 
  153.5666  129.8994  147.4207 H   0  0  0  0  0  0  0  0  0  0  0  0  # atno 295  bound_to 288 
  114.4155  136.2554  110.0596 H   0  0  0  0  0  0  0  0  0  0  0  0  # atno 297  bound_to 289 
  115.7955  159.2728  159.7204 H   0  0  0  0  0  0  0  0  0  0  0  0  # atno 348  bound_to 334 
  130.1475  142.7612  185.5678 H   0  0  0  0  0  0  0  0  0  0  0  0  # atno 882  bound_to 862 
  131.5719  156.5683  180.1494 H   0  0  0  0  0  0  0  0  0  0  0  0  # atno 1184 bound_to 1170
  144.0192  125.8072  147.7307 H   0  0  0  0  0  0  0  0  0  0  0  0  # atno 1228 bound_to 1222
  125.5154  159.2739  168.9428 H   0  0  0  0  0  0  0  0  0  0  0  0  # atno 1778 bound_to 1767
  131.2285  127.4345  152.7386 H   0  0  0  0  0  0  0  0  0  0  0  0  # atno 1809 bound_to 1802
  138.6015  119.2209  150.4372 H   0  0  0  0  0  0  0  0  0  0  0  0  # atno 1839 bound_to 1834
  130.1506  117.2838  143.7808 H   0  0  0  0  0  0  0  0  0  0  0  0  # atno 2742 bound_to 2733
  137.2582  114.8744  144.5239 H   0  0  0  0  0  0  0  0  0  0  0  0  # atno 2774 bound_to 2765
  139.7065  129.6351  134.5172 H   0  0  0  0  0  0  0  0  0  0  0  0  # atno 3268 bound_to 3259
  115.4355  117.1071  167.4046 H   0  0  0  0  0  0  0  0  0  0  0  0  # atno 3932 bound_to 3927
  119.6499  113.7808  166.7364 H   0  0  0  0  0  0  0  0  0  0  0  0  # atno 3990 bound_to 3972
  137.7641  137.5443  164.9262 H   0  0  0  0  0  0  0  0  0  0  0  0  # atno 4022 bound_to 4013
  116.1227  119.8373  182.2106 H   0  0  0  0  0  0  0  0  0  0  0  0  # atno 4344 bound_to 4325
  148.2435  134.0796  156.0006 H   0  0  0  0  0  0  0  0  0  0  0  0  # atno 4684 bound_to 4679
  142.9450  144.5396  167.5445 H   0  0  0  0  0  0  0  0  0  0  0  0  # atno 4755 bound_to 4748
  133.0614  147.4208  149.5649 H   0  0  0  0  0  0  0  0  0  0  0  0  # atno 8046 bound_to 8035
  132.1622  146.8226  148.3077 H   0  0  0  0  0  0  0  0  0  0  0  0  # atno 8047 bound_to 8035
  133.3065  147.9890  148.0268 H   0  0  0  0  0  0  0  0  0  0  0  0  # atno 8048 bound_to 8035
  130.9160  143.1164  184.0344 LP  0  0  0  0  0  0  0  0  0  0  0  0  # atno 14301 bound_to 862 
  128.8158  140.8644  181.5429 LP  0  0  0  0  0  0  0  0  0  0  0  0  # atno 14302 bound_to 865 
  130.1305  141.7742  182.2091 LP  0  0  0  0  0  0  0  0  0  0  0  0  # atno 14303 bound_to 865 
  116.6213  120.9926  180.9898 LP  0  0  0  0  0  0  0  0  0  0  0  0  # atno 14306 bound_to 4325
  117.6017  118.5394  182.9167 LP  0  0  0  0  0  0  0  0  0  0  0  0  # atno 14307 bound_to 4328
  117.4743  116.8130  182.9744 LP  0  0  0  0  0  0  0  0  0  0  0  0  # atno 14308 bound_to 4328
  138.1704  120.7467  150.0710 LP  0  0  0  0  0  0  0  0  0  0  0  0  # atno 14311 bound_to 1834
  137.8591  119.5335  149.0233 LP  0  0  0  0  0  0  0  0  0  0  0  0  # atno 14312 bound_to 1834
  109.1749  135.1147   97.1491 LP  0  0  0  0  0  0  0  0  0  0  0  0  # atno 14335 bound_to 103 
  112.8230  134.3484   99.9593 LP  0  0  0  0  0  0  0  0  0  0  0  0  # atno 14336 bound_to 106 
  111.4749  134.7132  100.9838 LP  0  0  0  0  0  0  0  0  0  0  0  0  # atno 14337 bound_to 106 
  148.9778  135.0982  154.9650 LP  0  0  0  0  0  0  0  0  0  0  0  0  # atno 14376 bound_to 4679
  148.2817  135.6741  156.3253 LP  0  0  0  0  0  0  0  0  0  0  0  0  # atno 14377 bound_to 4679
  129.0191  116.8420  144.8634 LP  0  0  0  0  0  0  0  0  0  0  0  0  # atno 14397 bound_to 2733
  129.7152  115.7206  143.9019 LP  0  0  0  0  0  0  0  0  0  0  0  0  # atno 14398 bound_to 2733
  139.0456  130.3919  135.7971 LP  0  0  0  0  0  0  0  0  0  0  0  0  # atno 14401 bound_to 3259
  138.9744  131.0742  134.3153 LP  0  0  0  0  0  0  0  0  0  0  0  0  # atno 14402 bound_to 3259
  144.2950  134.9134  150.8030 LP  0  0  0  0  0  0  0  0  0  0  0  0  # atno 14409 bound_to 204 
  144.7349  133.3480  150.6524 LP  0  0  0  0  0  0  0  0  0  0  0  0  # atno 14410 bound_to 204 
  130.6109  158.0319  180.1327 LP  0  0  0  0  0  0  0  0  0  0  0  0  # atno 14421 bound_to 1170
  127.7726  154.2242  181.8647 LP  0  0  0  0  0  0  0  0  0  0  0  0  # atno 14422 bound_to 1173
  127.5436  155.8774  182.3279 LP  0  0  0  0  0  0  0  0  0  0  0  0  # atno 14423 bound_to 1173
  131.2040  113.4177  179.6645 LP  0  0  0  0  0  0  0  0  0  0  0  0  # atno 14428 bound_to 225 
  134.0916  113.3739  181.0415 LP  0  0  0  0  0  0  0  0  0  0  0  0  # atno 14429 bound_to 228 
  133.0203  112.4165  180.0742 LP  0  0  0  0  0  0  0  0  0  0  0  0  # atno 14430 bound_to 228 
  137.9534  116.2511  145.0430 LP  0  0  0  0  0  0  0  0  0  0  0  0  # atno 14433 bound_to 2765
  136.4527  115.8505  145.5469 LP  0  0  0  0  0  0  0  0  0  0  0  0  # atno 14434 bound_to 2765
  114.0147  116.4169  168.1555 LP  0  0  0  0  0  0  0  0  0  0  0  0  # atno 14437 bound_to 3927
  115.7082  112.9821  166.9785 LP  0  0  0  0  0  0  0  0  0  0  0  0  # atno 14438 bound_to 3930
  116.9029  113.0485  165.7263 LP  0  0  0  0  0  0  0  0  0  0  0  0  # atno 14439 bound_to 3930
  152.7549  130.5221  146.1553 LP  0  0  0  0  0  0  0  0  0  0  0  0  # atno 14450 bound_to 288 
  153.1737  128.9437  146.1636 LP  0  0  0  0  0  0  0  0  0  0  0  0  # atno 14451 bound_to 288 
  114.3917  137.7408  109.1407 LP  0  0  0  0  0  0  0  0  0  0  0  0  # atno 14452 bound_to 289 
  113.2914  137.8496  114.1231 LP  0  0  0  0  0  0  0  0  0  0  0  0  # atno 14453 bound_to 292 
  114.9530  137.6489  113.6771 LP  0  0  0  0  0  0  0  0  0  0  0  0  # atno 14454 bound_to 292 
  144.2728  145.0986  166.7877 LP  0  0  0  0  0  0  0  0  0  0  0  0  # atno 14459 bound_to 4748
  144.3785  144.5294  168.3146 LP  0  0  0  0  0  0  0  0  0  0  0  0  # atno 14460 bound_to 4748
  144.6809  126.2102  149.1621 LP  0  0  0  0  0  0  0  0  0  0  0  0  # atno 14463 bound_to 1222
  143.1505  126.6591  148.8117 LP  0  0  0  0  0  0  0  0  0  0  0  0  # atno 14464 bound_to 1222
  113.9329  152.3396  180.3885 LP  0  0  0  0  0  0  0  0  0  0  0  0  # atno 14469 bound_to 64  
  115.2762  155.9866  178.1641 LP  0  0  0  0  0  0  0  0  0  0  0  0  # atno 14470 bound_to 67  
  114.0364  156.0987  179.3684 LP  0  0  0  0  0  0  0  0  0  0  0  0  # atno 14471 bound_to 67  
  118.0086  113.4755  167.2692 LP  0  0  0  0  0  0  0  0  0  0  0  0  # atno 14477 bound_to 3972
  119.3759  110.7934  167.3259 LP  0  0  0  0  0  0  0  0  0  0  0  0  # atno 14478 bound_to 3975
  121.0598  110.3957  167.2461 LP  0  0  0  0  0  0  0  0  0  0  0  0  # atno 14479 bound_to 3975
  125.0343  159.7550  170.5513 LP  0  0  0  0  0  0  0  0  0  0  0  0  # atno 14484 bound_to 1767
  121.5614  157.0480  168.2858 LP  0  0  0  0  0  0  0  0  0  0  0  0  # atno 14485 bound_to 1770
  122.7661  156.1960  169.1929 LP  0  0  0  0  0  0  0  0  0  0  0  0  # atno 14486 bound_to 1770
  114.6119  158.0101  159.9719 LP  0  0  0  0  0  0  0  0  0  0  0  0  # atno 14495 bound_to 334 
  117.6444  159.4527  157.1120 LP  0  0  0  0  0  0  0  0  0  0  0  0  # atno 14496 bound_to 337 
  117.9741  159.9170  158.7477 LP  0  0  0  0  0  0  0  0  0  0  0  0  # atno 14497 bound_to 337 
  138.4119  136.1774  164.3265 LP  0  0  0  0  0  0  0  0  0  0  0  0  # atno 14500 bound_to 4013
  137.0509  136.7960  163.6696 LP  0  0  0  0  0  0  0  0  0  0  0  0  # atno 14501 bound_to 4013
  130.9786  127.6934  151.1512 LP  0  0  0  0  0  0  0  0  0  0  0  0  # atno 14506 bound_to 1802
  131.9137  128.7193  152.0112 LP  0  0  0  0  0  0  0  0  0  0  0  0  # atno 14507 bound_to 1802

> <Gold.Score>
     Fitness  S(hb_ext) S(vdw_ext)  S(hb_int)    S(int)      intcor
     35.85       0.03      26.48       0.00      -0.59      -0.76

> <Gold.Goldscore.Fitness>
35.8476

> <Gold.Goldscore.Internal.Vdw>
-0.7860

> <Gold.Goldscore.Internal.Torsion>
-0.5578

> <Gold.Goldscore.External.Vdw>
26.4752

> <Gold.Goldscore.Internal.HBond>
0.0000

> <Gold.Goldscore.External.HBond>
0.0295

> <Gold.Goldscore.Internal.Correction>
-0.7585

> <Gold.Goldscore.Hbonds>
donor molecule, donor type, donor heavy atom, donor atom, acceptor molecule, acceptor atom, score
      L1  H     8    22       P1  4005  0.01

> <Gold.Goldscore.Internal.Vdw.Weighted>
-0.7860

> <Gold.Goldscore.Internal.Torsion.Weighted>
-0.5578

> <Gold.Goldscore.External.Vdw.Weighted>
36.4034

> <Gold.Goldscore.Internal.HBond.Weighted>
0.0000

> <Gold.Goldscore.External.HBond.Weighted>
0.0295

> <Gold.Goldscore.Internal.Correction.Weighted>
-0.7585

> <Gold.Rescore>
     Score     S(PLP)   S(hbond)     S(cho)   S(metal)  DE(clash)   DE(tors)     intcor
     28.31     -30.55       0.00       0.00       0.00       0.00       1.11       ----

> <Gold.PLP.Fitness>
28.3150

> <Gold.PLP.PLP>
-30.5456

> <Gold.PLP.part.hbond>
-2.8741

> <Gold.PLP.part.metal>
0.0000

> <Gold.PLP.part.buried>
-2.3698

> <Gold.PLP.part.nonpolar>
-29.2365

> <Gold.PLP.part.repulsive>
3.6410

> <Gold.PLP.ligand.clash>
0.0007

> <Gold.PLP.ligand.torsion>
1.1150

> <Gold.PLP.Chemscore.Hbond>
0.0000

> <Gold.PLP.Chemscore.CHOScore>
0.0000

> <Gold.PLP.Chemscore.Metal>
0.0000

> <Gold.PLP.Chemscore.Internal.Correction>
   9.000000E+99

