#       Name:                CT1002167954
#       Creating user name   hitesit
#       Creation time:       Sun Apr 16 02:22:21 2023


#       File generated by GOLD software.
#

@<TRIPOS>MOLECULE
CT1002167954|ligand_prepared|mol2|1|dock3
    29    30     1
SMALL
NO_CHARGES


@<TRIPOS>ATOM
      1 C1           6.2649   7.0599   8.4458 C.3            1 RES1               0.0000
      2 C2           5.6319   6.8257   7.0590 C.ar           1 RES1               0.0000
      3 C3           5.9338   8.4989   8.8304 C.2            1 RES1               0.0000
      4 C4           5.6589   6.0128   9.3737 C.2            1 RES1               0.0000
      5 C5           7.8015   6.8865   8.4686 C.3            1 RES1               0.0000
      6 C6           4.4417   7.4556   6.7078 C.ar           1 RES1               0.0000
      7 C7           6.2267   5.9861   6.1210 C.ar           1 RES1               0.0000
      8 N8           4.9837   8.6940   9.7891 N.am           1 RES1               0.0000
      9 O9           6.4698   9.4487   8.2729 O.2            1 RES1               0.0000
     10 N10          4.8586   6.4481  10.3973 N.am           1 RES1               0.0000
     11 O11          5.8538   4.8136   9.2176 O.2            1 RES1               0.0000
     12 C12          8.4561   7.3874   9.7463 C.3            1 RES1               0.0000
     13 C13          3.8684   7.2559   5.4629 C.ar           1 RES1               0.0000
     14 C14          5.6515   5.7875   4.8767 C.ar           1 RES1               0.0000
     15 C15          4.4687   7.7391  10.6285 C.2            1 RES1               0.0000
     16 C16          4.4730   6.4222   4.5465 C.ar           1 RES1               0.0000
     17 O17          3.7025   8.0454  11.5374 O.2            1 RES1               0.0000
     18 H18          8.0386   5.8227   8.3439 H              1 RES1               0.0000
     19 H19          8.2306   7.4278   7.6163 H              1 RES1               0.0000
     20 H20          3.9501   8.1133   7.4169 H              1 RES1               0.0000
     21 H21          7.1536   5.4755   6.3593 H              1 RES1               0.0000
     22 H22          4.6226   9.6371   9.8913 H              1 RES1               0.0000
     23 H23          4.5224   5.7445  11.0472 H              1 RES1               0.0000
     24 H24          9.5338   7.2422   9.7101 H              1 RES1               0.0000
     25 H25          8.2618   8.4484   9.8890 H              1 RES1               0.0000
     26 H26          8.0710   6.8528  10.6122 H              1 RES1               0.0000
     27 H27          2.9401   7.7566   5.2085 H              1 RES1               0.0000
     28 H28          6.1306   5.1300   4.1587 H              1 RES1               0.0000
     29 H29          4.0239   6.2662   3.5712 H              1 RES1               0.0000
@<TRIPOS>BOND
    1    1    2 1     
    2    1    3 1     
    3    1    4 1     
    4    1    5 1     
    5    2    6 ar    
    6    2    7 ar    
    7    3    8 1     
    8    3    9 2     
    9    4   10 1     
   10    4   11 2     
   11    5   12 1     
   12    5   18 1     
   13    5   19 1     
   14    6   13 ar    
   15    6   20 1     
   16    7   14 ar    
   17    7   21 1     
   18    8   15 1     
   19    8   22 1     
   20   10   15 1     
   21   10   23 1     
   22   12   24 1     
   23   12   25 1     
   24   12   26 1     
   25   13   16 ar    
   26   13   27 1     
   27   14   16 ar    
   28   14   28 1     
   29   15   17 2     
   30   16   29 1     
@<TRIPOS>SUBSTRUCTURE
      1 RES1           1
@<TRIPOS>SET
DONOR_HYDROGENS      STATIC     ATOMS    <user>   **** ""
2 22 23
ATOM$RED        STATIC     ATOMS    COLORGROUP SYSTEM
2 22 23
@<TRIPOS>COMMENT
> <Gold.Version>
2022.3.0

> <Gold.Id.Protein>
unknown|4i1b_cavity_clean|pdb

> <Gold.Protein.RotatedTorsions>
[  987  978  977  976 ] final   65.90 input   59.99 | X-H torsion
[  952  941  940  939 ] final  142.62 input   60.01 | X-H torsion

> <Gold.Protein.ActiveResidues>
 MET20   GLU37   GLN38   GLN39   VAL40   VAL41   LEU62   LYS63   GLU64   LYS65  

> <Gold.Protein.RotatedAtoms>
    4.2689   11.3612   12.9958 H   0  0  0  0  0  0  0  0  0  0  0  0  # atno 952  bound_to 941 
    5.2222   11.2596   11.6436 H   0  0  0  0  0  0  0  0  0  0  0  0  # atno 953  bound_to 941 
    5.3479   10.1129   12.8351 H   0  0  0  0  0  0  0  0  0  0  0  0  # atno 954  bound_to 941 
    9.1547    1.9391   11.4930 H   0  0  0  0  0  0  0  0  0  0  0  0  # atno 987  bound_to 978 
    7.8793    1.2574   10.6822 H   0  0  0  0  0  0  0  0  0  0  0  0  # atno 988  bound_to 978 
    9.4280    1.0175   10.1428 H   0  0  0  0  0  0  0  0  0  0  0  0  # atno 989  bound_to 978 

> <Gold.Score>
     Fitness  S(hb_ext) S(vdw_ext)  S(hb_int)    S(int)      intcor
     33.40       1.35      23.62       0.00      -0.43      -0.78

> <Gold.Goldscore.Fitness>
33.3969

> <Gold.Goldscore.Internal.Vdw>
-0.6184

> <Gold.Goldscore.Internal.Torsion>
-0.5889

> <Gold.Goldscore.External.Vdw>
23.6177

> <Gold.Goldscore.Internal.HBond>
0.0000

> <Gold.Goldscore.External.HBond>
1.3546

> <Gold.Goldscore.Internal.Correction>
-0.7752

> <Gold.Goldscore.Hbonds>
donor molecule, donor type, donor heavy atom, donor atom, acceptor molecule, acceptor atom, score
      P1  H   605   612       L1     9  0.68

> <Gold.Goldscore.Internal.Vdw.Weighted>
-0.6184

> <Gold.Goldscore.Internal.Torsion.Weighted>
-0.5889

> <Gold.Goldscore.External.Vdw.Weighted>
32.4743

> <Gold.Goldscore.Internal.HBond.Weighted>
0.0000

> <Gold.Goldscore.External.HBond.Weighted>
1.3546

> <Gold.Goldscore.Internal.Correction.Weighted>
-0.7752

> <Gold.Rescore>
     Score     S(PLP)   S(hbond)     S(cho)   S(metal)  DE(clash)   DE(tors)     intcor
     35.03     -32.32       1.00       0.00       0.00       0.00       0.15       ----

> <Gold.PLP.Fitness>
35.0270

> <Gold.PLP.PLP>
-32.3199

> <Gold.PLP.part.hbond>
-1.9375

> <Gold.PLP.part.metal>
0.0000

> <Gold.PLP.part.buried>
-4.7363

> <Gold.PLP.part.nonpolar>
-25.6374

> <Gold.PLP.part.repulsive>
0.2387

> <Gold.PLP.ligand.clash>
0.0000

> <Gold.PLP.ligand.torsion>
0.1465

> <Gold.PLP.Chemscore.Hbond>
1.0000

> <Gold.PLP.Chemscore.CHOScore>
0.0000

> <Gold.PLP.Chemscore.Metal>
0.0000

> <Gold.Chemscore.Hbonds>
donor molecule, donor type, donor heavy atom, donor atom, acceptor molecule, acceptor atom, score
      P1  H   605   612       L1     9  0.76

> <Gold.PLP.Chemscore.Internal.Correction>
   9.000000E+99

