#       Name:                CT1002167954
#       Creating user name   hitesit
#       Creation time:       Sun Apr 16 02:22:23 2023


#       File generated by GOLD software.
#

@<TRIPOS>MOLECULE
CT1002167954|ligand_prepared|mol2|1|dock8
    29    30     1
SMALL
NO_CHARGES


@<TRIPOS>ATOM
      1 C1           5.1404   5.8345   7.4839 C.3            1 RES1               0.0000
      2 C2           6.3609   6.4096   8.2310 C.ar           1 RES1               0.0000
      3 C3           4.4267   7.0245   6.8493 C.2            1 RES1               0.0000
      4 C4           5.6907   4.8301   6.4774 C.2            1 RES1               0.0000
      5 C5           4.1393   5.0930   8.4003 C.3            1 RES1               0.0000
      6 C6           6.7108   5.9316   9.4903 C.ar           1 RES1               0.0000
      7 C7           7.1468   7.4148   7.6737 C.ar           1 RES1               0.0000
      8 N8           4.5431   7.1849   5.5000 N.am           1 RES1               0.0000
      9 O9           3.8041   7.8322   7.5277 O.2            1 RES1               0.0000
     10 N10          5.5432   5.1105   5.1443 N.am           1 RES1               0.0000
     11 O11          6.2654   3.8064   6.8269 O.2            1 RES1               0.0000
     12 C12          2.8436   4.7050   7.7055 C.3            1 RES1               0.0000
     13 C13          7.8082   6.4379  10.1668 C.ar           1 RES1               0.0000
     14 C14          8.2438   7.9199   8.3520 C.ar           1 RES1               0.0000
     15 C15          5.0216   6.2572   4.6100 C.2            1 RES1               0.0000
     16 C16          8.5757   7.4319   9.5980 C.ar           1 RES1               0.0000
     17 O17          4.9725   6.4599   3.4002 O.2            1 RES1               0.0000
     18 H18          4.6191   4.1849   8.7855 H              1 RES1               0.0000
     19 H19          3.9018   5.7359   9.2568 H              1 RES1               0.0000
     20 H20          6.1172   5.1512   9.9549 H              1 RES1               0.0000
     21 H21          6.9040   7.8146   6.6951 H              1 RES1               0.0000
     22 H22          4.2471   8.0772   5.1172 H              1 RES1               0.0000
     23 H23          5.8505   4.3984   4.4894 H              1 RES1               0.0000
     24 H24          2.1773   4.1879   8.3928 H              1 RES1               0.0000
     25 H25          2.3272   5.5867   7.3318 H              1 RES1               0.0000
     26 H26          3.0403   4.0449   6.8632 H              1 RES1               0.0000
     27 H27          8.0644   6.0514  11.1477 H              1 RES1               0.0000
     28 H28          8.8446   8.7026   7.9008 H              1 RES1               0.0000
     29 H29          9.4356   7.8281  10.1279 H              1 RES1               0.0000
@<TRIPOS>BOND
    1    1    2 1     
    2    1    3 1     
    3    1    4 1     
    4    1    5 1     
    5    2    6 ar    
    6    2    7 ar    
    7    3    8 1     
    8    3    9 2     
    9    4   10 1     
   10    4   11 2     
   11    5   12 1     
   12    5   18 1     
   13    5   19 1     
   14    6   13 ar    
   15    6   20 1     
   16    7   14 ar    
   17    7   21 1     
   18    8   15 1     
   19    8   22 1     
   20   10   15 1     
   21   10   23 1     
   22   12   24 1     
   23   12   25 1     
   24   12   26 1     
   25   13   16 ar    
   26   13   27 1     
   27   14   16 ar    
   28   14   28 1     
   29   15   17 2     
   30   16   29 1     
@<TRIPOS>SUBSTRUCTURE
      1 RES1           1
@<TRIPOS>SET
DONOR_HYDROGENS      STATIC     ATOMS    <user>   **** ""
2 22 23
ATOM$RED        STATIC     ATOMS    COLORGROUP SYSTEM
2 22 23
@<TRIPOS>COMMENT
> <Gold.Version>
2022.3.0

> <Gold.Id.Protein>
unknown|4i1b_cavity_clean|pdb

> <Gold.Protein.RotatedTorsions>
[  987  978  977  976 ] final  -95.27 input   59.99 | X-H torsion
[  952  941  940  939 ] final   38.34 input   60.01 | X-H torsion

> <Gold.Protein.ActiveResidues>
 MET20   GLU37   GLN38   GLN39   VAL40   VAL41   LEU62   LYS63   GLU64   LYS65  

> <Gold.Protein.RotatedAtoms>
    5.1835   10.1591   13.0331 H   0  0  0  0  0  0  0  0  0  0  0  0  # atno 952  bound_to 941 
    4.2746   11.5241   12.7911 H   0  0  0  0  0  0  0  0  0  0  0  0  # atno 953  bound_to 941 
    5.3808   11.0510   11.6497 H   0  0  0  0  0  0  0  0  0  0  0  0  # atno 954  bound_to 941 
    8.7935    0.8543    9.9899 H   0  0  0  0  0  0  0  0  0  0  0  0  # atno 987  bound_to 978 
    9.6608    1.7163   11.1094 H   0  0  0  0  0  0  0  0  0  0  0  0  # atno 988  bound_to 978 
    8.0086    1.6430   11.2181 H   0  0  0  0  0  0  0  0  0  0  0  0  # atno 989  bound_to 978 

> <Gold.Score>
     Fitness  S(hb_ext) S(vdw_ext)  S(hb_int)    S(int)      intcor
     30.35       1.77      21.29       0.00      -0.70      -0.76

> <Gold.Goldscore.Fitness>
30.3453

> <Gold.Goldscore.Internal.Vdw>
-0.9716

> <Gold.Goldscore.Internal.Torsion>
-0.4860

> <Gold.Goldscore.External.Vdw>
21.2872

> <Gold.Goldscore.Internal.HBond>
0.0000

> <Gold.Goldscore.External.HBond>
1.7744

> <Gold.Goldscore.Internal.Correction>
-0.7585

> <Gold.Goldscore.Hbonds>
donor molecule, donor type, donor heavy atom, donor atom, acceptor molecule, acceptor atom, score
      P1  H   279   293       L1    17  0.81
      L1  H     8    22       P1   575  0.08

> <Gold.Goldscore.Internal.Vdw.Weighted>
-0.9716

> <Gold.Goldscore.Internal.Torsion.Weighted>
-0.4860

> <Gold.Goldscore.External.Vdw.Weighted>
29.2699

> <Gold.Goldscore.Internal.HBond.Weighted>
0.0000

> <Gold.Goldscore.External.HBond.Weighted>
1.7744

> <Gold.Goldscore.Internal.Correction.Weighted>
-0.7585

> <Gold.Rescore>
     Score     S(PLP)   S(hbond)     S(cho)   S(metal)  DE(clash)   DE(tors)     intcor
     36.55     -33.59       1.00       0.00       0.00       0.00       0.02       ----

> <Gold.PLP.Fitness>
36.5468

> <Gold.PLP.PLP>
-33.5914

> <Gold.PLP.part.hbond>
-1.0000

> <Gold.PLP.part.metal>
0.0000

> <Gold.PLP.part.buried>
-4.4534

> <Gold.PLP.part.nonpolar>
-29.1059

> <Gold.PLP.part.repulsive>
0.6511

> <Gold.PLP.ligand.clash>
0.0000

> <Gold.PLP.ligand.torsion>
0.0223

> <Gold.PLP.Chemscore.Hbond>
1.0000

> <Gold.PLP.Chemscore.CHOScore>
0.0000

> <Gold.PLP.Chemscore.Metal>
0.0000

> <Gold.Chemscore.Hbonds>
donor molecule, donor type, donor heavy atom, donor atom, acceptor molecule, acceptor atom, score
      P1  H   279   293       L1    17  0.78

> <Gold.PLP.Chemscore.Internal.Correction>
   9.000000E+99

