#       Name:                CT1002167954
#       Creating user name   hitesit
#       Creation time:       Sun Apr 16 02:22:22 2023


#       File generated by GOLD software.
#

@<TRIPOS>MOLECULE
CT1002167954|ligand_prepared|mol2|1|dock6
    29    30     1
SMALL
NO_CHARGES


@<TRIPOS>ATOM
      1 C1           5.5469   7.7631   8.5665 C.3            1 RES1               0.0000
      2 C2           5.5231   6.9292   7.2692 C.ar           1 RES1               0.0000
      3 C3           5.2216   6.7976   9.7024 C.2            1 RES1               0.0000
      4 C4           6.9392   8.3785   8.6526 C.2            1 RES1               0.0000
      5 C5           4.5138   8.9136   8.5887 C.3            1 RES1               0.0000
      6 C6           6.2368   5.7378   7.1795 C.ar           1 RES1               0.0000
      7 C7           4.7914   7.3363   6.1569 C.ar           1 RES1               0.0000
      8 N8           6.2435   6.4200  10.5229 N.am           1 RES1               0.0000
      9 O9           4.0939   6.3436   9.8520 O.2            1 RES1               0.0000
     10 N10          7.7560   7.9780   9.6774 N.am           1 RES1               0.0000
     11 O11          7.3423   9.1942   7.8326 O.2            1 RES1               0.0000
     12 C12          4.4314   9.6380   9.9231 C.3            1 RES1               0.0000
     13 C13          6.2173   4.9793   6.0208 C.ar           1 RES1               0.0000
     14 C14          4.7734   6.5764   4.9990 C.ar           1 RES1               0.0000
     15 C15          7.4825   7.0039  10.5985 C.2            1 RES1               0.0000
     16 C16          5.4853   5.3978   4.9300 C.ar           1 RES1               0.0000
     17 O17          8.2899   6.6608  11.4573 O.2            1 RES1               0.0000
     18 H18          4.7763   9.6390   7.8088 H              1 RES1               0.0000
     19 H19          3.5248   8.5048   8.3473 H              1 RES1               0.0000
     20 H20          6.8205   5.3937   8.0268 H              1 RES1               0.0000
     21 H21          4.2246   8.2606   6.1880 H              1 RES1               0.0000
     22 H22          6.0705   5.6305  11.1369 H              1 RES1               0.0000
     23 H23          8.6508   8.4498   9.7614 H              1 RES1               0.0000
     24 H24          3.6921  10.4352   9.8842 H              1 RES1               0.0000
     25 H25          4.1477   8.9513  10.7179 H              1 RES1               0.0000
     26 H26          5.3918  10.0787  10.1827 H              1 RES1               0.0000
     27 H27          6.7804   4.0532   5.9711 H              1 RES1               0.0000
     28 H28          4.1965   6.9099   4.1427 H              1 RES1               0.0000
     29 H29          5.4699   4.8032   4.0226 H              1 RES1               0.0000
@<TRIPOS>BOND
    1    1    2 1     
    2    1    3 1     
    3    1    4 1     
    4    1    5 1     
    5    2    6 ar    
    6    2    7 ar    
    7    3    8 1     
    8    3    9 2     
    9    4   10 1     
   10    4   11 2     
   11    5   12 1     
   12    5   18 1     
   13    5   19 1     
   14    6   13 ar    
   15    6   20 1     
   16    7   14 ar    
   17    7   21 1     
   18    8   15 1     
   19    8   22 1     
   20   10   15 1     
   21   10   23 1     
   22   12   24 1     
   23   12   25 1     
   24   12   26 1     
   25   13   16 ar    
   26   13   27 1     
   27   14   16 ar    
   28   14   28 1     
   29   15   17 2     
   30   16   29 1     
@<TRIPOS>SUBSTRUCTURE
      1 RES1           1
@<TRIPOS>SET
DONOR_HYDROGENS      STATIC     ATOMS    <user>   **** ""
2 22 23
ATOM$RED        STATIC     ATOMS    COLORGROUP SYSTEM
2 22 23
@<TRIPOS>COMMENT
> <Gold.Version>
2022.3.0

> <Gold.Id.Protein>
unknown|4i1b_cavity_clean|pdb

> <Gold.Protein.RotatedTorsions>
[  987  978  977  976 ] final   11.31 input   59.99 | X-H torsion
[  952  941  940  939 ] final  -10.14 input   60.01 | X-H torsion

> <Gold.Protein.ActiveResidues>
 MET20   GLU37   GLN38   GLN39   VAL40   VAL41   LEU62   LYS63   GLU64   LYS65  

> <Gold.Protein.RotatedAtoms>
    5.5813   10.2083   12.3575 H   0  0  0  0  0  0  0  0  0  0  0  0  # atno 952  bound_to 941 
    4.4160   10.9319   13.2882 H   0  0  0  0  0  0  0  0  0  0  0  0  # atno 953  bound_to 941 
    4.8413   11.5942   11.8284 H   0  0  0  0  0  0  0  0  0  0  0  0  # atno 954  bound_to 941 
    9.7431    1.6017   10.9357 H   0  0  0  0  0  0  0  0  0  0  0  0  # atno 987  bound_to 978 
    8.1464    1.7530   11.3558 H   0  0  0  0  0  0  0  0  0  0  0  0  # atno 988  bound_to 978 
    8.5729    0.8594   10.0266 H   0  0  0  0  0  0  0  0  0  0  0  0  # atno 989  bound_to 978 

> <Gold.Score>
     Fitness  S(hb_ext) S(vdw_ext)  S(hb_int)    S(int)      intcor
     33.26       1.65      23.02       0.00      -0.05      -0.78

> <Gold.Goldscore.Fitness>
33.2558

> <Gold.Goldscore.Internal.Vdw>
-0.3866

> <Gold.Goldscore.Internal.Torsion>
-0.4340

> <Gold.Goldscore.External.Vdw>
23.0172

> <Gold.Goldscore.Internal.HBond>
0.0000

> <Gold.Goldscore.External.HBond>
1.6525

> <Gold.Goldscore.Internal.Correction>
-0.7752

> <Gold.Goldscore.Hbonds>
donor molecule, donor type, donor heavy atom, donor atom, acceptor molecule, acceptor atom, score
      P1  H   955   969       L1    17  0.55
      P1  H   605   612       L1    11  0.24
      P1  H   933   942       L1    11  0.04

> <Gold.Goldscore.Internal.Vdw.Weighted>
-0.3866

> <Gold.Goldscore.Internal.Torsion.Weighted>
-0.4340

> <Gold.Goldscore.External.Vdw.Weighted>
31.6487

> <Gold.Goldscore.Internal.HBond.Weighted>
0.0000

> <Gold.Goldscore.External.HBond.Weighted>
1.6525

> <Gold.Goldscore.Internal.Correction.Weighted>
-0.7752

> <Gold.Rescore>
     Score     S(PLP)   S(hbond)     S(cho)   S(metal)  DE(clash)   DE(tors)     intcor
     37.61     -33.15       1.62       0.00       0.00       0.00       0.19       ----

> <Gold.PLP.Fitness>
37.6091

> <Gold.PLP.PLP>
-33.1490

> <Gold.PLP.part.hbond>
-2.0000

> <Gold.PLP.part.metal>
0.0000

> <Gold.PLP.part.buried>
-6.3401

> <Gold.PLP.part.nonpolar>
-26.0576

> <Gold.PLP.part.repulsive>
1.3237

> <Gold.PLP.ligand.clash>
0.0000

> <Gold.PLP.ligand.torsion>
0.1940

> <Gold.PLP.Chemscore.Hbond>
1.6160

> <Gold.PLP.Chemscore.CHOScore>
0.0000

> <Gold.PLP.Chemscore.Metal>
0.0000

> <Gold.Chemscore.Hbonds>
donor molecule, donor type, donor heavy atom, donor atom, acceptor molecule, acceptor atom, score
      P1  H   955   969       L1    17  1.00
      P1  H   605   612       L1    11  0.51

> <Gold.PLP.Chemscore.Internal.Correction>
   9.000000E+99

