#       Name:                CT1002167954
#       Creating user name   hitesit
#       Creation time:       Sun Apr 16 02:21:33 2023


#       File generated by GOLD software.
#

@<TRIPOS>MOLECULE
CT1002167954|ligand_prepared|mol2|1|dock10
    29    30     1
SMALL
NO_CHARGES


@<TRIPOS>ATOM
      1 C1          23.9658  24.5194  14.0191 C.3            1 RES1               0.0000
      2 C2          23.2611  25.3590  12.9341 C.ar           1 RES1               0.0000
      3 C3          23.1520  23.2368  14.1641 C.2            1 RES1               0.0000
      4 C4          25.3924  24.2988  13.5283 C.2            1 RES1               0.0000
      5 C5          24.0372  25.2144  15.3987 C.3            1 RES1               0.0000
      6 C6          23.3514  26.7477  12.9428 C.ar           1 RES1               0.0000
      7 C7          22.5208  24.7601  11.9183 C.ar           1 RES1               0.0000
      8 N8          23.6809  22.0910  13.6470 N.am           1 RES1               0.0000
      9 O9          22.0453  23.2381  14.6890 O.2            1 RES1               0.0000
     10 N10         25.7761  23.0190  13.2240 N.am           1 RES1               0.0000
     11 O11         26.1825  25.2240  13.3865 O.2            1 RES1               0.0000
     12 C12         24.4691  24.2924  16.5281 C.3            1 RES1               0.0000
     13 C13         22.7266  27.5100  11.9697 C.ar           1 RES1               0.0000
     14 C14         21.8966  25.5243  10.9462 C.ar           1 RES1               0.0000
     15 C15         24.9757  21.9093  13.2318 C.2            1 RES1               0.0000
     16 C16         21.9993  26.8989  10.9707 C.ar           1 RES1               0.0000
     17 O17         25.3794  20.8007  12.8926 O.2            1 RES1               0.0000
     18 H18         24.7437  26.0513  15.3363 H              1 RES1               0.0000
     19 H19         23.0492  25.6268  15.6379 H              1 RES1               0.0000
     20 H20         23.9173  27.2464  13.7226 H              1 RES1               0.0000
     21 H21         22.4254  23.6803  11.8798 H              1 RES1               0.0000
     22 H22         23.0560  21.2958  13.5610 H              1 RES1               0.0000
     23 H23         26.7486  22.8808  12.9681 H              1 RES1               0.0000
     24 H24         24.5027  24.8299  17.4734 H              1 RES1               0.0000
     25 H25         23.7745  23.4618  16.6351 H              1 RES1               0.0000
     26 H26         25.4589  23.8838  16.3352 H              1 RES1               0.0000
     27 H27         22.8094  28.5916  11.9942 H              1 RES1               0.0000
     28 H28         21.3247  25.0392  10.1622 H              1 RES1               0.0000
     29 H29         21.5103  27.4963  10.2082 H              1 RES1               0.0000
@<TRIPOS>BOND
    1    1    2 1     
    2    1    3 1     
    3    1    4 1     
    4    1    5 1     
    5    2    6 ar    
    6    2    7 ar    
    7    3    8 1     
    8    3    9 2     
    9    4   10 1     
   10    4   11 2     
   11    5   12 1     
   12    5   18 1     
   13    5   19 1     
   14    6   13 ar    
   15    6   20 1     
   16    7   14 ar    
   17    7   21 1     
   18    8   15 1     
   19    8   22 1     
   20   10   15 1     
   21   10   23 1     
   22   12   24 1     
   23   12   25 1     
   24   12   26 1     
   25   13   16 ar    
   26   13   27 1     
   27   14   16 ar    
   28   14   28 1     
   29   15   17 2     
   30   16   29 1     
@<TRIPOS>SUBSTRUCTURE
      1 RES1           1
@<TRIPOS>SET
DONOR_HYDROGENS      STATIC     ATOMS    <user>   **** ""
2 22 23
ATOM$RED        STATIC     ATOMS    COLORGROUP SYSTEM
2 22 23
@<TRIPOS>COMMENT
> <Gold.Version>
2022.3.0

> <Gold.Id.Protein>
unknown|4i1b_cavity_clean|pdb

> <Gold.Protein.RotatedTorsions>
[ 1748 1737 1736 1735 ] final  -43.52 input   60.00 | X-H torsion
[ 1645 1634 1633 1632 ] final   86.65 input   60.03 | X-H torsion

> <Gold.Protein.ActiveResidues>
 ARG4    LEU6    MET44   PHE46   VAL47   GLN48   GLY49   GLU51   ILE56   PRO57  
 LYS103  GLU105  ASN108  LYS109  LEU110  MET148  PHE150 

> <Gold.Protein.RotatedAtoms>
   16.2709   24.9539    4.9498 H   0  0  0  0  0  0  0  0  0  0  0  0  # atno 1645 bound_to 1634
   17.8585   25.4202    4.8718 H   0  0  0  0  0  0  0  0  0  0  0  0  # atno 1646 bound_to 1634
   17.0459   25.0129    3.4865 H   0  0  0  0  0  0  0  0  0  0  0  0  # atno 1647 bound_to 1634
    9.5505   25.9893   -9.3047 H   0  0  0  0  0  0  0  0  0  0  0  0  # atno 1748 bound_to 1737
    8.8399   24.5421   -8.9196 H   0  0  0  0  0  0  0  0  0  0  0  0  # atno 1749 bound_to 1737
    7.9236   25.9204   -8.9967 H   0  0  0  0  0  0  0  0  0  0  0  0  # atno 1750 bound_to 1737

> <Gold.Score>
     Fitness  S(hb_ext) S(vdw_ext)  S(hb_int)    S(int)      intcor
     25.09       6.04      14.45       0.00      -0.82      -0.76

> <Gold.Goldscore.Fitness>
25.0877

> <Gold.Goldscore.Internal.Vdw>
-0.9890

> <Gold.Goldscore.Internal.Torsion>
-0.5903

> <Gold.Goldscore.External.Vdw>
14.4500

> <Gold.Goldscore.Internal.HBond>
0.0000

> <Gold.Goldscore.External.HBond>
6.0398

> <Gold.Goldscore.Internal.Correction>
-0.7585

> <Gold.Goldscore.Hbonds>
donor molecule, donor type, donor heavy atom, donor atom, acceptor molecule, acceptor atom, score
      P1  H    27    34       L1     9  1.00
      L1  H     8    22       P1   683  0.02

> <Gold.Goldscore.Internal.Vdw.Weighted>
-0.9890

> <Gold.Goldscore.Internal.Torsion.Weighted>
-0.5903

> <Gold.Goldscore.External.Vdw.Weighted>
19.8688

> <Gold.Goldscore.Internal.HBond.Weighted>
0.0000

> <Gold.Goldscore.External.HBond.Weighted>
6.0398

> <Gold.Goldscore.Internal.Correction.Weighted>
-0.7585

> <Gold.Rescore>
     Score     S(PLP)   S(hbond)     S(cho)   S(metal)  DE(clash)   DE(tors)     intcor
     24.87     -20.87       1.88       0.00       0.00       0.70       0.47       ----

> <Gold.PLP.Fitness>
24.8732

> <Gold.PLP.PLP>
-20.8706

> <Gold.PLP.part.hbond>
-2.0000

> <Gold.PLP.part.metal>
0.0000

> <Gold.PLP.part.buried>
-3.4631

> <Gold.PLP.part.nonpolar>
-16.6294

> <Gold.PLP.part.repulsive>
0.3676

> <Gold.PLP.ligand.clash>
0.6953

> <Gold.PLP.ligand.torsion>
0.4673

> <Gold.PLP.Chemscore.Hbond>
1.8775

> <Gold.PLP.Chemscore.CHOScore>
0.0000

> <Gold.PLP.Chemscore.Metal>
0.0000

> <Gold.Chemscore.Hbonds>
donor molecule, donor type, donor heavy atom, donor atom, acceptor molecule, acceptor atom, score
      L1  H     8    22       P1   683  0.75
      P1  H    27    34       L1     9  0.63

> <Gold.PLP.Chemscore.Internal.Correction>
   9.000000E+99

