#       Name:                CT1002167954
#       Creating user name   hitesit
#       Creation time:       Sun Apr 16 02:21:27 2023


#       File generated by GOLD software.
#

@<TRIPOS>MOLECULE
CT1002167954|ligand_prepared|mol2|1|dock4
    29    30     1
SMALL
NO_CHARGES


@<TRIPOS>ATOM
      1 C1           6.3629  27.3484   0.4309 C.3            1 RES1               0.0000
      2 C2           5.1209  26.8411  -0.3299 C.ar           1 RES1               0.0000
      3 C3           6.6022  26.3598   1.5682 C.2            1 RES1               0.0000
      4 C4           7.4938  27.4078  -0.5900 C.2            1 RES1               0.0000
      5 C5           6.1910  28.7611   1.0361 C.3            1 RES1               0.0000
      6 C6           4.8574  25.4780  -0.4272 C.ar           1 RES1               0.0000
      7 C7           4.2297  27.7224  -0.9361 C.ar           1 RES1               0.0000
      8 N8           7.6521  25.4980   1.4459 N.am           1 RES1               0.0000
      9 O9           5.8574  26.3105   2.5393 O.2            1 RES1               0.0000
     10 N10          8.5554  26.5578  -0.4224 N.am           1 RES1               0.0000
     11 O11          7.4673  28.1714  -1.5474 O.2            1 RES1               0.0000
     12 C12          7.3223  29.1719   1.9654 C.3            1 RES1               0.0000
     13 C13          3.7418  25.0130  -1.1035 C.ar           1 RES1               0.0000
     14 C14          3.1148  27.2552  -1.6122 C.ar           1 RES1               0.0000
     15 C15          8.6715  25.5842   0.5320 C.2            1 RES1               0.0000
     16 C16          2.8696  25.9011  -1.6961 C.ar           1 RES1               0.0000
     17 O17          9.6323  24.8220   0.5853 O.2            1 RES1               0.0000
     18 H18          6.1234  29.4896   0.2187 H              1 RES1               0.0000
     19 H19          5.2467  28.7940   1.5935 H              1 RES1               0.0000
     20 H20          5.5339  24.7640   0.0307 H              1 RES1               0.0000
     21 H21          4.4031  28.7919  -0.8839 H              1 RES1               0.0000
     22 H22          7.6821  24.7173   2.0939 H              1 RES1               0.0000
     23 H23          9.3312  26.6604  -1.0690 H              1 RES1               0.0000
     24 H24          7.1522  30.1705   2.3623 H              1 RES1               0.0000
     25 H25          7.4021  28.4831   2.8039 H              1 RES1               0.0000
     26 H26          8.2736  29.1746   1.4373 H              1 RES1               0.0000
     27 H27          3.5541  23.9463  -1.1678 H              1 RES1               0.0000
     28 H28          2.4313  27.9577  -2.0776 H              1 RES1               0.0000
     29 H29          1.9955  25.5365  -2.2255 H              1 RES1               0.0000
@<TRIPOS>BOND
    1    1    2 1     
    2    1    3 1     
    3    1    4 1     
    4    1    5 1     
    5    2    6 ar    
    6    2    7 ar    
    7    3    8 1     
    8    3    9 2     
    9    4   10 1     
   10    4   11 2     
   11    5   12 1     
   12    5   18 1     
   13    5   19 1     
   14    6   13 ar    
   15    6   20 1     
   16    7   14 ar    
   17    7   21 1     
   18    8   15 1     
   19    8   22 1     
   20   10   15 1     
   21   10   23 1     
   22   12   24 1     
   23   12   25 1     
   24   12   26 1     
   25   13   16 ar    
   26   13   27 1     
   27   14   16 ar    
   28   14   28 1     
   29   15   17 2     
   30   16   29 1     
@<TRIPOS>SUBSTRUCTURE
      1 RES1           1
@<TRIPOS>SET
DONOR_HYDROGENS      STATIC     ATOMS    <user>   **** ""
2 22 23
ATOM$RED        STATIC     ATOMS    COLORGROUP SYSTEM
2 22 23
@<TRIPOS>COMMENT
> <Gold.Version>
2022.3.0

> <Gold.Id.Protein>
unknown|4i1b_cavity_clean|pdb

> <Gold.Protein.RotatedTorsions>
[ 1748 1737 1736 1735 ] final -129.40 input   60.00 | X-H torsion
[ 1645 1634 1633 1632 ] final  -88.15 input   60.03 | X-H torsion

> <Gold.Protein.ActiveResidues>
 ARG4    LEU6    MET44   PHE46   VAL47   GLN48   GLY49   GLU51   ILE56   PRO57  
 LYS103  GLU105  ASN108  LYS109  LEU110  MET148  PHE150 

> <Gold.Protein.RotatedAtoms>
   17.8002   25.2823    3.8515 H   0  0  0  0  0  0  0  0  0  0  0  0  # atno 1645 bound_to 1634
   16.2213   24.8354    4.0783 H   0  0  0  0  0  0  0  0  0  0  0  0  # atno 1646 bound_to 1634
   17.1539   25.2693    5.3771 H   0  0  0  0  0  0  0  0  0  0  0  0  # atno 1647 bound_to 1634
    8.2993   26.3142   -9.1345 H   0  0  0  0  0  0  0  0  0  0  0  0  # atno 1748 bound_to 1737
    9.7131   25.4554   -9.2403 H   0  0  0  0  0  0  0  0  0  0  0  0  # atno 1749 bound_to 1737
    8.3017   24.6823   -8.8462 H   0  0  0  0  0  0  0  0  0  0  0  0  # atno 1750 bound_to 1737

> <Gold.Score>
     Fitness  S(hb_ext) S(vdw_ext)  S(hb_int)    S(int)      intcor
     21.46       4.61      12.65       0.00      -0.53      -0.76

> <Gold.Goldscore.Fitness>
21.4619

> <Gold.Goldscore.Internal.Vdw>
-0.7910

> <Gold.Goldscore.Internal.Torsion>
-0.5014

> <Gold.Goldscore.External.Vdw>
12.6454

> <Gold.Goldscore.Internal.HBond>
0.0000

> <Gold.Goldscore.External.HBond>
4.6083

> <Gold.Goldscore.Internal.Correction>
-0.7585

> <Gold.Goldscore.Hbonds>
donor molecule, donor type, donor heavy atom, donor atom, acceptor molecule, acceptor atom, score
      P1  H  1721  1728       L1    11  0.04
      P1  H  2320  2328       L1    17  0.38
      L1  H     8    22       P1  2323  0.88
      L1  H    10    23       P1  1718  1.00

> <Gold.Goldscore.Internal.Vdw.Weighted>
-0.7910

> <Gold.Goldscore.Internal.Torsion.Weighted>
-0.5014

> <Gold.Goldscore.External.Vdw.Weighted>
17.3874

> <Gold.Goldscore.Internal.HBond.Weighted>
0.0000

> <Gold.Goldscore.External.HBond.Weighted>
4.6083

> <Gold.Goldscore.Internal.Correction.Weighted>
-0.7585

> <Gold.Rescore>
     Score     S(PLP)   S(hbond)     S(cho)   S(metal)  DE(clash)   DE(tors)     intcor
     27.44     -17.57       3.99       0.00       0.00       0.00       1.05       ----

> <Gold.PLP.Fitness>
27.4395

> <Gold.PLP.PLP>
-17.5732

> <Gold.PLP.part.hbond>
-4.0000

> <Gold.PLP.part.metal>
0.0000

> <Gold.PLP.part.buried>
-4.8839

> <Gold.PLP.part.nonpolar>
-9.9446

> <Gold.PLP.part.repulsive>
0.4710

> <Gold.PLP.ligand.clash>
0.0000

> <Gold.PLP.ligand.torsion>
1.0537

> <Gold.PLP.Chemscore.Hbond>
3.9913

> <Gold.PLP.Chemscore.CHOScore>
0.0000

> <Gold.PLP.Chemscore.Metal>
0.0000

> <Gold.Chemscore.Hbonds>
donor molecule, donor type, donor heavy atom, donor atom, acceptor molecule, acceptor atom, score
      L1  H     8    22       P1  2323  1.00
      L1  H    10    23       P1  1718  1.00
      P1  H  1721  1728       L1    11  0.73
      P1  H  2320  2328       L1    17  1.00

> <Gold.PLP.Chemscore.Internal.Correction>
   9.000000E+99

