#       Name:                CT1002167954
#       Creating user name   hitesit
#       Creation time:       Sun Apr 16 02:21:28 2023


#       File generated by GOLD software.
#

@<TRIPOS>MOLECULE
CT1002167954|ligand_prepared|mol2|1|dock6
    29    30     1
SMALL
NO_CHARGES


@<TRIPOS>ATOM
      1 C1          19.2021  26.3610  10.6142 C.3            1 RES1               0.0000
      2 C2          20.5746  25.7894  11.0243 C.ar           1 RES1               0.0000
      3 C3          19.4656  27.3183   9.4556 C.2            1 RES1               0.0000
      4 C4          18.3337  25.1631  10.2463 C.2            1 RES1               0.0000
      5 C5          18.4875  27.1405  11.7426 C.3            1 RES1               0.0000
      6 C6          21.6825  25.9434  10.1963 C.ar           1 RES1               0.0000
      7 C7          20.7487  25.1091  12.2267 C.ar           1 RES1               0.0000
      8 N8          19.1058  26.9107   8.2049 N.am           1 RES1               0.0000
      9 O9          20.0168  28.3979   9.6314 O.2            1 RES1               0.0000
     10 N10         17.9317  25.0378   8.9422 N.am           1 RES1               0.0000
     11 O11         18.0077  24.3176  11.0704 O.2            1 RES1               0.0000
     12 C12         17.1801  27.7851  11.3097 C.3            1 RES1               0.0000
     13 C13         22.9203  25.4383  10.5583 C.ar           1 RES1               0.0000
     14 C14         21.9874  24.6046  12.5867 C.ar           1 RES1               0.0000
     15 C15         18.3039  25.8407   7.8987 C.2            1 RES1               0.0000
     16 C16         23.0737  24.7691  11.7538 C.ar           1 RES1               0.0000
     17 O17         17.9449  25.6320   6.7434 O.2            1 RES1               0.0000
     18 H18         18.2843  26.4529  12.5729 H              1 RES1               0.0000
     19 H19         19.1614  27.9231  12.1127 H              1 RES1               0.0000
     20 H20         21.5804  26.4650   9.2505 H              1 RES1               0.0000
     21 H21         19.9080  24.9670  12.8971 H              1 RES1               0.0000
     22 H22         19.4663  27.4514   7.4252 H              1 RES1               0.0000
     23 H23         17.2961  24.2754   8.7298 H              1 RES1               0.0000
     24 H24         16.7202  28.3189  12.1387 H              1 RES1               0.0000
     25 H25         17.3485  28.4941  10.5018 H              1 RES1               0.0000
     26 H26         16.4767  27.0326  10.9592 H              1 RES1               0.0000
     27 H27         23.7717  25.5692   9.8987 H              1 RES1               0.0000
     28 H28         22.1034  24.0781  13.5283 H              1 RES1               0.0000
     29 H29         24.0435  24.3738  12.0374 H              1 RES1               0.0000
@<TRIPOS>BOND
    1    1    2 1     
    2    1    3 1     
    3    1    4 1     
    4    1    5 1     
    5    2    6 ar    
    6    2    7 ar    
    7    3    8 1     
    8    3    9 2     
    9    4   10 1     
   10    4   11 2     
   11    5   12 1     
   12    5   18 1     
   13    5   19 1     
   14    6   13 ar    
   15    6   20 1     
   16    7   14 ar    
   17    7   21 1     
   18    8   15 1     
   19    8   22 1     
   20   10   15 1     
   21   10   23 1     
   22   12   24 1     
   23   12   25 1     
   24   12   26 1     
   25   13   16 ar    
   26   13   27 1     
   27   14   16 ar    
   28   14   28 1     
   29   15   17 2     
   30   16   29 1     
@<TRIPOS>SUBSTRUCTURE
      1 RES1           1
@<TRIPOS>SET
DONOR_HYDROGENS      STATIC     ATOMS    <user>   **** ""
2 22 23
ATOM$RED        STATIC     ATOMS    COLORGROUP SYSTEM
2 22 23
@<TRIPOS>COMMENT
> <Gold.Version>
2022.3.0

> <Gold.Id.Protein>
unknown|4i1b_cavity_clean|pdb

> <Gold.Protein.RotatedTorsions>
[ 1748 1737 1736 1735 ] final  132.21 input   60.00 | X-H torsion
[ 1645 1634 1633 1632 ] final  -79.79 input   60.03 | X-H torsion

> <Gold.Protein.ActiveResidues>
 ARG4    LEU6    MET44   PHE46   VAL47   GLN48   GLY49   GLU51   ILE56   PRO57  
 LYS103  GLU105  ASN108  LYS109  LEU110  MET148  PHE150 

> <Gold.Protein.RotatedAtoms>
   17.7140   25.2443    3.7487 H   0  0  0  0  0  0  0  0  0  0  0  0  # atno 1645 bound_to 1634
   16.1759   24.8374    4.2101 H   0  0  0  0  0  0  0  0  0  0  0  0  # atno 1646 bound_to 1634
   17.2855   25.3053    5.3481 H   0  0  0  0  0  0  0  0  0  0  0  0  # atno 1647 bound_to 1634
    8.0339   24.9208   -8.8395 H   0  0  0  0  0  0  0  0  0  0  0  0  # atno 1748 bound_to 1737
    8.6330   26.4202   -9.2145 H   0  0  0  0  0  0  0  0  0  0  0  0  # atno 1749 bound_to 1737
    9.6472   25.1110   -9.1670 H   0  0  0  0  0  0  0  0  0  0  0  0  # atno 1750 bound_to 1737

> <Gold.Score>
     Fitness  S(hb_ext) S(vdw_ext)  S(hb_int)    S(int)      intcor
     29.31       5.60      18.50       0.00      -1.73      -0.76

> <Gold.Goldscore.Fitness>
29.3113

> <Gold.Goldscore.Internal.Vdw>
-2.0897

> <Gold.Goldscore.Internal.Torsion>
-0.3940

> <Gold.Goldscore.External.Vdw>
18.5022

> <Gold.Goldscore.Internal.HBond>
0.0000

> <Gold.Goldscore.External.HBond>
5.5959

> <Gold.Goldscore.Internal.Correction>
-0.7585

> <Gold.Goldscore.Hbonds>
donor molecule, donor type, donor heavy atom, donor atom, acceptor molecule, acceptor atom, score
      P1  H  1634  1647       L1    17  0.93

> <Gold.Goldscore.Internal.Vdw.Weighted>
-2.0897

> <Gold.Goldscore.Internal.Torsion.Weighted>
-0.3940

> <Gold.Goldscore.External.Vdw.Weighted>
25.4405

> <Gold.Goldscore.Internal.HBond.Weighted>
0.0000

> <Gold.Goldscore.External.HBond.Weighted>
5.5959

> <Gold.Goldscore.Internal.Correction.Weighted>
-0.7585

> <Gold.Rescore>
     Score     S(PLP)   S(hbond)     S(cho)   S(metal)  DE(clash)   DE(tors)     intcor
     24.68     -24.74       1.00       0.00       0.00       1.63       0.71       ----

> <Gold.PLP.Fitness>
24.6840

> <Gold.PLP.PLP>
-24.7442

> <Gold.PLP.part.hbond>
-1.0000

> <Gold.PLP.part.metal>
0.0000

> <Gold.PLP.part.buried>
-1.8135

> <Gold.PLP.part.nonpolar>
-22.2216

> <Gold.PLP.part.repulsive>
0.0551

> <Gold.PLP.ligand.clash>
1.6348

> <Gold.PLP.ligand.torsion>
0.7127

> <Gold.PLP.Chemscore.Hbond>
1.0000

> <Gold.PLP.Chemscore.CHOScore>
0.0000

> <Gold.PLP.Chemscore.Metal>
0.0000

> <Gold.Chemscore.Hbonds>
donor molecule, donor type, donor heavy atom, donor atom, acceptor molecule, acceptor atom, score
      P1  H  1634  1647       L1    17  0.94

> <Gold.PLP.Chemscore.Internal.Correction>
   9.000000E+99

