#       Name:                CT1002167954
#       Creating user name   hitesit
#       Creation time:       Sun Apr 16 02:21:31 2023


#       File generated by GOLD software.
#

@<TRIPOS>MOLECULE
CT1002167954|ligand_prepared|mol2|1|dock8
    29    30     1
SMALL
NO_CHARGES


@<TRIPOS>ATOM
      1 C1           6.4187  27.4329   0.6553 C.3            1 RES1               0.0000
      2 C2           6.6346  28.7744   1.3851 C.ar           1 RES1               0.0000
      3 C3           7.4308  27.3983  -0.4861 C.2            1 RES1               0.0000
      4 C4           6.6217  26.3413   1.7002 C.2            1 RES1               0.0000
      5 C5           5.0011  27.2666   0.0600 C.3            1 RES1               0.0000
      6 C6           7.6893  28.9330   2.2790 C.ar           1 RES1               0.0000
      7 C7           5.7905  29.8612   1.1730 C.ar           1 RES1               0.0000
      8 N8           8.5087  26.5740  -0.3499 N.am           1 RES1               0.0000
      9 O9           7.3057  28.1129  -1.4730 O.2            1 RES1               0.0000
     10 N10          7.6896  25.4964   1.5469 N.am           1 RES1               0.0000
     11 O11          5.8763  26.2157   2.6639 O.2            1 RES1               0.0000
     12 C12          4.7038  25.8587  -0.4316 C.3            1 RES1               0.0000
     13 C13          7.8947  30.1354   2.9350 C.ar           1 RES1               0.0000
     14 C14          5.9975  31.0628   1.8303 C.ar           1 RES1               0.0000
     15 C15          8.6599  25.5825   0.5859 C.2            1 RES1               0.0000
     16 C16          7.0493  31.2011   2.7108 C.ar           1 RES1               0.0000
     17 O17          9.6199  24.8183   0.5456 O.2            1 RES1               0.0000
     18 H18          4.2629  27.5368   0.8251 H              1 RES1               0.0000
     19 H19          4.8860  27.9649  -0.7783 H              1 RES1               0.0000
     20 H20          8.3635  28.1047   2.4700 H              1 RES1               0.0000
     21 H21          4.9560  29.7750   0.4855 H              1 RES1               0.0000
     22 H22          9.2730  26.7070  -1.0044 H              1 RES1               0.0000
     23 H23          7.7684  24.7323   2.2104 H              1 RES1               0.0000
     24 H24          3.6970  25.7971  -0.8393 H              1 RES1               0.0000
     25 H25          5.4038  25.5666  -1.2116 H              1 RES1               0.0000
     26 H26          4.7844  25.1411   0.3823 H              1 RES1               0.0000
     27 H27          8.7231  30.2388   3.6280 H              1 RES1               0.0000
     28 H28          5.3293  31.8986   1.6513 H              1 RES1               0.0000
     29 H29          7.2106  32.1431   3.2245 H              1 RES1               0.0000
@<TRIPOS>BOND
    1    1    2 1     
    2    1    3 1     
    3    1    4 1     
    4    1    5 1     
    5    2    6 ar    
    6    2    7 ar    
    7    3    8 1     
    8    3    9 2     
    9    4   10 1     
   10    4   11 2     
   11    5   12 1     
   12    5   18 1     
   13    5   19 1     
   14    6   13 ar    
   15    6   20 1     
   16    7   14 ar    
   17    7   21 1     
   18    8   15 1     
   19    8   22 1     
   20   10   15 1     
   21   10   23 1     
   22   12   24 1     
   23   12   25 1     
   24   12   26 1     
   25   13   16 ar    
   26   13   27 1     
   27   14   16 ar    
   28   14   28 1     
   29   15   17 2     
   30   16   29 1     
@<TRIPOS>SUBSTRUCTURE
      1 RES1           1
@<TRIPOS>SET
DONOR_HYDROGENS      STATIC     ATOMS    <user>   **** ""
2 22 23
ATOM$RED        STATIC     ATOMS    COLORGROUP SYSTEM
2 22 23
@<TRIPOS>COMMENT
> <Gold.Version>
2022.3.0

> <Gold.Id.Protein>
unknown|4i1b_cavity_clean|pdb

> <Gold.Protein.RotatedTorsions>
[ 1748 1737 1736 1735 ] final  -16.02 input   60.00 | X-H torsion
[ 1645 1634 1633 1632 ] final  -46.32 input   60.03 | X-H torsion

> <Gold.Protein.ActiveResidues>
 ARG4    LEU6    MET44   PHE46   VAL47   GLN48   GLY49   GLU51   ILE56   PRO57  
 LYS103  GLU105  ASN108  LYS109  LEU110  MET148  PHE150 

> <Gold.Protein.RotatedAtoms>
   17.2517   25.0763    3.5004 H   0  0  0  0  0  0  0  0  0  0  0  0  # atno 1645 bound_to 1634
   16.1857   24.9051    4.7567 H   0  0  0  0  0  0  0  0  0  0  0  0  # atno 1646 bound_to 1634
   17.7377   25.4055    5.0499 H   0  0  0  0  0  0  0  0  0  0  0  0  # atno 1647 bound_to 1634
    9.7069   25.5647   -9.2580 H   0  0  0  0  0  0  0  0  0  0  0  0  # atno 1748 bound_to 1737
    8.3984   24.6304   -8.8549 H   0  0  0  0  0  0  0  0  0  0  0  0  # atno 1749 bound_to 1737
    8.2086   26.2567   -9.1081 H   0  0  0  0  0  0  0  0  0  0  0  0  # atno 1750 bound_to 1737

> <Gold.Score>
     Fitness  S(hb_ext) S(vdw_ext)  S(hb_int)    S(int)      intcor
     21.05       4.47      12.13       0.00      -0.10      -0.76

> <Gold.Goldscore.Fitness>
21.0530

> <Gold.Goldscore.Internal.Vdw>
-0.3136

> <Gold.Goldscore.Internal.Torsion>
-0.5415

> <Gold.Goldscore.External.Vdw>
12.1340

> <Gold.Goldscore.Internal.HBond>
0.0000

> <Gold.Goldscore.External.HBond>
4.4653

> <Gold.Goldscore.Internal.Correction>
-0.7585

> <Gold.Goldscore.Hbonds>
donor molecule, donor type, donor heavy atom, donor atom, acceptor molecule, acceptor atom, score
      P1  H  1721  1728       L1     9  0.03
      P1  H  2320  2328       L1    17  0.40
      L1  H     8    22       P1  1718  1.00
      L1  H    10    23       P1  2323  0.81

> <Gold.Goldscore.Internal.Vdw.Weighted>
-0.3136

> <Gold.Goldscore.Internal.Torsion.Weighted>
-0.5415

> <Gold.Goldscore.External.Vdw.Weighted>
16.6843

> <Gold.Goldscore.Internal.HBond.Weighted>
0.0000

> <Gold.Goldscore.External.HBond.Weighted>
4.4653

> <Gold.Goldscore.Internal.Correction.Weighted>
-0.7585

> <Gold.Rescore>
     Score     S(PLP)   S(hbond)     S(cho)   S(metal)  DE(clash)   DE(tors)     intcor
     27.94     -16.09       3.96       0.00       0.00       0.00       0.02       ----

> <Gold.PLP.Fitness>
27.9355

> <Gold.PLP.PLP>
-16.0949

> <Gold.PLP.part.hbond>
-4.0000

> <Gold.PLP.part.metal>
0.0000

> <Gold.PLP.part.buried>
-4.8688

> <Gold.PLP.part.nonpolar>
-8.4474

> <Gold.PLP.part.repulsive>
0.4847

> <Gold.PLP.ligand.clash>
0.0000

> <Gold.PLP.ligand.torsion>
0.0178

> <Gold.PLP.Chemscore.Hbond>
3.9588

> <Gold.PLP.Chemscore.CHOScore>
0.0000

> <Gold.PLP.Chemscore.Metal>
0.0000

> <Gold.Chemscore.Hbonds>
donor molecule, donor type, donor heavy atom, donor atom, acceptor molecule, acceptor atom, score
      L1  H     8    22       P1  1718  1.00
      L1  H    10    23       P1  2323  1.00
      P1  H  1721  1728       L1     9  0.57
      P1  H  2320  2328       L1    17  1.00

> <Gold.PLP.Chemscore.Internal.Correction>
   9.000000E+99

