#       Name:                CT1002167954
#       Creating user name   hitesit
#       Creation time:       Sun Apr 16 02:21:32 2023


#       File generated by GOLD software.
#

@<TRIPOS>MOLECULE
CT1002167954|ligand_prepared|mol2|1|dock9
    29    30     1
SMALL
NO_CHARGES


@<TRIPOS>ATOM
      1 C1           6.2113  27.6746   0.4285 C.3            1 RES1               0.0000
      2 C2           6.4118  28.9522   1.2690 C.ar           1 RES1               0.0000
      3 C3           7.3344  27.6606  -0.6044 C.2            1 RES1               0.0000
      4 C4           6.2535  26.5079   1.4092 C.2            1 RES1               0.0000
      5 C5           4.8575  27.6233  -0.3171 C.3            1 RES1               0.0000
      6 C6           7.6448  29.2315   1.8506 C.ar           1 RES1               0.0000
      7 C7           5.3757  29.8606   1.4689 C.ar           1 RES1               0.0000
      8 N8           8.3528  26.7729  -0.4184 N.am           1 RES1               0.0000
      9 O9           7.3462  28.4437  -1.5461 O.2            1 RES1               0.0000
     10 N10          7.2912  25.6190   1.3054 N.am           1 RES1               0.0000
     11 O11          5.4065  26.3596   2.2815 O.2            1 RES1               0.0000
     12 C12          4.7120  26.4252  -1.2421 C.3            1 RES1               0.0000
     13 C13          7.8361  30.3789   2.6025 C.ar           1 RES1               0.0000
     14 C14          5.5691  31.0073   2.2213 C.ar           1 RES1               0.0000
     15 C15          8.3594  25.7158   0.4558 C.2            1 RES1               0.0000
     16 C16          6.7987  31.2677   2.7880 C.ar           1 RES1               0.0000
     17 O17          9.2820  24.9059   0.4590 O.2            1 RES1               0.0000
     18 H18          4.0477  27.5987   0.4225 H              1 RES1               0.0000
     19 H19          4.7446  28.5409  -0.9076 H              1 RES1               0.0000
     20 H20          8.4723  28.5426   1.7176 H              1 RES1               0.0000
     21 H21          4.3996  29.6758   1.0335 H              1 RES1               0.0000
     22 H22          9.1867  26.9075  -0.9814 H              1 RES1               0.0000
     23 H23          7.2649  24.8102   1.9181 H              1 RES1               0.0000
     24 H24          3.7448  26.4376  -1.7402 H              1 RES1               0.0000
     25 H25          5.4867  26.4314  -2.0062 H              1 RES1               0.0000
     26 H26          4.7939  25.4948  -0.6840 H              1 RES1               0.0000
     27 H27          8.8054  30.5785   3.0474 H              1 RES1               0.0000
     28 H28          4.7497  31.7037   2.3652 H              1 RES1               0.0000
     29 H29          6.9489  32.1666   3.3767 H              1 RES1               0.0000
@<TRIPOS>BOND
    1    1    2 1     
    2    1    3 1     
    3    1    4 1     
    4    1    5 1     
    5    2    6 ar    
    6    2    7 ar    
    7    3    8 1     
    8    3    9 2     
    9    4   10 1     
   10    4   11 2     
   11    5   12 1     
   12    5   18 1     
   13    5   19 1     
   14    6   13 ar    
   15    6   20 1     
   16    7   14 ar    
   17    7   21 1     
   18    8   15 1     
   19    8   22 1     
   20   10   15 1     
   21   10   23 1     
   22   12   24 1     
   23   12   25 1     
   24   12   26 1     
   25   13   16 ar    
   26   13   27 1     
   27   14   16 ar    
   28   14   28 1     
   29   15   17 2     
   30   16   29 1     
@<TRIPOS>SUBSTRUCTURE
      1 RES1           1
@<TRIPOS>SET
DONOR_HYDROGENS      STATIC     ATOMS    <user>   **** ""
2 22 23
ATOM$RED        STATIC     ATOMS    COLORGROUP SYSTEM
2 22 23
@<TRIPOS>COMMENT
> <Gold.Version>
2022.3.0

> <Gold.Id.Protein>
unknown|4i1b_cavity_clean|pdb

> <Gold.Protein.RotatedTorsions>
[ 1748 1737 1736 1735 ] final   74.40 input   60.00 | X-H torsion
[ 1645 1634 1633 1632 ] final  -70.35 input   60.03 | X-H torsion

> <Gold.Protein.ActiveResidues>
 ARG4    LEU6    MET44   PHE46   VAL47   GLN48   GLY49   GLU51   ILE56   PRO57  
 LYS103  GLU105  ASN108  LYS109  LEU110  MET148  PHE150 

> <Gold.Protein.RotatedAtoms>
   17.5999   25.1984    3.6503 H   0  0  0  0  0  0  0  0  0  0  0  0  # atno 1645 bound_to 1634
   16.1473   24.8471    4.3646 H   0  0  0  0  0  0  0  0  0  0  0  0  # atno 1646 bound_to 1634
   17.4281   25.3414    5.2920 H   0  0  0  0  0  0  0  0  0  0  0  0  # atno 1647 bound_to 1634
    8.8744   24.5441   -8.9257 H   0  0  0  0  0  0  0  0  0  0  0  0  # atno 1748 bound_to 1737
    7.9092   25.8903   -8.9890 H   0  0  0  0  0  0  0  0  0  0  0  0  # atno 1749 bound_to 1737
    9.5304   26.0176   -9.3063 H   0  0  0  0  0  0  0  0  0  0  0  0  # atno 1750 bound_to 1737

> <Gold.Score>
     Fitness  S(hb_ext) S(vdw_ext)  S(hb_int)    S(int)      intcor
     21.01       5.49      11.33       0.00      -0.06      -0.76

> <Gold.Goldscore.Fitness>
21.0082

> <Gold.Goldscore.Internal.Vdw>
-0.4062

> <Gold.Goldscore.Internal.Torsion>
-0.4119

> <Gold.Goldscore.External.Vdw>
11.3324

> <Gold.Goldscore.Internal.HBond>
0.0000

> <Gold.Goldscore.External.HBond>
5.4857

> <Gold.Goldscore.Internal.Correction>
-0.7585

> <Gold.Goldscore.Hbonds>
donor molecule, donor type, donor heavy atom, donor atom, acceptor molecule, acceptor atom, score
      P1  H  1721  1728       L1     9  0.07
      P1  H  2320  2328       L1    17  0.68
      L1  H     8    22       P1  1718  1.00
      L1  H    10    23       P1  2323  0.99

> <Gold.Goldscore.Internal.Vdw.Weighted>
-0.4062

> <Gold.Goldscore.Internal.Torsion.Weighted>
-0.4119

> <Gold.Goldscore.External.Vdw.Weighted>
15.5821

> <Gold.Goldscore.Internal.HBond.Weighted>
0.0000

> <Gold.Goldscore.External.HBond.Weighted>
5.4857

> <Gold.Goldscore.Internal.Correction.Weighted>
-0.7585

> <Gold.Rescore>
     Score     S(PLP)   S(hbond)     S(cho)   S(metal)  DE(clash)   DE(tors)     intcor
     27.85     -16.03       3.99       0.00       0.00       0.00       0.08       ----

> <Gold.PLP.Fitness>
27.8547

> <Gold.PLP.PLP>
-16.0318

> <Gold.PLP.part.hbond>
-4.0000

> <Gold.PLP.part.metal>
0.0000

> <Gold.PLP.part.buried>
-4.9015

> <Gold.PLP.part.nonpolar>
-8.4113

> <Gold.PLP.part.repulsive>
0.4854

> <Gold.PLP.ligand.clash>
0.0000

> <Gold.PLP.ligand.torsion>
0.0754

> <Gold.PLP.Chemscore.Hbond>
3.9913

> <Gold.PLP.Chemscore.CHOScore>
0.0000

> <Gold.PLP.Chemscore.Metal>
0.0000

> <Gold.Chemscore.Hbonds>
donor molecule, donor type, donor heavy atom, donor atom, acceptor molecule, acceptor atom, score
      L1  H     8    22       P1  1718  1.00
      L1  H    10    23       P1  2323  1.00
      P1  H  1721  1728       L1     9  1.00
      P1  H  2320  2328       L1    17  1.00

> <Gold.PLP.Chemscore.Internal.Correction>
   9.000000E+99

