#       Name:                CT1002167954
#       Creating user name   hitesit
#       Creation time:       Sun Apr 16 02:21:28 2023


#       File generated by GOLD software.
#

@<TRIPOS>MOLECULE
CT1002167954|ligand_prepared|mol2|1|dock5
    29    30     1
SMALL
NO_CHARGES


@<TRIPOS>ATOM
      1 C1          18.4428  26.8318  10.9242 C.3            1 RES1               0.0000
      2 C2          19.8888  26.4189  11.2666 C.ar           1 RES1               0.0000
      3 C3          18.5490  27.9306   9.8709 C.2            1 RES1               0.0000
      4 C4          17.7424  25.5683  10.4367 C.2            1 RES1               0.0000
      5 C5          17.6481  27.3833  12.1309 C.3            1 RES1               0.0000
      6 C6          20.4892  25.3410  10.6229 C.ar           1 RES1               0.0000
      7 C7          20.6345  27.1066  12.2203 C.ar           1 RES1               0.0000
      8 N8          18.2259  27.6075   8.5859 N.am           1 RES1               0.0000
      9 O9          18.9481  29.0529  10.1562 O.2            1 RES1               0.0000
     10 N10         17.3374  25.5227   9.1284 N.am           1 RES1               0.0000
     11 O11         17.5524  24.6052  11.1694 O.2            1 RES1               0.0000
     12 C12         16.1689  27.5920  11.8471 C.3            1 RES1               0.0000
     13 C13         21.7891  24.9659  10.9197 C.ar           1 RES1               0.0000
     14 C14         21.9343  26.7298  12.5157 C.ar           1 RES1               0.0000
     15 C15         17.5748  26.4729   8.1729 C.2            1 RES1               0.0000
     16 C16         22.5125  25.6602  11.8658 C.ar           1 RES1               0.0000
     17 O17         17.2266  26.3359   7.0037 O.2            1 RES1               0.0000
     18 H18         17.7515  26.6850  12.9706 H              1 RES1               0.0000
     19 H19         18.0878  28.3411  12.4352 H              1 RES1               0.0000
     20 H20         19.9346  24.7811   9.8773 H              1 RES1               0.0000
     21 H21         20.1997  27.9506  12.7449 H              1 RES1               0.0000
     22 H22         18.4932  28.2706   7.8655 H              1 RES1               0.0000
     23 H23         16.8099  24.7048   8.8402 H              1 RES1               0.0000
     24 H24         15.6585  27.9798  12.7262 H              1 RES1               0.0000
     25 H25         16.0284  28.3006  11.0335 H              1 RES1               0.0000
     26 H26         15.6941  26.6543  11.5657 H              1 RES1               0.0000
     27 H27         22.2391  24.1226  10.4063 H              1 RES1               0.0000
     28 H28         22.4997  27.2787  13.2614 H              1 RES1               0.0000
     29 H29         23.5309  25.3665  12.0977 H              1 RES1               0.0000
@<TRIPOS>BOND
    1    1    2 1     
    2    1    3 1     
    3    1    4 1     
    4    1    5 1     
    5    2    6 ar    
    6    2    7 ar    
    7    3    8 1     
    8    3    9 2     
    9    4   10 1     
   10    4   11 2     
   11    5   12 1     
   12    5   18 1     
   13    5   19 1     
   14    6   13 ar    
   15    6   20 1     
   16    7   14 ar    
   17    7   21 1     
   18    8   15 1     
   19    8   22 1     
   20   10   15 1     
   21   10   23 1     
   22   12   24 1     
   23   12   25 1     
   24   12   26 1     
   25   13   16 ar    
   26   13   27 1     
   27   14   16 ar    
   28   14   28 1     
   29   15   17 2     
   30   16   29 1     
@<TRIPOS>SUBSTRUCTURE
      1 RES1           1
@<TRIPOS>SET
DONOR_HYDROGENS      STATIC     ATOMS    <user>   **** ""
2 22 23
ATOM$RED        STATIC     ATOMS    COLORGROUP SYSTEM
2 22 23
@<TRIPOS>COMMENT
> <Gold.Version>
2022.3.0

> <Gold.Id.Protein>
unknown|4i1b_cavity_clean|pdb

> <Gold.Protein.RotatedTorsions>
[ 1748 1737 1736 1735 ] final   83.54 input   60.00 | X-H torsion
[ 1645 1634 1633 1632 ] final   34.32 input   60.03 | X-H torsion

> <Gold.Protein.ActiveResidues>
 ARG4    LEU6    MET44   PHE46   VAL47   GLN48   GLY49   GLU51   ILE56   PRO57  
 LYS103  GLU105  ASN108  LYS109  LEU110  MET148  PHE150 

> <Gold.Protein.RotatedAtoms>
   16.2056   24.8357    4.1170 H   0  0  0  0  0  0  0  0  0  0  0  0  # atno 1645 bound_to 1634
   17.1929   25.2798    5.3707 H   0  0  0  0  0  0  0  0  0  0  0  0  # atno 1646 bound_to 1634
   17.7763   25.2714    3.8201 H   0  0  0  0  0  0  0  0  0  0  0  0  # atno 1647 bound_to 1634
    8.7244   24.5443   -8.8985 H   0  0  0  0  0  0  0  0  0  0  0  0  # atno 1748 bound_to 1737
    7.9804   26.0202   -9.0249 H   0  0  0  0  0  0  0  0  0  0  0  0  # atno 1749 bound_to 1737
    9.6092   25.8875   -9.2976 H   0  0  0  0  0  0  0  0  0  0  0  0  # atno 1750 bound_to 1737

> <Gold.Score>
     Fitness  S(hb_ext) S(vdw_ext)  S(hb_int)    S(int)      intcor
     21.11       5.90      11.63       0.00      -0.79      -0.76

> <Gold.Goldscore.Fitness>
21.1080

> <Gold.Goldscore.Internal.Vdw>
-1.0627

> <Gold.Goldscore.Internal.Torsion>
-0.4865

> <Gold.Goldscore.External.Vdw>
11.6318

> <Gold.Goldscore.Internal.HBond>
0.0000

> <Gold.Goldscore.External.HBond>
5.9049

> <Gold.Goldscore.Internal.Correction>
-0.7585

> <Gold.Goldscore.Hbonds>
donor molecule, donor type, donor heavy atom, donor atom, acceptor molecule, acceptor atom, score
      P1  H  1634  1646       L1    17  0.98

> <Gold.Goldscore.Internal.Vdw.Weighted>
-1.0627

> <Gold.Goldscore.Internal.Torsion.Weighted>
-0.4865

> <Gold.Goldscore.External.Vdw.Weighted>
15.9938

> <Gold.Goldscore.Internal.HBond.Weighted>
0.0000

> <Gold.Goldscore.External.HBond.Weighted>
5.9049

> <Gold.Goldscore.Internal.Correction.Weighted>
-0.7585

> <Gold.Rescore>
     Score     S(PLP)   S(hbond)     S(cho)   S(metal)  DE(clash)   DE(tors)     intcor
     18.89     -18.30       1.00       0.00       0.00       1.57       0.42       ----

> <Gold.PLP.Fitness>
18.8930

> <Gold.PLP.PLP>
-18.2956

> <Gold.PLP.part.hbond>
-1.0000

> <Gold.PLP.part.metal>
0.0000

> <Gold.PLP.part.buried>
-3.5734

> <Gold.PLP.part.nonpolar>
-14.4348

> <Gold.PLP.part.repulsive>
0.0644

> <Gold.PLP.ligand.clash>
1.5705

> <Gold.PLP.ligand.torsion>
0.4160

> <Gold.PLP.Chemscore.Hbond>
1.0000

> <Gold.PLP.Chemscore.CHOScore>
0.0000

> <Gold.PLP.Chemscore.Metal>
0.0000

> <Gold.Chemscore.Hbonds>
donor molecule, donor type, donor heavy atom, donor atom, acceptor molecule, acceptor atom, score
      P1  H  1634  1646       L1    17  1.00

> <Gold.PLP.Chemscore.Internal.Correction>
   9.000000E+99

