#       Name:                CT1002167954
#       Creating user name   hitesit
#       Creation time:       Sun Apr 16 20:16:03 2023


#       File generated by GOLD software.
#

@<TRIPOS>MOLECULE
CT1002167954|ligand_prepared|mol2|1|dock7
    29    30     1
SMALL
NO_CHARGES


@<TRIPOS>ATOM
      1 C1         129.3374 143.0413  99.3666 C.3            1 RES1               0.0000
      2 C2         128.3820 144.0347 100.0587 C.ar           1 RES1               0.0000
      3 C3         128.7065 141.6608  99.5223 C.2            1 RES1               0.0000
      4 C4         129.4640 143.5080  97.9206 C.2            1 RES1               0.0000
      5 C5         130.7553 143.0057  99.9829 C.3            1 RES1               0.0000
      6 C6         127.1103 144.2699  99.5446 C.ar           1 RES1               0.0000
      7 C7         128.7563 144.7202 101.2113 C.ar           1 RES1               0.0000
      8 N8         128.1339 141.0997  98.4190 N.am           1 RES1               0.0000
      9 O9         128.6769 141.0903 100.6058 O.2            1 RES1               0.0000
     10 N10        128.9669 142.6935  96.9372 N.am           1 RES1               0.0000
     11 O11        129.9747 144.5814  97.6252 O.2            1 RES1               0.0000
     12 C12        131.7409 142.1483  99.2046 C.3            1 RES1               0.0000
     13 C13        126.2431 145.1560 100.1620 C.ar           1 RES1               0.0000
     14 C14        127.8877 145.6061 101.8271 C.ar           1 RES1               0.0000
     15 C15        128.2801 141.5247  97.1230 C.2            1 RES1               0.0000
     16 C16        126.6310 145.8243 101.3038 C.ar           1 RES1               0.0000
     17 O17        127.8160 140.8753  96.1902 O.2            1 RES1               0.0000
     18 H18        131.1434 144.0304 100.0354 H              1 RES1               0.0000
     19 H19        130.6853 142.6208 101.0078 H              1 RES1               0.0000
     20 H20        126.7884 143.7550  98.6455 H              1 RES1               0.0000
     21 H21        129.7405 144.5651 101.6402 H              1 RES1               0.0000
     22 H22        127.5421 140.2893  98.5718 H              1 RES1               0.0000
     23 H23        129.1234 142.9854  95.9777 H              1 RES1               0.0000
     24 H24        132.7196 142.1580  99.6796 H              1 RES1               0.0000
     25 H25        131.3988 141.1167  99.1542 H              1 RES1               0.0000
     26 H26        131.8542 142.5179  98.1875 H              1 RES1               0.0000
     27 H27        125.2557 145.3252  99.7454 H              1 RES1               0.0000
     28 H28        128.1973 146.1303 102.7251 H              1 RES1               0.0000
     29 H29        125.9513 146.5180 101.7875 H              1 RES1               0.0000
@<TRIPOS>BOND
    1    1    2 1     
    2    1    3 1     
    3    1    4 1     
    4    1    5 1     
    5    2    6 ar    
    6    2    7 ar    
    7    3    8 1     
    8    3    9 2     
    9    4   10 1     
   10    4   11 2     
   11    5   12 1     
   12    5   18 1     
   13    5   19 1     
   14    6   13 ar    
   15    6   20 1     
   16    7   14 ar    
   17    7   21 1     
   18    8   15 1     
   19    8   22 1     
   20   10   15 1     
   21   10   23 1     
   22   12   24 1     
   23   12   25 1     
   24   12   26 1     
   25   13   16 ar    
   26   13   27 1     
   27   14   16 ar    
   28   14   28 1     
   29   15   17 2     
   30   16   29 1     
@<TRIPOS>SUBSTRUCTURE
      1 RES1           1
@<TRIPOS>SET
DONOR_HYDROGENS      STATIC     ATOMS    <user>   **** ""
2 22 23
ATOM$RED        STATIC     ATOMS    COLORGROUP SYSTEM
2 22 23
@<TRIPOS>COMMENT
> <Gold.Version>
2022.3.0

> <Gold.Id.Protein>
unknown|7rmh_clean|pdb

> <Gold.Protein.RotatedTorsions>
[ 6069 6060 6061 6062 ] final   41.43 input   58.43 | X-H torsion
[ 6095 6088 6089 6090 ] final -113.25 input   80.40 | X-H torsion
[ 12696 12688 12689 12690 ] final    3.79 input   27.23 | X-H torsion
[ 12955 12944 12943 12942 ] final -136.33 input   60.02 | X-H torsion
[  130  121  122  123 ] final -143.65 input   59.99 | X-H torsion
[ 10541 10525 10526 10527 ] final  -90.89 input   86.97 | X-H torsion
[ 12729 12724 12723 12720 ] final  -22.28 input   60.00 | X-H torsion
[ 7603 7585 7586 7587 ] final -123.65 input   21.72 | X-H torsion
[ 14135 14126 14127 14128 ] final  -14.80 input  100.92 | X-H torsion
[ 11478 11469 11468 11466 ] final -144.25 input   60.02 | X-H torsion
[ 14106 14097 14096 14094 ] final  114.56 input   60.00 | X-H torsion
[ 14257 14248 14247 14245 ] final    7.79 input   60.01 | X-H torsion
[ 12659 12654 12653 12650 ] final  137.33 input   60.00 | X-H torsion
[ 11470 11458 11459 11460 ] final  -56.44 input   94.06 | X-H torsion
[ 4835 4821 4822 4823 ] final  164.83 input   91.76 | X-H torsion
[ 4838 4826 4825 4822 ] final  -83.51 input   59.99 | X-H torsion
[ 13071 13062 13061 13059 ] final  -68.01 input   60.03 | X-H torsion
[ 6481 6474 6475 6476 ] final -120.62 input  103.68 | X-H torsion
[ 13126 13119 13120 13121 ] final   47.90 input  114.72 | X-H torsion
[ 13129 13124 13123 13120 ] final  -81.63 input   59.98 | X-H torsion
[ 14703 6063 6062 6061 ] final  161.29 input    0.00 | X-H torsion
[ 14710 6091 6090 6089 ] final  162.16 input   -0.00 | X-H torsion
[ 14727  124  123  122 ] final   10.10 input   -0.00 | X-H torsion
[ 14734 7588 7587 7586 ] final  142.64 input    0.00 | X-H torsion
[ 14820 6477 6476 6475 ] final -126.58 input   -0.00 | X-H torsion

> <Gold.Protein.ActiveResidues>
 ASN23   THR86   GLU172  THR173  VAL200  LYS280  GLN24   PHE25   GLN27   MET81  
 PHE84   ASN85   VAL88   ASN89   TYR92   ALA93   VAL94   HIS95   ASN96   GLU97  
 TRP98   TYR100  CYS105  HIS108  ASN109  PRO112  ILE113  VAL116  PHE117  LEU161 
 ALA162  GLN165  SER169  THR170  MET174  PRO175  SER176  ARG177  VAL178  VAL179 
 CYS180  MET181  ILE182  GLU183  TRP184  LYS190  TYR196  HIS197  THR201  ILE204 
 TRP261  PHE264  HIS265  PHE267  PHE268  LEU269  PRO271  PRO275  LEU277  TYR278 
 LEU279  LYS281  PHE282  ILE283  GLN284  GLN285  VAL286  TYR287  LEU288  ILE290 
 MET291  ALA294  MET295 

> <Gold.Protein.RotatedAtoms>
  120.5389  149.8732   87.1173 H   0  0  0  0  0  0  0  0  0  0  0  0  # atno 130  bound_to 121 
  119.3489  148.7218   87.1844 H   0  0  0  0  0  0  0  0  0  0  0  0  # atno 131  bound_to 121 
  127.7072  145.7014  113.2639 H   0  0  0  0  0  0  0  0  0  0  0  0  # atno 4835 bound_to 4821
  126.3396  142.8172  113.2146 H   0  0  0  0  0  0  0  0  0  0  0  0  # atno 4838 bound_to 4826
  131.5811  156.2066   95.9273 H   0  0  0  0  0  0  0  0  0  0  0  0  # atno 6069 bound_to 6060
  130.3824  157.6185   93.6183 H   0  0  0  0  0  0  0  0  0  0  0  0  # atno 6095 bound_to 6088
  146.2999  138.9734  106.7797 H   0  0  0  0  0  0  0  0  0  0  0  0  # atno 6481 bound_to 6474
  125.0118  140.0711   90.0001 H   0  0  0  0  0  0  0  0  0  0  0  0  # atno 7603 bound_to 7585
  119.4716  147.7911   89.6242 H   0  0  0  0  0  0  0  0  0  0  0  0  # atno 10541 bound_to 10525
  122.3358  149.4241  104.6639 H   0  0  0  0  0  0  0  0  0  0  0  0  # atno 11470 bound_to 11458
  128.7667  149.1013   98.4382 H   0  0  0  0  0  0  0  0  0  0  0  0  # atno 11478 bound_to 11469
  135.5229  153.6924  102.9645 H   0  0  0  0  0  0  0  0  0  0  0  0  # atno 12659 bound_to 12654
  126.8292  157.6536   91.0712 H   0  0  0  0  0  0  0  0  0  0  0  0  # atno 12696 bound_to 12688
  121.3020  154.1644   89.5369 H   0  0  0  0  0  0  0  0  0  0  0  0  # atno 12729 bound_to 12724
  139.7529  142.8563   90.3561 H   0  0  0  0  0  0  0  0  0  0  0  0  # atno 12955 bound_to 12944
  140.4380  141.5556   91.1208 H   0  0  0  0  0  0  0  0  0  0  0  0  # atno 12956 bound_to 12944
  140.0581  142.9185   91.9842 H   0  0  0  0  0  0  0  0  0  0  0  0  # atno 12957 bound_to 12944
  142.7273  144.4466  107.2714 H   0  0  0  0  0  0  0  0  0  0  0  0  # atno 13071 bound_to 13062
  144.3146  137.0313  106.6834 H   0  0  0  0  0  0  0  0  0  0  0  0  # atno 13126 bound_to 13119
  140.6512  135.6372  105.2847 H   0  0  0  0  0  0  0  0  0  0  0  0  # atno 13129 bound_to 13124
  133.8600  138.8292   97.5020 H   0  0  0  0  0  0  0  0  0  0  0  0  # atno 14106 bound_to 14097
  122.3685  138.2117   92.3443 H   0  0  0  0  0  0  0  0  0  0  0  0  # atno 14135 bound_to 14126
  129.6352  143.5698  104.6193 H   0  0  0  0  0  0  0  0  0  0  0  0  # atno 14257 bound_to 14248
  132.8786  157.3743   96.0629 LP  0  0  0  0  0  0  0  0  0  0  0  0  # atno 14702 bound_to 6060
  128.7628  156.7958   94.2509 LP  0  0  0  0  0  0  0  0  0  0  0  0  # atno 14703 bound_to 6063
  130.0316  155.7504   94.7964 LP  0  0  0  0  0  0  0  0  0  0  0  0  # atno 14704 bound_to 6063
  131.0369  158.5349   92.2770 LP  0  0  0  0  0  0  0  0  0  0  0  0  # atno 14709 bound_to 6088
  129.6944  156.5447   89.4834 LP  0  0  0  0  0  0  0  0  0  0  0  0  # atno 14710 bound_to 6091
  130.5966  157.7756   90.3023 LP  0  0  0  0  0  0  0  0  0  0  0  0  # atno 14711 bound_to 6091
  119.0212  150.2780   87.6060 LP  0  0  0  0  0  0  0  0  0  0  0  0  # atno 14720 bound_to 121 
  117.5928  148.9516   89.5011 LP  0  0  0  0  0  0  0  0  0  0  0  0  # atno 14727 bound_to 124 
  117.6537  147.4107   90.2899 LP  0  0  0  0  0  0  0  0  0  0  0  0  # atno 14728 bound_to 124 
  119.7911  153.9792   88.9618 LP  0  0  0  0  0  0  0  0  0  0  0  0  # atno 14729 bound_to 12724
  120.1324  153.5870   90.5097 LP  0  0  0  0  0  0  0  0  0  0  0  0  # atno 14730 bound_to 12724
  125.5430  139.1486   91.3885 LP  0  0  0  0  0  0  0  0  0  0  0  0  # atno 14733 bound_to 7585
  123.3386  140.2793   93.8096 LP  0  0  0  0  0  0  0  0  0  0  0  0  # atno 14734 bound_to 7588
  124.6286  139.2808   93.2275 LP  0  0  0  0  0  0  0  0  0  0  0  0  # atno 14735 bound_to 7588
  129.3264  150.5604   98.8916 LP  0  0  0  0  0  0  0  0  0  0  0  0  # atno 14738 bound_to 11469
  127.9449  150.4448   98.0286 LP  0  0  0  0  0  0  0  0  0  0  0  0  # atno 14739 bound_to 11469
  132.5125  138.0085   97.9020 LP  0  0  0  0  0  0  0  0  0  0  0  0  # atno 14744 bound_to 14097
  132.6258  139.6049   98.2262 LP  0  0  0  0  0  0  0  0  0  0  0  0  # atno 14745 bound_to 14097
  128.2402  143.6350  105.4547 LP  0  0  0  0  0  0  0  0  0  0  0  0  # atno 14762 bound_to 14248
  128.4438  144.5627  104.1263 LP  0  0  0  0  0  0  0  0  0  0  0  0  # atno 14763 bound_to 14248
  135.9341  154.3718  101.5442 LP  0  0  0  0  0  0  0  0  0  0  0  0  # atno 14798 bound_to 12654
  136.1234  155.2045  102.9361 LP  0  0  0  0  0  0  0  0  0  0  0  0  # atno 14799 bound_to 12654
  127.1454  147.0740  112.3483 LP  0  0  0  0  0  0  0  0  0  0  0  0  # atno 14808 bound_to 4821
  126.0939  143.3670  114.7266 LP  0  0  0  0  0  0  0  0  0  0  0  0  # atno 14809 bound_to 4826
  127.1995  144.0854  113.7631 LP  0  0  0  0  0  0  0  0  0  0  0  0  # atno 14810 bound_to 4826
  141.8571  145.3187  106.2084 LP  0  0  0  0  0  0  0  0  0  0  0  0  # atno 14815 bound_to 13062
  143.1782  145.9688  106.9145 LP  0  0  0  0  0  0  0  0  0  0  0  0  # atno 14816 bound_to 13062
  143.2219  136.8067  109.5096 LP  0  0  0  0  0  0  0  0  0  0  0  0  # atno 14820 bound_to 6477
  142.4988  138.3806  109.5127 LP  0  0  0  0  0  0  0  0  0  0  0  0  # atno 14821 bound_to 6477
  144.9937  138.5785  105.6998 LP  0  0  0  0  0  0  0  0  0  0  0  0  # atno 14822 bound_to 6474
  141.7181  135.5010  104.0635 LP  0  0  0  0  0  0  0  0  0  0  0  0  # atno 14827 bound_to 13124
  141.8371  136.7395  105.1212 LP  0  0  0  0  0  0  0  0  0  0  0  0  # atno 14828 bound_to 13124

> <Gold.Score>
     Fitness  S(hb_ext) S(vdw_ext)  S(hb_int)    S(int)      intcor
     32.43       0.05      23.69       0.00      -0.19      -0.76

> <Gold.Goldscore.Fitness>
32.4314

> <Gold.Goldscore.Internal.Vdw>
-0.5117

> <Gold.Goldscore.Internal.Torsion>
-0.4354

> <Gold.Goldscore.External.Vdw>
23.6879

> <Gold.Goldscore.Internal.HBond>
0.0000

> <Gold.Goldscore.External.HBond>
0.0491

> <Gold.Goldscore.Internal.Correction>
-0.7585

> <Gold.Goldscore.Hbonds>
donor molecule, donor type, donor heavy atom, donor atom, acceptor molecule, acceptor atom, score
      L1  H     8    22       P1 14171  0.02

> <Gold.Goldscore.Internal.Vdw.Weighted>
-0.5117

> <Gold.Goldscore.Internal.Torsion.Weighted>
-0.4354

> <Gold.Goldscore.External.Vdw.Weighted>
32.5708

> <Gold.Goldscore.Internal.HBond.Weighted>
0.0000

> <Gold.Goldscore.External.HBond.Weighted>
0.0491

> <Gold.Goldscore.Internal.Correction.Weighted>
-0.7585

> <Gold.Rescore>
     Score     S(PLP)   S(hbond)     S(cho)   S(metal)  DE(clash)   DE(tors)     intcor
     38.59     -40.90       0.00       0.00       0.00       0.19       1.06       ----

> <Gold.PLP.Fitness>
38.5938

> <Gold.PLP.PLP>
-40.9008

> <Gold.PLP.part.hbond>
0.0000

> <Gold.PLP.part.metal>
0.0000

> <Gold.PLP.part.buried>
-5.0102

> <Gold.PLP.part.nonpolar>
-36.6734

> <Gold.PLP.part.repulsive>
0.1602

> <Gold.PLP.ligand.clash>
0.1914

> <Gold.PLP.ligand.torsion>
1.0578

> <Gold.PLP.Chemscore.Hbond>
0.0000

> <Gold.PLP.Chemscore.CHOScore>
0.0000

> <Gold.PLP.Chemscore.Metal>
0.0000

> <Gold.PLP.Chemscore.Internal.Correction>
   9.000000E+99

