#       Name:                CT1002167954
#       Creating user name   hitesit
#       Creation time:       Sun Apr 16 20:16:08 2023


#       File generated by GOLD software.
#

@<TRIPOS>MOLECULE
CT1002167954|ligand_prepared|mol2|1|dock10
    29    30     1
SMALL
NO_CHARGES


@<TRIPOS>ATOM
      1 C1         128.7613 142.8605  97.8708 C.3            1 RES1               0.0000
      2 C2         127.8605 143.6053  98.8771 C.ar           1 RES1               0.0000
      3 C3         128.8789 143.7665  96.6487 C.2            1 RES1               0.0000
      4 C4         130.0831 142.6077  98.5873 C.2            1 RES1               0.0000
      5 C5         128.1950 141.4948  97.4171 C.3            1 RES1               0.0000
      6 C6         126.7526 142.9762  99.4370 C.ar           1 RES1               0.0000
      7 C7         128.1257 144.9184  99.2565 C.ar           1 RES1               0.0000
      8 N8         130.0616 144.4178  96.4565 N.am           1 RES1               0.0000
      9 O9         127.9350 143.9379  95.8871 O.2            1 RES1               0.0000
     10 N10        131.2021 143.2401  98.1124 N.am           1 RES1               0.0000
     11 O11        130.1627 141.8795  99.5690 O.2            1 RES1               0.0000
     12 C12        129.0134 140.8239  96.3252 C.3            1 RES1               0.0000
     13 C13        125.9408 143.6349 100.3456 C.ar           1 RES1               0.0000
     14 C14        127.3126 145.5754 100.1652 C.ar           1 RES1               0.0000
     15 C15        131.2457 144.1578  97.0983 C.2            1 RES1               0.0000
     16 C16        126.2205 144.9346 100.7106 C.ar           1 RES1               0.0000
     17 O17        132.2819 144.7249  96.7642 O.2            1 RES1               0.0000
     18 H18        128.1487 140.8258  98.2851 H              1 RES1               0.0000
     19 H19        127.1711 141.6410  97.0514 H              1 RES1               0.0000
     20 H20        126.5153 141.9545  99.1599 H              1 RES1               0.0000
     21 H21        128.9789 145.4426  98.8395 H              1 RES1               0.0000
     22 H22        130.0660 145.1676  95.7723 H              1 RES1               0.0000
     23 H23        132.0844 143.0050  98.5558 H              1 RES1               0.0000
     24 H24        128.5727 139.8698  96.0439 H              1 RES1               0.0000
     25 H25        129.0593 141.4509  95.4371 H              1 RES1               0.0000
     26 H26        130.0311 140.6405  96.6636 H              1 RES1               0.0000
     27 H27        125.0818 143.1267 100.7709 H              1 RES1               0.0000
     28 H28        127.5361 146.5984 100.4491 H              1 RES1               0.0000
     29 H29        125.5847 145.4502 101.4227 H              1 RES1               0.0000
@<TRIPOS>BOND
    1    1    2 1     
    2    1    3 1     
    3    1    4 1     
    4    1    5 1     
    5    2    6 ar    
    6    2    7 ar    
    7    3    8 1     
    8    3    9 2     
    9    4   10 1     
   10    4   11 2     
   11    5   12 1     
   12    5   18 1     
   13    5   19 1     
   14    6   13 ar    
   15    6   20 1     
   16    7   14 ar    
   17    7   21 1     
   18    8   15 1     
   19    8   22 1     
   20   10   15 1     
   21   10   23 1     
   22   12   24 1     
   23   12   25 1     
   24   12   26 1     
   25   13   16 ar    
   26   13   27 1     
   27   14   16 ar    
   28   14   28 1     
   29   15   17 2     
   30   16   29 1     
@<TRIPOS>SUBSTRUCTURE
      1 RES1           1
@<TRIPOS>SET
DONOR_HYDROGENS      STATIC     ATOMS    <user>   **** ""
2 22 23
ATOM$RED        STATIC     ATOMS    COLORGROUP SYSTEM
2 22 23
@<TRIPOS>COMMENT
> <Gold.Version>
2022.3.0

> <Gold.Id.Protein>
unknown|7rmh_clean|pdb

> <Gold.Protein.RotatedTorsions>
[ 6069 6060 6061 6062 ] final -102.61 input   58.43 | X-H torsion
[ 6095 6088 6089 6090 ] final   84.99 input   80.40 | X-H torsion
[ 12696 12688 12689 12690 ] final  114.87 input   27.23 | X-H torsion
[ 12955 12944 12943 12942 ] final -137.46 input   60.02 | X-H torsion
[  130  121  122  123 ] final    4.80 input   59.99 | X-H torsion
[ 10541 10525 10526 10527 ] final  140.45 input   86.97 | X-H torsion
[ 12729 12724 12723 12720 ] final   74.07 input   60.00 | X-H torsion
[ 7603 7585 7586 7587 ] final  -34.04 input   21.72 | X-H torsion
[ 14135 14126 14127 14128 ] final   63.36 input  100.92 | X-H torsion
[ 11478 11469 11468 11466 ] final  140.06 input   60.02 | X-H torsion
[ 14106 14097 14096 14094 ] final -133.71 input   60.00 | X-H torsion
[ 14257 14248 14247 14245 ] final  118.26 input   60.01 | X-H torsion
[ 12659 12654 12653 12650 ] final   65.29 input   60.00 | X-H torsion
[ 11470 11458 11459 11460 ] final   59.87 input   94.06 | X-H torsion
[ 4835 4821 4822 4823 ] final   -5.10 input   91.76 | X-H torsion
[ 4838 4826 4825 4822 ] final  105.17 input   59.99 | X-H torsion
[ 13071 13062 13061 13059 ] final -128.65 input   60.03 | X-H torsion
[ 6481 6474 6475 6476 ] final -143.73 input  103.68 | X-H torsion
[ 13126 13119 13120 13121 ] final  155.66 input  114.72 | X-H torsion
[ 13129 13124 13123 13120 ] final   38.34 input   59.98 | X-H torsion
[ 14703 6063 6062 6061 ] final  179.18 input    0.00 | X-H torsion
[ 14710 6091 6090 6089 ] final   44.04 input   -0.00 | X-H torsion
[ 14727  124  123  122 ] final   43.15 input   -0.00 | X-H torsion
[ 14734 7588 7587 7586 ] final   75.92 input    0.00 | X-H torsion
[ 14820 6477 6476 6475 ] final  148.36 input   -0.00 | X-H torsion

> <Gold.Protein.ActiveResidues>
 ASN23   THR86   GLU172  THR173  VAL200  LYS280  GLN24   PHE25   GLN27   MET81  
 PHE84   ASN85   VAL88   ASN89   TYR92   ALA93   VAL94   HIS95   ASN96   GLU97  
 TRP98   TYR100  CYS105  HIS108  ASN109  PRO112  ILE113  VAL116  PHE117  LEU161 
 ALA162  GLN165  SER169  THR170  MET174  PRO175  SER176  ARG177  VAL178  VAL179 
 CYS180  MET181  ILE182  GLU183  TRP184  LYS190  TYR196  HIS197  THR201  ILE204 
 TRP261  PHE264  HIS265  PHE267  PHE268  LEU269  PRO271  PRO275  LEU277  TYR278 
 LEU279  LYS281  PHE282  ILE283  GLN284  GLN285  VAL286  TYR287  LEU288  ILE290 
 MET291  ALA294  MET295 

> <Gold.Protein.RotatedAtoms>
  118.9632  148.9457   87.3335 H   0  0  0  0  0  0  0  0  0  0  0  0  # atno 130  bound_to 121 
  119.4132  150.5258   87.5503 H   0  0  0  0  0  0  0  0  0  0  0  0  # atno 131  bound_to 121 
  127.0800  147.1251  112.4783 H   0  0  0  0  0  0  0  0  0  0  0  0  # atno 4835 bound_to 4821
  126.6477  143.9597  114.6595 H   0  0  0  0  0  0  0  0  0  0  0  0  # atno 4838 bound_to 4826
  132.4255  157.6584   96.1481 H   0  0  0  0  0  0  0  0  0  0  0  0  # atno 6069 bound_to 6060
  130.9734  158.7668   92.4217 H   0  0  0  0  0  0  0  0  0  0  0  0  # atno 6095 bound_to 6088
  146.2320  139.2832  106.6361 H   0  0  0  0  0  0  0  0  0  0  0  0  # atno 6481 bound_to 6474
  125.0482  140.2768   91.2346 H   0  0  0  0  0  0  0  0  0  0  0  0  # atno 7603 bound_to 7585
  120.6220  146.9514   88.9188 H   0  0  0  0  0  0  0  0  0  0  0  0  # atno 10541 bound_to 10525
  123.5309  148.7347  105.2677 H   0  0  0  0  0  0  0  0  0  0  0  0  # atno 11470 bound_to 11458
  129.4679  149.8672   98.9296 H   0  0  0  0  0  0  0  0  0  0  0  0  # atno 11478 bound_to 11469
  135.6535  153.7418  101.8723 H   0  0  0  0  0  0  0  0  0  0  0  0  # atno 12659 bound_to 12654
  127.7822  156.5627   91.4374 H   0  0  0  0  0  0  0  0  0  0  0  0  # atno 12696 bound_to 12688
  120.5062  153.6605   90.5660 H   0  0  0  0  0  0  0  0  0  0  0  0  # atno 12729 bound_to 12724
  139.7486  142.8718   90.3661 H   0  0  0  0  0  0  0  0  0  0  0  0  # atno 12955 bound_to 12944
  140.4344  141.5550   91.1022 H   0  0  0  0  0  0  0  0  0  0  0  0  # atno 12956 bound_to 12944
  140.0659  142.9035   91.9928 H   0  0  0  0  0  0  0  0  0  0  0  0  # atno 12957 bound_to 12944
  141.9966  144.5273  106.6773 H   0  0  0  0  0  0  0  0  0  0  0  0  # atno 13071 bound_to 13062
  143.1161  137.5097  106.0785 H   0  0  0  0  0  0  0  0  0  0  0  0  # atno 13126 bound_to 13119
  141.8346  136.7330  105.1204 H   0  0  0  0  0  0  0  0  0  0  0  0  # atno 13129 bound_to 13124
  132.7429  139.6598   98.1851 H   0  0  0  0  0  0  0  0  0  0  0  0  # atno 14106 bound_to 14097
  121.3557  138.1460   91.8836 H   0  0  0  0  0  0  0  0  0  0  0  0  # atno 14135 bound_to 14126
  128.5827  144.5412  104.0580 H   0  0  0  0  0  0  0  0  0  0  0  0  # atno 14257 bound_to 14248
  132.0629  155.9717   95.8496 LP  0  0  0  0  0  0  0  0  0  0  0  0  # atno 14702 bound_to 6060
  128.7673  156.6238   94.0438 LP  0  0  0  0  0  0  0  0  0  0  0  0  # atno 14703 bound_to 6063
  130.0270  155.9224   95.0036 LP  0  0  0  0  0  0  0  0  0  0  0  0  # atno 14704 bound_to 6063
  130.4671  157.4278   93.4307 LP  0  0  0  0  0  0  0  0  0  0  0  0  # atno 14709 bound_to 6088
  130.6032  156.9336   90.5923 LP  0  0  0  0  0  0  0  0  0  0  0  0  # atno 14710 bound_to 6091
  129.6879  157.3867   89.1934 LP  0  0  0  0  0  0  0  0  0  0  0  0  # atno 14711 bound_to 6091
  120.5108  149.4151   87.0324 LP  0  0  0  0  0  0  0  0  0  0  0  0  # atno 14720 bound_to 121 
  117.4994  148.6132   89.1553 LP  0  0  0  0  0  0  0  0  0  0  0  0  # atno 14727 bound_to 124 
  117.7471  147.7490   90.6358 LP  0  0  0  0  0  0  0  0  0  0  0  0  # atno 14728 bound_to 124 
  121.1544  154.2341   89.1881 LP  0  0  0  0  0  0  0  0  0  0  0  0  # atno 14729 bound_to 12724
  119.5708  153.8397   89.2467 LP  0  0  0  0  0  0  0  0  0  0  0  0  # atno 14730 bound_to 12724
  125.5077  138.9492   90.1920 LP  0  0  0  0  0  0  0  0  0  0  0  0  # atno 14733 bound_to 7585
  123.9623  140.5624   93.1478 LP  0  0  0  0  0  0  0  0  0  0  0  0  # atno 14734 bound_to 7588
  124.0049  138.9977   93.8893 LP  0  0  0  0  0  0  0  0  0  0  0  0  # atno 14735 bound_to 7588
  128.3789  150.9188   98.3327 LP  0  0  0  0  0  0  0  0  0  0  0  0  # atno 14738 bound_to 11469
  128.1863  149.3151   98.0926 LP  0  0  0  0  0  0  0  0  0  0  0  0  # atno 14739 bound_to 11469
  133.8482  138.6961   97.4788 LP  0  0  0  0  0  0  0  0  0  0  0  0  # atno 14744 bound_to 14097
  132.4146  138.0813   97.9619 LP  0  0  0  0  0  0  0  0  0  0  0  0  # atno 14745 bound_to 14097
  129.6108  143.4856  104.7486 LP  0  0  0  0  0  0  0  0  0  0  0  0  # atno 14762 bound_to 14248
  128.1330  143.7340  105.3975 LP  0  0  0  0  0  0  0  0  0  0  0  0  # atno 14763 bound_to 14248
  136.2144  155.2389  102.1759 LP  0  0  0  0  0  0  0  0  0  0  0  0  # atno 14798 bound_to 12654
  135.7116  154.2876  103.4042 LP  0  0  0  0  0  0  0  0  0  0  0  0  # atno 14799 bound_to 12654
  127.7678  145.6612  113.1279 LP  0  0  0  0  0  0  0  0  0  0  0  0  # atno 14808 bound_to 4821
  127.0648  143.5859  113.1314 LP  0  0  0  0  0  0  0  0  0  0  0  0  # atno 14809 bound_to 4826
  125.9184  142.7164  113.9038 LP  0  0  0  0  0  0  0  0  0  0  0  0  # atno 14810 bound_to 4826
  142.4564  146.0485  106.3276 LP  0  0  0  0  0  0  0  0  0  0  0  0  # atno 14815 bound_to 13062
  143.3147  145.1576  107.3936 LP  0  0  0  0  0  0  0  0  0  0  0  0  # atno 14816 bound_to 13062
  142.1729  137.1963  109.1655 LP  0  0  0  0  0  0  0  0  0  0  0  0  # atno 14820 bound_to 6477
  143.5478  137.9910  109.8568 LP  0  0  0  0  0  0  0  0  0  0  0  0  # atno 14821 bound_to 6477
  145.0617  138.2683  105.8436 LP  0  0  0  0  0  0  0  0  0  0  0  0  # atno 14822 bound_to 6474
  140.6448  135.6354  105.2866 LP  0  0  0  0  0  0  0  0  0  0  0  0  # atno 14827 bound_to 13124
  141.7183  135.5012  104.0635 LP  0  0  0  0  0  0  0  0  0  0  0  0  # atno 14828 bound_to 13124

> <Gold.Score>
     Fitness  S(hb_ext) S(vdw_ext)  S(hb_int)    S(int)      intcor
     28.78       0.00      21.49       0.00      -0.76      -0.76

> <Gold.Goldscore.Fitness>
28.7792

> <Gold.Goldscore.Internal.Vdw>
-1.1003

> <Gold.Goldscore.Internal.Torsion>
-0.4214

> <Gold.Goldscore.External.Vdw>
21.4853

> <Gold.Goldscore.Internal.HBond>
0.0000

> <Gold.Goldscore.External.HBond>
0.0000

> <Gold.Goldscore.Internal.Correction>
-0.7585

> <Gold.Goldscore.Internal.Vdw.Weighted>
-1.1003

> <Gold.Goldscore.Internal.Torsion.Weighted>
-0.4214

> <Gold.Goldscore.External.Vdw.Weighted>
29.5423

> <Gold.Goldscore.Internal.HBond.Weighted>
0.0000

> <Gold.Goldscore.External.HBond.Weighted>
0.0000

> <Gold.Goldscore.Internal.Correction.Weighted>
-0.7585

> <Gold.Rescore>
     Score     S(PLP)   S(hbond)     S(cho)   S(metal)  DE(clash)   DE(tors)     intcor
     37.92     -38.58       0.00       0.00       0.00       0.00       0.33       ----

> <Gold.PLP.Fitness>
37.9212

> <Gold.PLP.PLP>
-38.5802

> <Gold.PLP.part.hbond>
0.0000

> <Gold.PLP.part.metal>
0.0000

> <Gold.PLP.part.buried>
-3.4062

> <Gold.PLP.part.nonpolar>
-35.5205

> <Gold.PLP.part.repulsive>
0.0065

> <Gold.PLP.ligand.clash>
0.0000

> <Gold.PLP.ligand.torsion>
0.3295

> <Gold.PLP.Chemscore.Hbond>
0.0000

> <Gold.PLP.Chemscore.CHOScore>
0.0000

> <Gold.PLP.Chemscore.Metal>
0.0000

> <Gold.PLP.Chemscore.Internal.Correction>
   9.000000E+99

