#       Name:                CT1002167954
#       Creating user name   hitesit
#       Creation time:       Sun Apr 16 20:16:01 2023


#       File generated by GOLD software.
#

@<TRIPOS>MOLECULE
CT1002167954|ligand_prepared|mol2|1|dock6
    29    30     1
SMALL
NO_CHARGES


@<TRIPOS>ATOM
      1 C1         127.9191 142.8472  96.6769 C.3            1 RES1               0.0000
      2 C2         127.1238 143.2492  97.9357 C.ar           1 RES1               0.0000
      3 C3         128.8158 144.0347  96.3393 C.2            1 RES1               0.0000
      4 C4         128.6798 141.5768  97.0405 C.2            1 RES1               0.0000
      5 C5         127.0312 142.5375  95.4492 C.3            1 RES1               0.0000
      6 C6         127.7819 143.5382  99.1274 C.ar           1 RES1               0.0000
      7 C7         125.7344 143.3377  97.9201 C.ar           1 RES1               0.0000
      8 N8         130.1483 143.9159  96.6044 N.am           1 RES1               0.0000
      9 O9         128.3550 145.0743  95.8841 O.2            1 RES1               0.0000
     10 N10        130.0483 141.6369  97.0797 N.am           1 RES1               0.0000
     11 O11        128.1059 140.5287  97.3096 O.2            1 RES1               0.0000
     12 C12        127.8135 142.0963  94.2223 C.3            1 RES1               0.0000
     13 C13        127.0768 143.9053 100.2616 C.ar           1 RES1               0.0000
     14 C14        125.0312 143.7048  99.0555 C.ar           1 RES1               0.0000
     15 C15        130.8157 142.7566  96.9082 C.2            1 RES1               0.0000
     16 C16        125.7012 143.9893 100.2263 C.ar           1 RES1               0.0000
     17 O17        132.0388 142.7420  97.0126 O.2            1 RES1               0.0000
     18 H18        126.3204 141.7464  95.7181 H              1 RES1               0.0000
     19 H19        126.4537 143.4351  95.1957 H              1 RES1               0.0000
     20 H20        128.8639 143.4751  99.1749 H              1 RES1               0.0000
     21 H21        125.1862 143.1174  97.0104 H              1 RES1               0.0000
     22 H22        130.6994 144.7677  96.5741 H              1 RES1               0.0000
     23 H23        130.5404 140.7661  97.2527 H              1 RES1               0.0000
     24 H24        127.1430 141.8918  93.3902 H              1 RES1               0.0000
     25 H25        128.5127 142.8699  93.9119 H              1 RES1               0.0000
     26 H26        128.3803 141.1912  94.4311 H              1 RES1               0.0000
     27 H27        127.6087 144.1269 101.1809 H              1 RES1               0.0000
     28 H28        123.9486 143.7691  99.0234 H              1 RES1               0.0000
     29 H29        125.1491 144.2773 101.1149 H              1 RES1               0.0000
@<TRIPOS>BOND
    1    1    2 1     
    2    1    3 1     
    3    1    4 1     
    4    1    5 1     
    5    2    6 ar    
    6    2    7 ar    
    7    3    8 1     
    8    3    9 2     
    9    4   10 1     
   10    4   11 2     
   11    5   12 1     
   12    5   18 1     
   13    5   19 1     
   14    6   13 ar    
   15    6   20 1     
   16    7   14 ar    
   17    7   21 1     
   18    8   15 1     
   19    8   22 1     
   20   10   15 1     
   21   10   23 1     
   22   12   24 1     
   23   12   25 1     
   24   12   26 1     
   25   13   16 ar    
   26   13   27 1     
   27   14   16 ar    
   28   14   28 1     
   29   15   17 2     
   30   16   29 1     
@<TRIPOS>SUBSTRUCTURE
      1 RES1           1
@<TRIPOS>SET
DONOR_HYDROGENS      STATIC     ATOMS    <user>   **** ""
2 22 23
ATOM$RED        STATIC     ATOMS    COLORGROUP SYSTEM
2 22 23
@<TRIPOS>COMMENT
> <Gold.Version>
2022.3.0

> <Gold.Id.Protein>
unknown|7rmh_clean|pdb

> <Gold.Protein.RotatedTorsions>
[ 6069 6060 6061 6062 ] final -139.67 input   58.43 | X-H torsion
[ 6095 6088 6089 6090 ] final   28.94 input   80.40 | X-H torsion
[ 12696 12688 12689 12690 ] final  168.30 input   27.23 | X-H torsion
[ 12955 12944 12943 12942 ] final -178.97 input   60.02 | X-H torsion
[  130  121  122  123 ] final  107.00 input   59.99 | X-H torsion
[ 10541 10525 10526 10527 ] final   40.77 input   86.97 | X-H torsion
[ 12729 12724 12723 12720 ] final   77.14 input   60.00 | X-H torsion
[ 7603 7585 7586 7587 ] final  -14.70 input   21.72 | X-H torsion
[ 14135 14126 14127 14128 ] final  -25.68 input  100.92 | X-H torsion
[ 11478 11469 11468 11466 ] final   69.41 input   60.02 | X-H torsion
[ 14106 14097 14096 14094 ] final  -25.88 input   60.00 | X-H torsion
[ 14257 14248 14247 14245 ] final  139.45 input   60.01 | X-H torsion
[ 12659 12654 12653 12650 ] final  -64.10 input   60.00 | X-H torsion
[ 11470 11458 11459 11460 ] final  -92.53 input   94.06 | X-H torsion
[ 4835 4821 4822 4823 ] final  179.14 input   91.76 | X-H torsion
[ 4838 4826 4825 4822 ] final  -11.26 input   59.99 | X-H torsion
[ 13071 13062 13061 13059 ] final   49.00 input   60.03 | X-H torsion
[ 6481 6474 6475 6476 ] final -130.07 input  103.68 | X-H torsion
[ 13126 13119 13120 13121 ] final   53.01 input  114.72 | X-H torsion
[ 13129 13124 13123 13120 ] final   10.34 input   59.98 | X-H torsion
[ 14703 6063 6062 6061 ] final -130.58 input    0.00 | X-H torsion
[ 14710 6091 6090 6089 ] final   69.37 input   -0.00 | X-H torsion
[ 14727  124  123  122 ] final  -61.33 input   -0.00 | X-H torsion
[ 14734 7588 7587 7586 ] final   45.12 input    0.00 | X-H torsion
[ 14820 6477 6476 6475 ] final -117.03 input   -0.00 | X-H torsion

> <Gold.Protein.ActiveResidues>
 ASN23   THR86   GLU172  THR173  VAL200  LYS280  GLN24   PHE25   GLN27   MET81  
 PHE84   ASN85   VAL88   ASN89   TYR92   ALA93   VAL94   HIS95   ASN96   GLU97  
 TRP98   TYR100  CYS105  HIS108  ASN109  PRO112  ILE113  VAL116  PHE117  LEU161 
 ALA162  GLN165  SER169  THR170  MET174  PRO175  SER176  ARG177  VAL178  VAL179 
 CYS180  MET181  ILE182  GLU183  TRP184  LYS190  TYR196  HIS197  THR201  ILE204 
 TRP261  PHE264  HIS265  PHE267  PHE268  LEU269  PRO271  PRO275  LEU277  TYR278 
 LEU279  LYS281  PHE282  ILE283  GLN284  GLN285  VAL286  TYR287  LEU288  ILE290 
 MET291  ALA294  MET295 

> <Gold.Protein.RotatedAtoms>
  119.1488  150.4000   87.5934 H   0  0  0  0  0  0  0  0  0  0  0  0  # atno 130  bound_to 121 
  120.5596  149.7020   87.0750 H   0  0  0  0  0  0  0  0  0  0  0  0  # atno 131  bound_to 121 
  127.8145  145.6568  113.0796 H   0  0  0  0  0  0  0  0  0  0  0  0  # atno 4835 bound_to 4821
  127.0846  143.6306  113.1643 H   0  0  0  0  0  0  0  0  0  0  0  0  # atno 4838 bound_to 4826
  132.9099  157.3868   96.0392 H   0  0  0  0  0  0  0  0  0  0  0  0  # atno 6069 bound_to 6060
  131.0251  157.9932   92.1042 H   0  0  0  0  0  0  0  0  0  0  0  0  # atno 6095 bound_to 6088
  146.2843  139.1069  106.7306 H   0  0  0  0  0  0  0  0  0  0  0  0  # atno 6481 bound_to 6474
  125.1468  140.0838   91.4398 H   0  0  0  0  0  0  0  0  0  0  0  0  # atno 7603 bound_to 7585
  120.8328  147.1836   90.2294 H   0  0  0  0  0  0  0  0  0  0  0  0  # atno 10541 bound_to 10525
  122.4443  149.9581  104.7321 H   0  0  0  0  0  0  0  0  0  0  0  0  # atno 11470 bound_to 11458
  129.0444  150.8456   98.7416 H   0  0  0  0  0  0  0  0  0  0  0  0  # atno 11478 bound_to 11469
  136.2156  155.2728  102.3262 H   0  0  0  0  0  0  0  0  0  0  0  0  # atno 12659 bound_to 12654
  128.4307  156.8426   91.0314 H   0  0  0  0  0  0  0  0  0  0  0  0  # atno 12696 bound_to 12688
  120.4575  153.6488   90.5666 H   0  0  0  0  0  0  0  0  0  0  0  0  # atno 12729 bound_to 12724
  139.6916  143.2802   90.9045 H   0  0  0  0  0  0  0  0  0  0  0  0  # atno 12955 bound_to 12944
  140.2243  141.7660   90.4930 H   0  0  0  0  0  0  0  0  0  0  0  0  # atno 12956 bound_to 12944
  140.3330  142.2839   92.0638 H   0  0  0  0  0  0  0  0  0  0  0  0  # atno 12957 bound_to 12944
  143.2008  145.9355  106.9436 H   0  0  0  0  0  0  0  0  0  0  0  0  # atno 13071 bound_to 13062
  144.2927  137.0276  106.6079 H   0  0  0  0  0  0  0  0  0  0  0  0  # atno 13126 bound_to 13119
  141.4949  136.6784  105.4150 H   0  0  0  0  0  0  0  0  0  0  0  0  # atno 13129 bound_to 13124
  132.2968  138.2201   98.0432 H   0  0  0  0  0  0  0  0  0  0  0  0  # atno 14106 bound_to 14097
  122.4764  138.3352   92.3785 H   0  0  0  0  0  0  0  0  0  0  0  0  # atno 14135 bound_to 14126
  128.2893  144.5507  104.2381 H   0  0  0  0  0  0  0  0  0  0  0  0  # atno 14257 bound_to 14248
  131.5948  156.2341   95.9548 LP  0  0  0  0  0  0  0  0  0  0  0  0  # atno 14702 bound_to 6060
  129.0818  156.0246   93.7564 LP  0  0  0  0  0  0  0  0  0  0  0  0  # atno 14703 bound_to 6063
  129.7126  156.5216   95.2910 LP  0  0  0  0  0  0  0  0  0  0  0  0  # atno 14704 bound_to 6063
  130.4173  158.1737   93.7368 LP  0  0  0  0  0  0  0  0  0  0  0  0  # atno 14709 bound_to 6088
  130.4450  156.6051   90.4864 LP  0  0  0  0  0  0  0  0  0  0  0  0  # atno 14710 bound_to 6091
  129.8460  157.7152   89.2993 LP  0  0  0  0  0  0  0  0  0  0  0  0  # atno 14711 bound_to 6091
  119.1986  148.7932   87.2444 LP  0  0  0  0  0  0  0  0  0  0  0  0  # atno 14720 bound_to 121 
  117.7844  148.7977   90.4819 LP  0  0  0  0  0  0  0  0  0  0  0  0  # atno 14727 bound_to 124 
  117.4621  147.5646   89.3091 LP  0  0  0  0  0  0  0  0  0  0  0  0  # atno 14728 bound_to 124 
  121.1823  154.2280   89.2297 LP  0  0  0  0  0  0  0  0  0  0  0  0  # atno 14729 bound_to 12724
  119.5920  153.8577   89.2045 LP  0  0  0  0  0  0  0  0  0  0  0  0  # atno 14730 bound_to 12724
  125.4121  139.1363   89.9931 LP  0  0  0  0  0  0  0  0  0  0  0  0  # atno 14733 bound_to 7585
  124.3202  140.3461   92.9562 LP  0  0  0  0  0  0  0  0  0  0  0  0  # atno 14734 bound_to 7588
  123.6470  139.2139   94.0809 LP  0  0  0  0  0  0  0  0  0  0  0  0  # atno 14735 bound_to 7588
  127.8783  150.0266   97.9559 LP  0  0  0  0  0  0  0  0  0  0  0  0  # atno 14738 bound_to 11469
  129.1133  149.2220   98.6588 LP  0  0  0  0  0  0  0  0  0  0  0  0  # atno 14739 bound_to 11469
  132.9225  139.7205   98.1235 LP  0  0  0  0  0  0  0  0  0  0  0  0  # atno 14744 bound_to 14097
  133.7893  138.5060   97.4600 LP  0  0  0  0  0  0  0  0  0  0  0  0  # atno 14745 bound_to 14097
  129.6480  143.6850  104.4674 LP  0  0  0  0  0  0  0  0  0  0  0  0  # atno 14762 bound_to 14248
  128.3910  143.5251  105.4974 LP  0  0  0  0  0  0  0  0  0  0  0  0  # atno 14763 bound_to 14248
  135.6604  154.1480  103.3629 LP  0  0  0  0  0  0  0  0  0  0  0  0  # atno 14798 bound_to 12654
  135.6997  153.8370  101.7603 LP  0  0  0  0  0  0  0  0  0  0  0  0  # atno 14799 bound_to 12654
  127.0389  147.1182  112.5311 LP  0  0  0  0  0  0  0  0  0  0  0  0  # atno 14808 bound_to 4821
  125.9346  142.7042  113.8485 LP  0  0  0  0  0  0  0  0  0  0  0  0  # atno 14809 bound_to 4826
  126.6089  143.9293  114.6918 LP  0  0  0  0  0  0  0  0  0  0  0  0  # atno 14810 bound_to 4826
  142.6868  144.4233  107.2547 LP  0  0  0  0  0  0  0  0  0  0  0  0  # atno 14815 bound_to 13062
  141.8717  145.3646  106.1983 LP  0  0  0  0  0  0  0  0  0  0  0  0  # atno 14816 bound_to 13062
  143.3365  136.8725  109.5672 LP  0  0  0  0  0  0  0  0  0  0  0  0  # atno 14820 bound_to 6477
  142.3842  138.3149  109.4551 LP  0  0  0  0  0  0  0  0  0  0  0  0  # atno 14821 bound_to 6477
  145.0093  138.4447  105.7489 LP  0  0  0  0  0  0  0  0  0  0  0  0  # atno 14822 bound_to 6474
  140.7011  135.3376  104.9456 LP  0  0  0  0  0  0  0  0  0  0  0  0  # atno 14827 bound_to 13124
  142.0041  135.8541  104.1077 LP  0  0  0  0  0  0  0  0  0  0  0  0  # atno 14828 bound_to 13124

> <Gold.Score>
     Fitness  S(hb_ext) S(vdw_ext)  S(hb_int)    S(int)      intcor
     32.15       0.19      23.29       0.00      -0.06      -0.76

> <Gold.Goldscore.Fitness>
32.1506

> <Gold.Goldscore.Internal.Vdw>
-0.4465

> <Gold.Goldscore.Internal.Torsion>
-0.3725

> <Gold.Goldscore.External.Vdw>
23.2857

> <Gold.Goldscore.Internal.HBond>
0.0000

> <Gold.Goldscore.External.HBond>
0.1931

> <Gold.Goldscore.Internal.Correction>
-0.7585

> <Gold.Goldscore.Hbonds>
donor molecule, donor type, donor heavy atom, donor atom, acceptor molecule, acceptor atom, score
      L1  H    10    23       P1 14097  0.10

> <Gold.Goldscore.Internal.Vdw.Weighted>
-0.4465

> <Gold.Goldscore.Internal.Torsion.Weighted>
-0.3725

> <Gold.Goldscore.External.Vdw.Weighted>
32.0178

> <Gold.Goldscore.Internal.HBond.Weighted>
0.0000

> <Gold.Goldscore.External.HBond.Weighted>
0.1931

> <Gold.Goldscore.Internal.Correction.Weighted>
-0.7585

> <Gold.Rescore>
     Score     S(PLP)   S(hbond)     S(cho)   S(metal)  DE(clash)   DE(tors)     intcor
     38.76     -38.86       0.00       0.00       0.00       0.00       0.05       ----

> <Gold.PLP.Fitness>
38.7640

> <Gold.PLP.PLP>
-38.8597

> <Gold.PLP.part.hbond>
0.0000

> <Gold.PLP.part.metal>
0.0000

> <Gold.PLP.part.buried>
-3.3384

> <Gold.PLP.part.nonpolar>
-36.0185

> <Gold.PLP.part.repulsive>
0.1205

> <Gold.PLP.ligand.clash>
0.0000

> <Gold.PLP.ligand.torsion>
0.0479

> <Gold.PLP.Chemscore.Hbond>
0.0000

> <Gold.PLP.Chemscore.CHOScore>
0.0000

> <Gold.PLP.Chemscore.Metal>
0.0000

> <Gold.PLP.Chemscore.Internal.Correction>
   9.000000E+99

