#       Name:                CT1002167954
#       Creating user name   hitesit
#       Creation time:       Sun Apr 16 20:15:56 2023


#       File generated by GOLD software.
#

@<TRIPOS>MOLECULE
CT1002167954|ligand_prepared|mol2|1|dock3
    29    30     1
SMALL
NO_CHARGES


@<TRIPOS>ATOM
      1 C1         128.5989 143.0910  98.3552 C.3            1 RES1               0.0000
      2 C2         129.9279 142.6454  98.9985 C.ar           1 RES1               0.0000
      3 C3         127.4907 142.6265  99.2956 C.2            1 RES1               0.0000
      4 C4         128.6875 144.6050  98.1980 C.2            1 RES1               0.0000
      5 C5         128.3453 142.4796  96.9575 C.3            1 RES1               0.0000
      6 C6         130.0294 142.4859 100.3772 C.ar           1 RES1               0.0000
      7 C7         131.0583 142.3880  98.2274 C.ar           1 RES1               0.0000
      8 N8         126.8621 143.5744 100.0481 N.am           1 RES1               0.0000
      9 O9         127.1998 141.4417  99.4044 O.2            1 RES1               0.0000
     10 N10        127.8275 145.3783  98.9329 N.am           1 RES1               0.0000
     11 O11        129.5055 145.1358  97.4569 O.2            1 RES1               0.0000
     12 C12        128.5741 140.9777  96.8946 C.3            1 RES1               0.0000
     13 C13        131.2169 142.0809 100.9637 C.ar           1 RES1               0.0000
     14 C14        132.2450 141.9833  98.8159 C.ar           1 RES1               0.0000
     15 C15        126.9396 144.9328  99.8739 C.2            1 RES1               0.0000
     16 C16        132.3253 141.8289 100.1836 C.ar           1 RES1               0.0000
     17 O17        126.2381 145.6942 100.5336 O.2            1 RES1               0.0000
     18 H18        127.3105 142.6919  96.6617 H              1 RES1               0.0000
     19 H19        129.0082 142.9683  96.2328 H              1 RES1               0.0000
     20 H20        129.1684 142.6820 101.0075 H              1 RES1               0.0000
     21 H21        131.0186 142.5039  97.1496 H              1 RES1               0.0000
     22 H22        126.2806 143.2425 100.8111 H              1 RES1               0.0000
     23 H23        127.8513 146.3787  98.7627 H              1 RES1               0.0000
     24 H24        128.3824 140.5999  95.8925 H              1 RES1               0.0000
     25 H25        129.6007 140.7324  97.1586 H              1 RES1               0.0000
     26 H26        127.9131 140.4576  97.5849 H              1 RES1               0.0000
     27 H27        131.2753 141.9622 102.0406 H              1 RES1               0.0000
     28 H28        133.1150 141.7866  98.1981 H              1 RES1               0.0000
     29 H29        133.2554 141.5112 100.6432 H              1 RES1               0.0000
@<TRIPOS>BOND
    1    1    2 1     
    2    1    3 1     
    3    1    4 1     
    4    1    5 1     
    5    2    6 ar    
    6    2    7 ar    
    7    3    8 1     
    8    3    9 2     
    9    4   10 1     
   10    4   11 2     
   11    5   12 1     
   12    5   18 1     
   13    5   19 1     
   14    6   13 ar    
   15    6   20 1     
   16    7   14 ar    
   17    7   21 1     
   18    8   15 1     
   19    8   22 1     
   20   10   15 1     
   21   10   23 1     
   22   12   24 1     
   23   12   25 1     
   24   12   26 1     
   25   13   16 ar    
   26   13   27 1     
   27   14   16 ar    
   28   14   28 1     
   29   15   17 2     
   30   16   29 1     
@<TRIPOS>SUBSTRUCTURE
      1 RES1           1
@<TRIPOS>SET
DONOR_HYDROGENS      STATIC     ATOMS    <user>   **** ""
2 22 23
ATOM$RED        STATIC     ATOMS    COLORGROUP SYSTEM
2 22 23
@<TRIPOS>COMMENT
> <Gold.Version>
2022.3.0

> <Gold.Id.Protein>
unknown|7rmh_clean|pdb

> <Gold.Protein.RotatedTorsions>
[ 6069 6060 6061 6062 ] final  135.01 input   58.43 | X-H torsion
[ 6095 6088 6089 6090 ] final  115.43 input   80.40 | X-H torsion
[ 12696 12688 12689 12690 ] final  -22.91 input   27.23 | X-H torsion
[ 12955 12944 12943 12942 ] final   -4.28 input   60.02 | X-H torsion
[  130  121  122  123 ] final  -81.34 input   59.99 | X-H torsion
[ 10541 10525 10526 10527 ] final   60.21 input   86.97 | X-H torsion
[ 12729 12724 12723 12720 ] final -116.51 input   60.00 | X-H torsion
[ 7603 7585 7586 7587 ] final -133.11 input   21.72 | X-H torsion
[ 14135 14126 14127 14128 ] final  -55.31 input  100.92 | X-H torsion
[ 11478 11469 11468 11466 ] final -165.95 input   60.02 | X-H torsion
[ 14106 14097 14096 14094 ] final  -98.05 input   60.00 | X-H torsion
[ 14257 14248 14247 14245 ] final  140.12 input   60.01 | X-H torsion
[ 12659 12654 12653 12650 ] final  138.89 input   60.00 | X-H torsion
[ 11470 11458 11459 11460 ] final -156.41 input   94.06 | X-H torsion
[ 4835 4821 4822 4823 ] final  -78.36 input   91.76 | X-H torsion
[ 4838 4826 4825 4822 ] final  134.41 input   59.99 | X-H torsion
[ 13071 13062 13061 13059 ] final -105.10 input   60.03 | X-H torsion
[ 6481 6474 6475 6476 ] final  -14.46 input  103.68 | X-H torsion
[ 13126 13119 13120 13121 ] final -116.17 input  114.72 | X-H torsion
[ 13129 13124 13123 13120 ] final  -26.46 input   59.98 | X-H torsion
[ 14703 6063 6062 6061 ] final  138.01 input    0.00 | X-H torsion
[ 14710 6091 6090 6089 ] final -140.48 input   -0.00 | X-H torsion
[ 14727  124  123  122 ] final  -42.41 input   -0.00 | X-H torsion
[ 14734 7588 7587 7586 ] final   96.94 input    0.00 | X-H torsion
[ 14820 6477 6476 6475 ] final  -92.15 input   -0.00 | X-H torsion

> <Gold.Protein.ActiveResidues>
 ASN23   THR86   GLU172  THR173  VAL200  LYS280  GLN24   PHE25   GLN27   MET81  
 PHE84   ASN85   VAL88   ASN89   TYR92   ALA93   VAL94   HIS95   ASN96   GLU97  
 TRP98   TYR100  CYS105  HIS108  ASN109  PRO112  ILE113  VAL116  PHE117  LEU161 
 ALA162  GLN165  SER169  THR170  MET174  PRO175  SER176  ARG177  VAL178  VAL179 
 CYS180  MET181  ILE182  GLU183  TRP184  LYS190  TYR196  HIS197  THR201  ILE204 
 TRP261  PHE264  HIS265  PHE267  PHE268  LEU269  PRO271  PRO275  LEU277  TYR278 
 LEU279  LYS281  PHE282  ILE283  GLN284  GLN285  VAL286  TYR287  LEU288  ILE290 
 MET291  ALA294  MET295 

> <Gold.Protein.RotatedAtoms>
  120.2267  148.9411   87.0013 H   0  0  0  0  0  0  0  0  0  0  0  0  # atno 130  bound_to 121 
  118.7196  149.4193   87.4974 H   0  0  0  0  0  0  0  0  0  0  0  0  # atno 131  bound_to 121 
  127.7270  146.4694  111.9870 H   0  0  0  0  0  0  0  0  0  0  0  0  # atno 4835 bound_to 4821
  126.3132  143.6477  114.7790 H   0  0  0  0  0  0  0  0  0  0  0  0  # atno 4838 bound_to 4826
  132.8719  156.2063   95.7914 H   0  0  0  0  0  0  0  0  0  0  0  0  # atno 6069 bound_to 6060
  130.8318  158.9620   92.8229 H   0  0  0  0  0  0  0  0  0  0  0  0  # atno 6095 bound_to 6088
  145.5188  137.9198  106.3191 H   0  0  0  0  0  0  0  0  0  0  0  0  # atno 6481 bound_to 6474
  125.0520  139.9538   89.9220 H   0  0  0  0  0  0  0  0  0  0  0  0  # atno 7603 bound_to 7585
  120.9629  147.0482   89.9985 H   0  0  0  0  0  0  0  0  0  0  0  0  # atno 10541 bound_to 10525
  123.1852  150.3775  105.1255 H   0  0  0  0  0  0  0  0  0  0  0  0  # atno 11470 bound_to 11458
  129.0533  149.1919   98.6223 H   0  0  0  0  0  0  0  0  0  0  0  0  # atno 11478 bound_to 11469
  135.5260  153.7056  102.9861 H   0  0  0  0  0  0  0  0  0  0  0  0  # atno 12659 bound_to 12654
  127.0128  157.9377   90.8249 H   0  0  0  0  0  0  0  0  0  0  0  0  # atno 12696 bound_to 12688
  120.1497  154.1176   88.7943 H   0  0  0  0  0  0  0  0  0  0  0  0  # atno 12729 bound_to 12724
  140.4679  141.5829   91.3177 H   0  0  0  0  0  0  0  0  0  0  0  0  # atno 12955 bound_to 12944
  139.9759  143.0643   91.8736 H   0  0  0  0  0  0  0  0  0  0  0  0  # atno 12956 bound_to 12944
  139.8051  142.6829   90.2696 H   0  0  0  0  0  0  0  0  0  0  0  0  # atno 12957 bound_to 12944
  142.2425  144.3828  106.9315 H   0  0  0  0  0  0  0  0  0  0  0  0  # atno 13071 bound_to 13062
  142.8732  137.8527  107.2318 H   0  0  0  0  0  0  0  0  0  0  0  0  # atno 13126 bound_to 13119
  141.0288  136.3575  105.5852 H   0  0  0  0  0  0  0  0  0  0  0  0  # atno 13129 bound_to 13124
  132.3118  139.2958   98.2884 H   0  0  0  0  0  0  0  0  0  0  0  0  # atno 14106 bound_to 14097
  122.6493  138.7521   92.4051 H   0  0  0  0  0  0  0  0  0  0  0  0  # atno 14135 bound_to 14126
  128.2810  144.5496  104.2450 H   0  0  0  0  0  0  0  0  0  0  0  0  # atno 14257 bound_to 14248
  131.6316  157.3746   96.1942 LP  0  0  0  0  0  0  0  0  0  0  0  0  # atno 14702 bound_to 6060
  128.8482  156.9420   94.5567 LP  0  0  0  0  0  0  0  0  0  0  0  0  # atno 14703 bound_to 6063
  129.9462  155.6042   94.4906 LP  0  0  0  0  0  0  0  0  0  0  0  0  # atno 14704 bound_to 6063
  130.6037  157.2397   93.0438 LP  0  0  0  0  0  0  0  0  0  0  0  0  # atno 14709 bound_to 6088
  129.6682  157.3214   89.1884 LP  0  0  0  0  0  0  0  0  0  0  0  0  # atno 14710 bound_to 6091
  130.6228  156.9989   90.5973 LP  0  0  0  0  0  0  0  0  0  0  0  0  # atno 14711 bound_to 6091
  119.9488  150.5096   87.4119 LP  0  0  0  0  0  0  0  0  0  0  0  0  # atno 14720 bound_to 121 
  117.7477  148.9608   90.2514 LP  0  0  0  0  0  0  0  0  0  0  0  0  # atno 14727 bound_to 124 
  117.4988  147.4015   89.5396 LP  0  0  0  0  0  0  0  0  0  0  0  0  # atno 14728 bound_to 124 
  119.7792  153.5726   90.2821 LP  0  0  0  0  0  0  0  0  0  0  0  0  # atno 14729 bound_to 12724
  121.3052  154.0407   89.9375 LP  0  0  0  0  0  0  0  0  0  0  0  0  # atno 14730 bound_to 12724
  125.5041  139.2623   91.4642 LP  0  0  0  0  0  0  0  0  0  0  0  0  # atno 14733 bound_to 7585
  123.7152  140.5846   93.3433 LP  0  0  0  0  0  0  0  0  0  0  0  0  # atno 14734 bound_to 7588
  124.2520  138.9755   93.6938 LP  0  0  0  0  0  0  0  0  0  0  0  0  # atno 14735 bound_to 7588
  129.1047  150.8113   98.7734 LP  0  0  0  0  0  0  0  0  0  0  0  0  # atno 14738 bound_to 11469
  127.8779  150.1027   97.9613 LP  0  0  0  0  0  0  0  0  0  0  0  0  # atno 14739 bound_to 11469
  133.7997  139.2512   97.6299 LP  0  0  0  0  0  0  0  0  0  0  0  0  # atno 14744 bound_to 14097
  132.8969  137.8927   97.7067 LP  0  0  0  0  0  0  0  0  0  0  0  0  # atno 14745 bound_to 14097
  129.6473  143.6919  104.4590 LP  0  0  0  0  0  0  0  0  0  0  0  0  # atno 14762 bound_to 14248
  128.4002  143.5192  105.4989 LP  0  0  0  0  0  0  0  0  0  0  0  0  # atno 14763 bound_to 14248
  135.9245  154.3480  101.5451 LP  0  0  0  0  0  0  0  0  0  0  0  0  # atno 14798 bound_to 12654
  136.1299  155.2150  102.9136 LP  0  0  0  0  0  0  0  0  0  0  0  0  # atno 14799 bound_to 12654
  127.1258  146.3119  113.6154 LP  0  0  0  0  0  0  0  0  0  0  0  0  # atno 14808 bound_to 4821
  127.2048  143.9161  113.4442 LP  0  0  0  0  0  0  0  0  0  0  0  0  # atno 14809 bound_to 4826
  126.1151  142.7003  113.4707 LP  0  0  0  0  0  0  0  0  0  0  0  0  # atno 14810 bound_to 4826
  142.1620  145.8350  106.2020 LP  0  0  0  0  0  0  0  0  0  0  0  0  # atno 14815 bound_to 13062
  143.3615  145.5166  107.2632 LP  0  0  0  0  0  0  0  0  0  0  0  0  # atno 14816 bound_to 13062
  143.5664  137.1316  109.7060 LP  0  0  0  0  0  0  0  0  0  0  0  0  # atno 14820 bound_to 6477
  142.1543  138.0557  109.3163 LP  0  0  0  0  0  0  0  0  0  0  0  0  # atno 14821 bound_to 6477
  145.7759  139.6335  106.1610 LP  0  0  0  0  0  0  0  0  0  0  0  0  # atno 14822 bound_to 6474
  141.0167  135.1743  104.4681 LP  0  0  0  0  0  0  0  0  0  0  0  0  # atno 14827 bound_to 13124
  142.1582  136.3407  104.4138 LP  0  0  0  0  0  0  0  0  0  0  0  0  # atno 14828 bound_to 13124

> <Gold.Score>
     Fitness  S(hb_ext) S(vdw_ext)  S(hb_int)    S(int)      intcor
     27.26       0.00      22.98       0.00      -4.34      -0.76

> <Gold.Goldscore.Fitness>
27.2592

> <Gold.Goldscore.Internal.Vdw>
-4.5085

> <Gold.Goldscore.Internal.Torsion>
-0.5979

> <Gold.Goldscore.External.Vdw>
22.9822

> <Gold.Goldscore.Internal.HBond>
0.0000

> <Gold.Goldscore.External.HBond>
0.0000

> <Gold.Goldscore.Internal.Correction>
-0.7650

> <Gold.Goldscore.Internal.Vdw.Weighted>
-4.5085

> <Gold.Goldscore.Internal.Torsion.Weighted>
-0.5979

> <Gold.Goldscore.External.Vdw.Weighted>
31.6006

> <Gold.Goldscore.Internal.HBond.Weighted>
0.0000

> <Gold.Goldscore.External.HBond.Weighted>
0.0000

> <Gold.Goldscore.Internal.Correction.Weighted>
-0.7650

> <Gold.Rescore>
     Score     S(PLP)   S(hbond)     S(cho)   S(metal)  DE(clash)   DE(tors)     intcor
     34.39     -35.60       0.35       0.00       0.00       0.00       1.13       ----

> <Gold.PLP.Fitness>
34.3928

> <Gold.PLP.PLP>
-35.6014

> <Gold.PLP.part.hbond>
-1.0000

> <Gold.PLP.part.metal>
0.0000

> <Gold.PLP.part.buried>
-3.1880

> <Gold.PLP.part.nonpolar>
-33.2605

> <Gold.PLP.part.repulsive>
1.9741

> <Gold.PLP.ligand.clash>
0.0000

> <Gold.PLP.ligand.torsion>
1.1285

> <Gold.PLP.Chemscore.Hbond>
0.3494

> <Gold.PLP.Chemscore.CHOScore>
0.0000

> <Gold.PLP.Chemscore.Metal>
0.0000

> <Gold.PLP.Chemscore.Internal.Correction>
   9.000000E+99

