#       Name:                CT1002167954
#       Creating user name   hitesit
#       Creation time:       Sun Apr 16 20:15:59 2023


#       File generated by GOLD software.
#

@<TRIPOS>MOLECULE
CT1002167954|ligand_prepared|mol2|1|dock5
    29    30     1
SMALL
NO_CHARGES


@<TRIPOS>ATOM
      1 C1         127.0914 143.5682  97.1387 C.3            1 RES1               0.0000
      2 C2         127.2603 144.1820  98.5435 C.ar           1 RES1               0.0000
      3 C3         126.0261 144.4014  96.4323 C.2            1 RES1               0.0000
      4 C4         128.4651 143.6266  96.4797 C.2            1 RES1               0.0000
      5 C5         126.6309 142.0920  97.1532 C.3            1 RES1               0.0000
      6 C6         126.3060 143.9621  99.5323 C.ar           1 RES1               0.0000
      7 C7         128.3643 144.9668  98.8658 C.ar           1 RES1               0.0000
      8 N8         126.4395 145.2599  95.4566 N.am           1 RES1               0.0000
      9 O9         124.8460 144.3350  96.7536 O.2            1 RES1               0.0000
     10 N10        128.6182 144.4365  95.3850 N.am           1 RES1               0.0000
     11 O11        129.4205 142.9914  96.9085 O.2            1 RES1               0.0000
     12 C12        127.3591 141.2324  98.1744 C.3            1 RES1               0.0000
     13 C13        126.4516 144.5046 100.7983 C.ar           1 RES1               0.0000
     14 C14        128.5078 145.5086 100.1324 C.ar           1 RES1               0.0000
     15 C15        127.6756 145.2793  94.8621 C.2            1 RES1               0.0000
     16 C16        127.5526 145.2777 101.0994 C.ar           1 RES1               0.0000
     17 O17        127.9053 146.0178  93.9087 O.2            1 RES1               0.0000
     18 H18        125.5554 142.0597  97.3671 H              1 RES1               0.0000
     19 H19        126.7872 141.6635  96.1555 H              1 RES1               0.0000
     20 H20        125.4317 143.3584  99.3131 H              1 RES1               0.0000
     21 H21        129.1278 145.1627  98.1206 H              1 RES1               0.0000
     22 H22        125.7675 145.9515  95.1398 H              1 RES1               0.0000
     23 H23        129.5181 144.4083  94.9163 H              1 RES1               0.0000
     24 H24        126.9981 140.2066  98.1428 H              1 RES1               0.0000
     25 H25        128.4290 141.2214  97.9766 H              1 RES1               0.0000
     26 H26        127.2045 141.6153  99.1811 H              1 RES1               0.0000
     27 H27        125.6963 144.3210 101.5554 H              1 RES1               0.0000
     28 H28        129.3756 146.1169 100.3648 H              1 RES1               0.0000
     29 H29        127.6665 145.7022 102.0914 H              1 RES1               0.0000
@<TRIPOS>BOND
    1    1    2 1     
    2    1    3 1     
    3    1    4 1     
    4    1    5 1     
    5    2    6 ar    
    6    2    7 ar    
    7    3    8 1     
    8    3    9 2     
    9    4   10 1     
   10    4   11 2     
   11    5   12 1     
   12    5   18 1     
   13    5   19 1     
   14    6   13 ar    
   15    6   20 1     
   16    7   14 ar    
   17    7   21 1     
   18    8   15 1     
   19    8   22 1     
   20   10   15 1     
   21   10   23 1     
   22   12   24 1     
   23   12   25 1     
   24   12   26 1     
   25   13   16 ar    
   26   13   27 1     
   27   14   16 ar    
   28   14   28 1     
   29   15   17 2     
   30   16   29 1     
@<TRIPOS>SUBSTRUCTURE
      1 RES1           1
@<TRIPOS>SET
DONOR_HYDROGENS      STATIC     ATOMS    <user>   **** ""
2 22 23
ATOM$RED        STATIC     ATOMS    COLORGROUP SYSTEM
2 22 23
@<TRIPOS>COMMENT
> <Gold.Version>
2022.3.0

> <Gold.Id.Protein>
unknown|7rmh_clean|pdb

> <Gold.Protein.RotatedTorsions>
[ 6069 6060 6061 6062 ] final  -77.51 input   58.43 | X-H torsion
[ 6095 6088 6089 6090 ] final   25.77 input   80.40 | X-H torsion
[ 12696 12688 12689 12690 ] final   77.90 input   27.23 | X-H torsion
[ 12955 12944 12943 12942 ] final   18.26 input   60.02 | X-H torsion
[  130  121  122  123 ] final -178.92 input   59.99 | X-H torsion
[ 10541 10525 10526 10527 ] final  -94.26 input   86.97 | X-H torsion
[ 12729 12724 12723 12720 ] final -143.89 input   60.00 | X-H torsion
[ 7603 7585 7586 7587 ] final  -72.61 input   21.72 | X-H torsion
[ 14135 14126 14127 14128 ] final  160.18 input  100.92 | X-H torsion
[ 11478 11469 11468 11466 ] final -145.95 input   60.02 | X-H torsion
[ 14106 14097 14096 14094 ] final  -78.82 input   60.00 | X-H torsion
[ 14257 14248 14247 14245 ] final   13.08 input   60.01 | X-H torsion
[ 12659 12654 12653 12650 ] final  123.47 input   60.00 | X-H torsion
[ 11470 11458 11459 11460 ] final   65.81 input   94.06 | X-H torsion
[ 4835 4821 4822 4823 ] final   51.80 input   91.76 | X-H torsion
[ 4838 4826 4825 4822 ] final   44.76 input   59.99 | X-H torsion
[ 13071 13062 13061 13059 ] final -121.20 input   60.03 | X-H torsion
[ 6481 6474 6475 6476 ] final  127.60 input  103.68 | X-H torsion
[ 13126 13119 13120 13121 ] final  -40.31 input  114.72 | X-H torsion
[ 13129 13124 13123 13120 ] final  156.62 input   59.98 | X-H torsion
[ 14703 6063 6062 6061 ] final   92.43 input    0.00 | X-H torsion
[ 14710 6091 6090 6089 ] final -176.54 input   -0.00 | X-H torsion
[ 14727  124  123  122 ] final   89.06 input   -0.00 | X-H torsion
[ 14734 7588 7587 7586 ] final  -84.11 input    0.00 | X-H torsion
[ 14820 6477 6476 6475 ] final  147.73 input   -0.00 | X-H torsion

> <Gold.Protein.ActiveResidues>
 ASN23   THR86   GLU172  THR173  VAL200  LYS280  GLN24   PHE25   GLN27   MET81  
 PHE84   ASN85   VAL88   ASN89   TYR92   ALA93   VAL94   HIS95   ASN96   GLU97  
 TRP98   TYR100  CYS105  HIS108  ASN109  PRO112  ILE113  VAL116  PHE117  LEU161 
 ALA162  GLN165  SER169  THR170  MET174  PRO175  SER176  ARG177  VAL178  VAL179 
 CYS180  MET181  ILE182  GLU183  TRP184  LYS190  TYR196  HIS197  THR201  ILE204 
 TRP261  PHE264  HIS265  PHE267  PHE268  LEU269  PRO271  PRO275  LEU277  TYR278 
 LEU279  LYS281  PHE282  ILE283  GLN284  GLN285  VAL286  TYR287  LEU288  ILE290 
 MET291  ALA294  MET295 

> <Gold.Protein.RotatedAtoms>
  120.2599  150.3504   87.2916 H   0  0  0  0  0  0  0  0  0  0  0  0  # atno 130  bound_to 121 
  119.9105  148.7497   87.0431 H   0  0  0  0  0  0  0  0  0  0  0  0  # atno 131  bound_to 121 
  126.8936  146.9128  113.2624 H   0  0  0  0  0  0  0  0  0  0  0  0  # atno 4835 bound_to 4821
  127.1662  144.1216  113.8896 H   0  0  0  0  0  0  0  0  0  0  0  0  # atno 4838 bound_to 4826
  132.0406  157.6471   96.1862 H   0  0  0  0  0  0  0  0  0  0  0  0  # atno 6069 bound_to 6060
  131.0185  157.9445   92.1086 H   0  0  0  0  0  0  0  0  0  0  0  0  # atno 6095 bound_to 6088
  145.3808  139.4702  105.7895 H   0  0  0  0  0  0  0  0  0  0  0  0  # atno 6481 bound_to 6474
  124.9354  140.4204   90.6770 H   0  0  0  0  0  0  0  0  0  0  0  0  # atno 7603 bound_to 7585
  119.4660  147.7807   89.5737 H   0  0  0  0  0  0  0  0  0  0  0  0  # atno 10541 bound_to 10525
  123.5982  148.7860  105.3037 H   0  0  0  0  0  0  0  0  0  0  0  0  # atno 11470 bound_to 11458
  128.7901  149.1037   98.4529 H   0  0  0  0  0  0  0  0  0  0  0  0  # atno 11478 bound_to 11469
  135.5068  153.5992  102.7594 H   0  0  0  0  0  0  0  0  0  0  0  0  # atno 12659 bound_to 12654
  127.2417  156.7431   91.5107 H   0  0  0  0  0  0  0  0  0  0  0  0  # atno 12696 bound_to 12688
  119.7766  153.9712   88.9832 H   0  0  0  0  0  0  0  0  0  0  0  0  # atno 12729 bound_to 12724
  140.4763  141.7332   91.6601 H   0  0  0  0  0  0  0  0  0  0  0  0  # atno 12955 bound_to 12944
  139.8375  143.2604   91.5868 H   0  0  0  0  0  0  0  0  0  0  0  0  # atno 12956 bound_to 12944
  139.9351  142.3365   90.2141 H   0  0  0  0  0  0  0  0  0  0  0  0  # atno 12957 bound_to 12944
  142.0653  144.4672  106.7575 H   0  0  0  0  0  0  0  0  0  0  0  0  # atno 13071 bound_to 13062
  143.7852  137.4888  107.6924 H   0  0  0  0  0  0  0  0  0  0  0  0  # atno 13126 bound_to 13119
  141.7375  135.5228  104.0674 H   0  0  0  0  0  0  0  0  0  0  0  0  # atno 13129 bound_to 13124
  132.1797  139.0123   98.2799 H   0  0  0  0  0  0  0  0  0  0  0  0  # atno 14106 bound_to 14097
  121.2961  139.4525   91.6884 H   0  0  0  0  0  0  0  0  0  0  0  0  # atno 14135 bound_to 14126
  129.6423  143.6203  104.5496 H   0  0  0  0  0  0  0  0  0  0  0  0  # atno 14257 bound_to 14248
  132.4347  155.9826   95.8128 LP  0  0  0  0  0  0  0  0  0  0  0  0  # atno 14702 bound_to 6060
  129.2478  156.9071   95.0944 LP  0  0  0  0  0  0  0  0  0  0  0  0  # atno 14703 bound_to 6063
  129.5465  155.6391   93.9530 LP  0  0  0  0  0  0  0  0  0  0  0  0  # atno 14704 bound_to 6063
  130.4236  158.2207   93.7325 LP  0  0  0  0  0  0  0  0  0  0  0  0  # atno 14709 bound_to 6088
  129.6243  156.7995   89.3027 LP  0  0  0  0  0  0  0  0  0  0  0  0  # atno 14710 bound_to 6091
  130.6667  157.5208   90.4830 LP  0  0  0  0  0  0  0  0  0  0  0  0  # atno 14711 bound_to 6091
  118.7428  149.7803   87.5733 LP  0  0  0  0  0  0  0  0  0  0  0  0  # atno 14720 bound_to 121 
  117.4405  147.9443   89.0828 LP  0  0  0  0  0  0  0  0  0  0  0  0  # atno 14727 bound_to 124 
  117.8060  148.4180   90.7082 LP  0  0  0  0  0  0  0  0  0  0  0  0  # atno 14728 bound_to 124 
  120.1572  153.5901   90.5187 LP  0  0  0  0  0  0  0  0  0  0  0  0  # atno 14729 bound_to 12724
  121.3030  154.1708   89.5105 LP  0  0  0  0  0  0  0  0  0  0  0  0  # atno 14730 bound_to 12724
  125.6171  138.8101   90.7325 LP  0  0  0  0  0  0  0  0  0  0  0  0  # atno 14733 bound_to 7585
  124.2403  138.9741   93.7042 LP  0  0  0  0  0  0  0  0  0  0  0  0  # atno 14734 bound_to 7588
  123.7269  140.5860   93.3328 LP  0  0  0  0  0  0  0  0  0  0  0  0  # atno 14735 bound_to 7588
  129.3120  150.5833   98.8844 LP  0  0  0  0  0  0  0  0  0  0  0  0  # atno 14738 bound_to 11469
  127.9357  150.4195   98.0210 LP  0  0  0  0  0  0  0  0  0  0  0  0  # atno 14739 bound_to 11469
  133.6433  139.4941   97.7552 LP  0  0  0  0  0  0  0  0  0  0  0  0  # atno 14744 bound_to 14097
  133.1862  137.9351   97.5901 LP  0  0  0  0  0  0  0  0  0  0  0  0  # atno 14745 bound_to 14097
  128.3062  143.5834  105.4779 LP  0  0  0  0  0  0  0  0  0  0  0  0  # atno 14762 bound_to 14248
  128.3706  144.5634  104.1733 LP  0  0  0  0  0  0  0  0  0  0  0  0  # atno 14763 bound_to 14248
  136.0156  154.5829  101.5672 LP  0  0  0  0  0  0  0  0  0  0  0  0  # atno 14798 bound_to 12654
  136.0582  155.0872  103.1198 LP  0  0  0  0  0  0  0  0  0  0  0  0  # atno 14799 bound_to 12654
  127.9528  145.8720  112.3498 LP  0  0  0  0  0  0  0  0  0  0  0  0  # atno 14808 bound_to 4821
  126.4341  142.8775  113.1380 LP  0  0  0  0  0  0  0  0  0  0  0  0  # atno 14809 bound_to 4826
  126.0272  143.2618  114.6721 LP  0  0  0  0  0  0  0  0  0  0  0  0  # atno 14810 bound_to 4826
  142.3585  145.9943  106.2781 LP  0  0  0  0  0  0  0  0  0  0  0  0  # atno 14815 bound_to 13062
  143.3434  145.2724  107.3624 LP  0  0  0  0  0  0  0  0  0  0  0  0  # atno 14816 bound_to 13062
  142.1683  137.2047  109.1652 LP  0  0  0  0  0  0  0  0  0  0  0  0  # atno 14820 bound_to 6477
  143.5524  137.9827  109.8571 LP  0  0  0  0  0  0  0  0  0  0  0  0  # atno 14821 bound_to 6477
  145.9141  138.0810  106.6914 LP  0  0  0  0  0  0  0  0  0  0  0  0  # atno 14822 bound_to 6474
  141.8179  136.7415  105.1427 LP  0  0  0  0  0  0  0  0  0  0  0  0  # atno 14827 bound_to 13124
  140.6431  135.6143  105.2682 LP  0  0  0  0  0  0  0  0  0  0  0  0  # atno 14828 bound_to 13124

> <Gold.Score>
     Fitness  S(hb_ext) S(vdw_ext)  S(hb_int)    S(int)      intcor
     31.17       0.18      24.65       0.00      -2.90      -0.76

> <Gold.Goldscore.Fitness>
31.1675

> <Gold.Goldscore.Internal.Vdw>
-2.9134

> <Gold.Goldscore.Internal.Torsion>
-0.7499

> <Gold.Goldscore.External.Vdw>
24.6457

> <Gold.Goldscore.Internal.HBond>
0.0000

> <Gold.Goldscore.External.HBond>
0.1780

> <Gold.Goldscore.Internal.Correction>
-0.7650

> <Gold.Goldscore.Hbonds>
donor molecule, donor type, donor heavy atom, donor atom, acceptor molecule, acceptor atom, score
      L1  H     8    22       P1 11528  0.09

> <Gold.Goldscore.Internal.Vdw.Weighted>
-2.9134

> <Gold.Goldscore.Internal.Torsion.Weighted>
-0.7499

> <Gold.Goldscore.External.Vdw.Weighted>
33.8879

> <Gold.Goldscore.Internal.HBond.Weighted>
0.0000

> <Gold.Goldscore.External.HBond.Weighted>
0.1780

> <Gold.Goldscore.Internal.Correction.Weighted>
-0.7650

> <Gold.Rescore>
     Score     S(PLP)   S(hbond)     S(cho)   S(metal)  DE(clash)   DE(tors)     intcor
     32.57     -34.22       0.00       0.00       0.00       0.81       0.42       ----

> <Gold.PLP.Fitness>
32.5709

> <Gold.PLP.PLP>
-34.2202

> <Gold.PLP.part.hbond>
-0.9618

> <Gold.PLP.part.metal>
0.0000

> <Gold.PLP.part.buried>
-0.9224

> <Gold.PLP.part.nonpolar>
-32.5863

> <Gold.PLP.part.repulsive>
0.2032

> <Gold.PLP.ligand.clash>
0.8114

> <Gold.PLP.ligand.torsion>
0.4189

> <Gold.PLP.Chemscore.Hbond>
0.0000

> <Gold.PLP.Chemscore.CHOScore>
0.0000

> <Gold.PLP.Chemscore.Metal>
0.0000

> <Gold.Chemscore.Hbonds>
donor molecule, donor type, donor heavy atom, donor atom, acceptor molecule, acceptor atom, score
      L1  H     8    22       P1 11528  0.30

> <Gold.PLP.Chemscore.Internal.Correction>
   9.000000E+99

