#       Name:                CT1002167954
#       Creating user name   hitesit
#       Creation time:       Sun Apr 16 20:15:57 2023


#       File generated by GOLD software.
#

@<TRIPOS>MOLECULE
CT1002167954|ligand_prepared|mol2|1|dock4
    29    30     1
SMALL
NO_CHARGES


@<TRIPOS>ATOM
      1 C1         127.7968 142.6444  97.7822 C.3            1 RES1               0.0000
      2 C2         126.4021 143.2278  98.0874 C.ar           1 RES1               0.0000
      3 C3         128.7876 143.7927  97.9496 C.2            1 RES1               0.0000
      4 C4         128.0033 141.4965  98.7643 C.2            1 RES1               0.0000
      5 C5         127.9377 142.0788  96.3498 C.3            1 RES1               0.0000
      6 C6         125.7773 144.0808  97.1825 C.ar           1 RES1               0.0000
      7 C7         125.7279 142.9207  99.2663 C.ar           1 RES1               0.0000
      8 N8         129.5819 143.7854  99.0581 N.am           1 RES1               0.0000
      9 O9         128.8435 144.7113  97.1413 O.2            1 RES1               0.0000
     10 N10        128.9910 141.6262  99.7052 N.am           1 RES1               0.0000
     11 O11        127.3085 140.4880  98.7424 O.2            1 RES1               0.0000
     12 C12        129.2350 141.3212  96.1146 C.3            1 RES1               0.0000
     13 C13        124.5227 144.6054  97.4451 C.ar           1 RES1               0.0000
     14 C14        124.4733 143.4467  99.5270 C.ar           1 RES1               0.0000
     15 C15        129.7694 142.7316  99.9161 C.2            1 RES1               0.0000
     16 C16        123.8697 144.2884  98.6172 C.ar           1 RES1               0.0000
     17 O17        130.5998 142.7929 100.8182 O.2            1 RES1               0.0000
     18 H18        127.0947 141.4055  96.1515 H              1 RES1               0.0000
     19 H19        127.8792 142.9090  95.6351 H              1 RES1               0.0000
     20 H20        126.2769 144.3435  96.2560 H              1 RES1               0.0000
     21 H21        126.1839 142.2615  99.9970 H              1 RES1               0.0000
     22 H22        130.0828 144.6428  99.2687 H              1 RES1               0.0000
     23 H23        129.1620 140.8244 100.3037 H              1 RES1               0.0000
     24 H24        129.2829 140.9458  95.0946 H              1 RES1               0.0000
     25 H25        130.0945 141.9679  96.2785 H              1 RES1               0.0000
     26 H26        129.3147 140.4733  96.7918 H              1 RES1               0.0000
     27 H27        124.0526 145.2685  96.7265 H              1 RES1               0.0000
     28 H28        123.9634 143.1950 100.4511 H              1 RES1               0.0000
     29 H29        122.8867 144.6992  98.8225 H              1 RES1               0.0000
@<TRIPOS>BOND
    1    1    2 1     
    2    1    3 1     
    3    1    4 1     
    4    1    5 1     
    5    2    6 ar    
    6    2    7 ar    
    7    3    8 1     
    8    3    9 2     
    9    4   10 1     
   10    4   11 2     
   11    5   12 1     
   12    5   18 1     
   13    5   19 1     
   14    6   13 ar    
   15    6   20 1     
   16    7   14 ar    
   17    7   21 1     
   18    8   15 1     
   19    8   22 1     
   20   10   15 1     
   21   10   23 1     
   22   12   24 1     
   23   12   25 1     
   24   12   26 1     
   25   13   16 ar    
   26   13   27 1     
   27   14   16 ar    
   28   14   28 1     
   29   15   17 2     
   30   16   29 1     
@<TRIPOS>SUBSTRUCTURE
      1 RES1           1
@<TRIPOS>SET
DONOR_HYDROGENS      STATIC     ATOMS    <user>   **** ""
2 22 23
ATOM$RED        STATIC     ATOMS    COLORGROUP SYSTEM
2 22 23
@<TRIPOS>COMMENT
> <Gold.Version>
2022.3.0

> <Gold.Id.Protein>
unknown|7rmh_clean|pdb

> <Gold.Protein.RotatedTorsions>
[ 6069 6060 6061 6062 ] final  -47.62 input   58.43 | X-H torsion
[ 6095 6088 6089 6090 ] final  -84.92 input   80.40 | X-H torsion
[ 12696 12688 12689 12690 ] final  -38.03 input   27.23 | X-H torsion
[ 12955 12944 12943 12942 ] final  138.03 input   60.02 | X-H torsion
[  130  121  122  123 ] final -146.01 input   59.99 | X-H torsion
[ 10541 10525 10526 10527 ] final -153.48 input   86.97 | X-H torsion
[ 12729 12724 12723 12720 ] final  -66.17 input   60.00 | X-H torsion
[ 7603 7585 7586 7587 ] final   91.64 input   21.72 | X-H torsion
[ 14135 14126 14127 14128 ] final  -46.89 input  100.92 | X-H torsion
[ 11478 11469 11468 11466 ] final -138.60 input   60.02 | X-H torsion
[ 14106 14097 14096 14094 ] final -103.76 input   60.00 | X-H torsion
[ 14257 14248 14247 14245 ] final -168.66 input   60.01 | X-H torsion
[ 12659 12654 12653 12650 ] final   71.55 input   60.00 | X-H torsion
[ 11470 11458 11459 11460 ] final  135.05 input   94.06 | X-H torsion
[ 4835 4821 4822 4823 ] final  131.16 input   91.76 | X-H torsion
[ 4838 4826 4825 4822 ] final  -11.62 input   59.99 | X-H torsion
[ 13071 13062 13061 13059 ] final  -94.88 input   60.03 | X-H torsion
[ 6481 6474 6475 6476 ] final   30.84 input  103.68 | X-H torsion
[ 13126 13119 13120 13121 ] final   42.34 input  114.72 | X-H torsion
[ 13129 13124 13123 13120 ] final  -22.48 input   59.98 | X-H torsion
[ 14703 6063 6062 6061 ] final   30.08 input    0.00 | X-H torsion
[ 14710 6091 6090 6089 ] final -148.67 input   -0.00 | X-H torsion
[ 14727  124  123  122 ] final -155.57 input   -0.00 | X-H torsion
[ 14734 7588 7587 7586 ] final  151.19 input    0.00 | X-H torsion
[ 14820 6477 6476 6475 ] final -176.17 input   -0.00 | X-H torsion

> <Gold.Protein.ActiveResidues>
 ASN23   THR86   GLU172  THR173  VAL200  LYS280  GLN24   PHE25   GLN27   MET81  
 PHE84   ASN85   VAL88   ASN89   TYR92   ALA93   VAL94   HIS95   ASN96   GLU97  
 TRP98   TYR100  CYS105  HIS108  ASN109  PRO112  ILE113  VAL116  PHE117  LEU161 
 ALA162  GLN165  SER169  THR170  MET174  PRO175  SER176  ARG177  VAL178  VAL179 
 CYS180  MET181  ILE182  GLU183  TRP184  LYS190  TYR196  HIS197  THR201  ILE204 
 TRP261  PHE264  HIS265  PHE267  PHE268  LEU269  PRO271  PRO275  LEU277  TYR278 
 LEU279  LYS281  PHE282  ILE283  GLN284  GLN285  VAL286  TYR287  LEU288  ILE290 
 MET291  ALA294  MET295 

> <Gold.Protein.RotatedAtoms>
  120.5301  149.9102   87.1274 H   0  0  0  0  0  0  0  0  0  0  0  0  # atno 130  bound_to 121 
  119.3854  148.7127   87.1729 H   0  0  0  0  0  0  0  0  0  0  0  0  # atno 131  bound_to 121 
  127.4012  145.9661  113.5691 H   0  0  0  0  0  0  0  0  0  0  0  0  # atno 4835 bound_to 4821
  127.0821  143.6262  113.1613 H   0  0  0  0  0  0  0  0  0  0  0  0  # atno 4838 bound_to 4826
  131.6370  157.4279   96.1819 H   0  0  0  0  0  0  0  0  0  0  0  0  # atno 6069 bound_to 6060
  130.4736  157.3164   93.3169 H   0  0  0  0  0  0  0  0  0  0  0  0  # atno 6095 bound_to 6088
  145.1134  138.2006  105.8664 H   0  0  0  0  0  0  0  0  0  0  0  0  # atno 6481 bound_to 6474
  125.6147  138.8242   90.9741 H   0  0  0  0  0  0  0  0  0  0  0  0  # atno 7603 bound_to 7585
  119.7796  147.4094   88.8505 H   0  0  0  0  0  0  0  0  0  0  0  0  # atno 10541 bound_to 10525
  123.8736  149.7408  105.4679 H   0  0  0  0  0  0  0  0  0  0  0  0  # atno 11470 bound_to 11458
  128.6882  149.0993   98.3896 H   0  0  0  0  0  0  0  0  0  0  0  0  # atno 11478 bound_to 11469
  135.6234  153.6864  101.9527 H   0  0  0  0  0  0  0  0  0  0  0  0  # atno 12659 bound_to 12654
  127.1831  158.0446   90.6968 H   0  0  0  0  0  0  0  0  0  0  0  0  # atno 12696 bound_to 12688
  120.9174  154.2498   88.9588 H   0  0  0  0  0  0  0  0  0  0  0  0  # atno 12729 bound_to 12724
  139.8396  143.2595   91.5898 H   0  0  0  0  0  0  0  0  0  0  0  0  # atno 12955 bound_to 12944
  139.9335  142.3401   90.2144 H   0  0  0  0  0  0  0  0  0  0  0  0  # atno 12956 bound_to 12944
  140.4760  141.7304   91.6570 H   0  0  0  0  0  0  0  0  0  0  0  0  # atno 12957 bound_to 12944
  142.3700  144.3640  107.0373 H   0  0  0  0  0  0  0  0  0  0  0  0  # atno 13071 bound_to 13062
  144.3314  137.0390  106.7670 H   0  0  0  0  0  0  0  0  0  0  0  0  # atno 13126 bound_to 13119
  141.0751  136.4029  105.5812 H   0  0  0  0  0  0  0  0  0  0  0  0  # atno 13129 bound_to 13124
  132.3667  139.3708   98.2820 H   0  0  0  0  0  0  0  0  0  0  0  0  # atno 14106 bound_to 14097
  122.6202  138.6257   92.4078 H   0  0  0  0  0  0  0  0  0  0  0  0  # atno 14135 bound_to 14126
  127.9079  144.2373  104.8919 H   0  0  0  0  0  0  0  0  0  0  0  0  # atno 14257 bound_to 14248
  132.8247  156.1943   95.8169 LP  0  0  0  0  0  0  0  0  0  0  0  0  # atno 14702 bound_to 6060
  129.8792  156.2881   95.2430 LP  0  0  0  0  0  0  0  0  0  0  0  0  # atno 14703 bound_to 6063
  128.9152  156.2581   93.8043 LP  0  0  0  0  0  0  0  0  0  0  0  0  # atno 14704 bound_to 6063
  130.9490  158.8263   92.5675 LP  0  0  0  0  0  0  0  0  0  0  0  0  # atno 14709 bound_to 6088
  129.6403  157.2009   89.1906 LP  0  0  0  0  0  0  0  0  0  0  0  0  # atno 14710 bound_to 6091
  130.6507  157.1194   90.5951 LP  0  0  0  0  0  0  0  0  0  0  0  0  # atno 14711 bound_to 6091
  118.9939  150.2505   87.6073 LP  0  0  0  0  0  0  0  0  0  0  0  0  # atno 14720 bound_to 121 
  117.6974  147.5317   90.4636 LP  0  0  0  0  0  0  0  0  0  0  0  0  # atno 14727 bound_to 124 
  117.5492  148.8306   89.3274 LP  0  0  0  0  0  0  0  0  0  0  0  0  # atno 14728 bound_to 124 
  119.4934  153.7288   89.5493 LP  0  0  0  0  0  0  0  0  0  0  0  0  # atno 14729 bound_to 12724
  120.8177  153.7514   90.5046 LP  0  0  0  0  0  0  0  0  0  0  0  0  # atno 14730 bound_to 12724
  124.9587  140.3572   90.4445 LP  0  0  0  0  0  0  0  0  0  0  0  0  # atno 14733 bound_to 7585
  123.3079  140.1790   93.8850 LP  0  0  0  0  0  0  0  0  0  0  0  0  # atno 14734 bound_to 7588
  124.6593  139.3811   93.1521 LP  0  0  0  0  0  0  0  0  0  0  0  0  # atno 14735 bound_to 7588
  129.3701  150.4811   98.9126 LP  0  0  0  0  0  0  0  0  0  0  0  0  # atno 14738 bound_to 11469
  127.9802  150.5261   98.0565 LP  0  0  0  0  0  0  0  0  0  0  0  0  # atno 14739 bound_to 11469
  133.8295  139.1683   97.5975 LP  0  0  0  0  0  0  0  0  0  0  0  0  # atno 14744 bound_to 14097
  132.8118  137.8999   97.7456 LP  0  0  0  0  0  0  0  0  0  0  0  0  # atno 14745 bound_to 14097
  129.2667  144.2447  103.9964 LP  0  0  0  0  0  0  0  0  0  0  0  0  # atno 14762 bound_to 14248
  129.1564  143.2810  105.3101 LP  0  0  0  0  0  0  0  0  0  0  0  0  # atno 14763 bound_to 14248
  136.2083  155.1995  102.0810 LP  0  0  0  0  0  0  0  0  0  0  0  0  # atno 14798 bound_to 12654
  135.7481  154.3828  103.4181 LP  0  0  0  0  0  0  0  0  0  0  0  0  # atno 14799 bound_to 12654
  127.4491  146.8114  112.0455 LP  0  0  0  0  0  0  0  0  0  0  0  0  # atno 14808 bound_to 4821
  125.9329  142.7053  113.8540 LP  0  0  0  0  0  0  0  0  0  0  0  0  # atno 14809 bound_to 4826
  126.6130  143.9327  114.6893 LP  0  0  0  0  0  0  0  0  0  0  0  0  # atno 14810 bound_to 4826
  142.0537  145.7090  106.1778 LP  0  0  0  0  0  0  0  0  0  0  0  0  # atno 14815 bound_to 13062
  143.3414  145.6615  107.1809 LP  0  0  0  0  0  0  0  0  0  0  0  0  # atno 14816 bound_to 13062
  142.5455  136.8317  109.2461 LP  0  0  0  0  0  0  0  0  0  0  0  0  # atno 14820 bound_to 6477
  143.1752  138.3556  109.7762 LP  0  0  0  0  0  0  0  0  0  0  0  0  # atno 14821 bound_to 6477
  146.1819  139.3523  106.6144 LP  0  0  0  0  0  0  0  0  0  0  0  0  # atno 14822 bound_to 6474
  140.9722  135.1770  104.5161 LP  0  0  0  0  0  0  0  0  0  0  0  0  # atno 14827 bound_to 13124
  142.1560  136.2922  104.3699 LP  0  0  0  0  0  0  0  0  0  0  0  0  # atno 14828 bound_to 13124

> <Gold.Score>
     Fitness  S(hb_ext) S(vdw_ext)  S(hb_int)    S(int)      intcor
     36.01       0.00      27.23       0.00      -1.43      -0.76

> <Gold.Goldscore.Fitness>
36.0138

> <Gold.Goldscore.Internal.Vdw>
-1.7119

> <Gold.Goldscore.Internal.Torsion>
-0.4805

> <Gold.Goldscore.External.Vdw>
27.2300

> <Gold.Goldscore.Internal.HBond>
0.0000

> <Gold.Goldscore.External.HBond>
0.0000

> <Gold.Goldscore.Internal.Correction>
-0.7650

> <Gold.Goldscore.Internal.Vdw.Weighted>
-1.7119

> <Gold.Goldscore.Internal.Torsion.Weighted>
-0.4805

> <Gold.Goldscore.External.Vdw.Weighted>
37.4413

> <Gold.Goldscore.Internal.HBond.Weighted>
0.0000

> <Gold.Goldscore.External.HBond.Weighted>
0.0000

> <Gold.Goldscore.Internal.Correction.Weighted>
-0.7650

> <Gold.Rescore>
     Score     S(PLP)   S(hbond)     S(cho)   S(metal)  DE(clash)   DE(tors)     intcor
     38.02     -39.58       0.00       0.00       0.00       1.11       0.22       ----

> <Gold.PLP.Fitness>
38.0162

> <Gold.PLP.PLP>
-39.5768

> <Gold.PLP.part.hbond>
0.0000

> <Gold.PLP.part.metal>
0.0000

> <Gold.PLP.part.buried>
-1.2552

> <Gold.PLP.part.nonpolar>
-38.9946

> <Gold.PLP.part.repulsive>
0.3318

> <Gold.PLP.ligand.clash>
1.1121

> <Gold.PLP.ligand.torsion>
0.2242

> <Gold.PLP.Chemscore.Hbond>
0.0000

> <Gold.PLP.Chemscore.CHOScore>
0.0000

> <Gold.PLP.Chemscore.Metal>
0.0000

> <Gold.PLP.Chemscore.Internal.Correction>
   9.000000E+99

