#       Name:                CT1002167954
#       Creating user name   hitesit
#       Creation time:       Sun Apr 16 20:16:49 2023


#       File generated by GOLD software.
#

@<TRIPOS>MOLECULE
CT1002167954|ligand_prepared|mol2|1|dock10
    29    30     1
SMALL
NO_CHARGES


@<TRIPOS>ATOM
      1 C1         123.2801 246.4974 355.6804 C.3            1 RES1               0.0000
      2 C2         122.0445 246.4388 356.6017 C.ar           1 RES1               0.0000
      3 C3         123.6249 245.0520 355.3336 C.2            1 RES1               0.0000
      4 C4         122.8770 247.3461 354.4796 C.2            1 RES1               0.0000
      5 C5         124.5175 247.1539 356.3356 C.3            1 RES1               0.0000
      6 C6         121.5093 247.6033 357.1442 C.ar           1 RES1               0.0000
      7 C7         121.4286 245.2302 356.9155 C.ar           1 RES1               0.0000
      8 N8         123.3327 244.6175 354.0744 N.am           1 RES1               0.0000
      9 O9         124.1093 244.2937 356.1645 O.2            1 RES1               0.0000
     10 N10        122.8136 246.7359 353.2543 N.am           1 RES1               0.0000
     11 O11        122.5975 248.5339 354.5862 O.2            1 RES1               0.0000
     12 C12        125.7375 247.2032 355.4293 C.3            1 RES1               0.0000
     13 C13        120.3968 247.5614 357.9681 C.ar           1 RES1               0.0000
     14 C14        120.3162 245.1906 357.7399 C.ar           1 RES1               0.0000
     15 C15        122.9934 245.4031 353.0023 C.2            1 RES1               0.0000
     16 C16        119.7993 246.3553 358.2662 C.ar           1 RES1               0.0000
     17 O17        122.8661 244.9193 351.8812 O.2            1 RES1               0.0000
     18 H18        124.2578 248.1771 356.6342 H              1 RES1               0.0000
     19 H19        124.7746 246.5947 357.2437 H              1 RES1               0.0000
     20 H20        121.9675 248.5615 356.9228 H              1 RES1               0.0000
     21 H21        121.8186 244.3013 356.5137 H              1 RES1               0.0000
     22 H22        123.3700 243.6157 353.9151 H              1 RES1               0.0000
     23 H23        122.6140 247.3303 352.4560 H              1 RES1               0.0000
     24 H24        126.5769 247.6731 355.9377 H              1 RES1               0.0000
     25 H25        126.0389 246.2006 355.1333 H              1 RES1               0.0000
     26 H26        125.5251 247.7735 354.5274 H              1 RES1               0.0000
     27 H27        119.9947 248.4807 358.3809 H              1 RES1               0.0000
     28 H28        119.8496 244.2390 357.9722 H              1 RES1               0.0000
     29 H29        118.9276 246.3228 358.9113 H              1 RES1               0.0000
@<TRIPOS>BOND
    1    1    2 1     
    2    1    3 1     
    3    1    4 1     
    4    1    5 1     
    5    2    6 ar    
    6    2    7 ar    
    7    3    8 1     
    8    3    9 2     
    9    4   10 1     
   10    4   11 2     
   11    5   12 1     
   12    5   18 1     
   13    5   19 1     
   14    6   13 ar    
   15    6   20 1     
   16    7   14 ar    
   17    7   21 1     
   18    8   15 1     
   19    8   22 1     
   20   10   15 1     
   21   10   23 1     
   22   12   24 1     
   23   12   25 1     
   24   12   26 1     
   25   13   16 ar    
   26   13   27 1     
   27   14   16 ar    
   28   14   28 1     
   29   15   17 2     
   30   16   29 1     
@<TRIPOS>SUBSTRUCTURE
      1 RES1           1
@<TRIPOS>SET
DONOR_HYDROGENS      STATIC     ATOMS    <user>   **** ""
2 22 23
ATOM$RED        STATIC     ATOMS    COLORGROUP SYSTEM
2 22 23
@<TRIPOS>COMMENT
> <Gold.Version>
2022.3.0

> <Gold.Id.Protein>
unknown|4uch_clean|pdb

> <Gold.Protein.RotatedTorsions>
[ 12872 12851 12850 12848 ] final -171.11 input   59.98 | X-H torsion
[ 13459 13409 13408 13404 ] final  -62.61 input   59.99 | X-H torsion
[ 5555 5539 5538 5535 ] final -179.90 input   60.02 | X-H torsion
[ 9075 9061 9060 9058 ] final   22.32 input   59.99 | X-H torsion
[ 8987 8971 8970 8967 ] final    3.56 input   60.01 | X-H torsion
[ 8337 8307 8306 8304 ] final -145.43 input   59.99 | X-H torsion
[ 13454 13411 13410 13408 ] final -173.94 input   60.01 | X-H torsion

> <Gold.Protein.ActiveResidues>
 TRP311  MET341  HIS342  TRP414  ALA417  ARG419  CYS420  VAL421  GLY422  ARG423 
 SER462  ALA463  SER482  GLN483  LEU484  ILE485  ARG486  TRP566  TYR567  LEU569 
 PRO570  ALA571  VAL572  SER573  ASN574  MET575  PHE589  SER590  GLY591  TRP592 
 TYR593  MET594  GLU597  ILE598  ARG601  ASP602  ARG608  TRP683  PHE696  HIS697 
 GLU710  TYR711  GLN712  ASP714  HEM750  H4B760 

> <Gold.Protein.RotatedAtoms>
  127.3573  249.5899  360.7619 H   0  0  0  0  0  0  0  0  0  0  0  0  # atno 5555 bound_to 5539
  125.2137  241.9143  360.6403 H   0  0  0  0  0  0  0  0  0  0  0  0  # atno 8337 bound_to 8307
  113.9622  245.0696  367.2610 H   0  0  0  0  0  0  0  0  0  0  0  0  # atno 8987 bound_to 8971
  121.9275  241.8683  359.6753 H   0  0  0  0  0  0  0  0  0  0  0  0  # atno 9075 bound_to 9061
  119.7555  254.6368  353.1501 H   0  0  0  0  0  0  0  0  0  0  0  0  # atno 12872 bound_to 12851
  121.3915  253.3227  344.3600 H   0  0  0  0  0  0  0  0  0  0  0  0  # atno 13454 bound_to 13411
  124.3147  249.5929  346.5029 H   0  0  0  0  0  0  0  0  0  0  0  0  # atno 13459 bound_to 13409
  119.0159  254.0185  354.4609 LP  0  0  0  0  0  0  0  0  0  0  0  0  # atno 13471 bound_to 12851
  120.6041  253.7362  354.2067 LP  0  0  0  0  0  0  0  0  0  0  0  0  # atno 13472 bound_to 12851
  124.7867  250.4808  345.2239 LP  0  0  0  0  0  0  0  0  0  0  0  0  # atno 13488 bound_to 13409
  123.5612  249.4122  345.0723 LP  0  0  0  0  0  0  0  0  0  0  0  0  # atno 13489 bound_to 13409
  126.2633  248.9189  361.7616 LP  0  0  0  0  0  0  0  0  0  0  0  0  # atno 13492 bound_to 5539
  127.6681  249.5016  362.3562 LP  0  0  0  0  0  0  0  0  0  0  0  0  # atno 13493 bound_to 5539
  122.6828  240.4336  359.8163 LP  0  0  0  0  0  0  0  0  0  0  0  0  # atno 13518 bound_to 9061
  121.9896  241.1264  361.1225 LP  0  0  0  0  0  0  0  0  0  0  0  0  # atno 13519 bound_to 9061
  115.1700  245.1586  368.3479 LP  0  0  0  0  0  0  0  0  0  0  0  0  # atno 13520 bound_to 8971
  114.8157  243.7346  367.6313 LP  0  0  0  0  0  0  0  0  0  0  0  0  # atno 13521 bound_to 8971
  124.8758  242.9964  361.8077 LP  0  0  0  0  0  0  0  0  0  0  0  0  # atno 13526 bound_to 8307
  123.6717  242.3612  360.9057 LP  0  0  0  0  0  0  0  0  0  0  0  0  # atno 13527 bound_to 8307

> <Gold.Score>
     Fitness  S(hb_ext) S(vdw_ext)  S(hb_int)    S(int)      intcor
     28.63       5.52      18.66       0.00      -2.54      -0.76

> <Gold.Goldscore.Fitness>
28.6262

> <Gold.Goldscore.Internal.Vdw>
-2.9337

> <Gold.Goldscore.Internal.Torsion>
-0.3677

> <Gold.Goldscore.External.Vdw>
18.6574

> <Gold.Goldscore.Internal.HBond>
0.0000

> <Gold.Goldscore.External.HBond>
5.5150

> <Gold.Goldscore.Internal.Correction>
-0.7585

> <Gold.Goldscore.Hbonds>
donor molecule, donor type, donor heavy atom, donor atom, acceptor molecule, acceptor atom, score
      L1  H     8    22       P1  9171  0.07
      L1  H    10    23       P1 13402  0.90

> <Gold.Goldscore.Internal.Vdw.Weighted>
-2.9337

> <Gold.Goldscore.Internal.Torsion.Weighted>
-0.3677

> <Gold.Goldscore.External.Vdw.Weighted>
25.6540

> <Gold.Goldscore.Internal.HBond.Weighted>
0.0000

> <Gold.Goldscore.External.HBond.Weighted>
5.5150

> <Gold.Goldscore.Internal.Correction.Weighted>
-0.7585

> <Gold.Rescore>
     Score     S(PLP)   S(hbond)     S(cho)   S(metal)  DE(clash)   DE(tors)     intcor
     17.84     -16.78       0.85       0.00       0.00       1.31       0.09       ----

> <Gold.PLP.Fitness>
17.8405

> <Gold.PLP.PLP>
-16.7840

> <Gold.PLP.part.hbond>
-2.8540

> <Gold.PLP.part.metal>
0.0000

> <Gold.PLP.part.buried>
-1.4141

> <Gold.PLP.part.nonpolar>
-14.9594

> <Gold.PLP.part.repulsive>
3.0848

> <Gold.PLP.ligand.clash>
1.3126

> <Gold.PLP.ligand.torsion>
0.0874

> <Gold.PLP.Chemscore.Hbond>
0.8480

> <Gold.PLP.Chemscore.CHOScore>
0.0000

> <Gold.PLP.Chemscore.Metal>
0.0000

> <Gold.Chemscore.Hbonds>
donor molecule, donor type, donor heavy atom, donor atom, acceptor molecule, acceptor atom, score
      L1  H    10    23       P1 13402  0.13
      P1  H  9501  9536       L1     9  0.05

> <Gold.PLP.Chemscore.Internal.Correction>
   9.000000E+99

