#       Name:                CT1002167954
#       Creating user name   hitesit
#       Creation time:       Sun Apr 16 20:16:44 2023


#       File generated by GOLD software.
#

@<TRIPOS>MOLECULE
CT1002167954|ligand_prepared|mol2|1|dock5
    29    30     1
SMALL
NO_CHARGES


@<TRIPOS>ATOM
      1 C1         122.3597 244.9766 356.2843 C.3            1 RES1               0.0000
      2 C2         121.8944 246.2947 356.9362 C.ar           1 RES1               0.0000
      3 C3         123.8497 245.1419 355.9998 C.2            1 RES1               0.0000
      4 C4         122.0358 243.8698 357.2816 C.2            1 RES1               0.0000
      5 C5         121.6395 244.6484 354.9557 C.3            1 RES1               0.0000
      6 C6         120.5388 246.5835 357.0612 C.ar           1 RES1               0.0000
      7 C7         122.8073 247.2287 357.4189 C.ar           1 RES1               0.0000
      8 N8         124.7243 244.4678 356.8001 N.am           1 RES1               0.0000
      9 O9         124.2523 245.8835 355.1121 O.2            1 RES1               0.0000
     10 N10        123.0818 243.1892 357.8476 N.am           1 RES1               0.0000
     11 O11        120.8847 243.5921 357.5950 O.2            1 RES1               0.0000
     12 C12        122.1913 243.4222 354.2458 C.3            1 RES1               0.0000
     13 C13        120.1112 247.7620 357.6501 C.ar           1 RES1               0.0000
     14 C14        122.3775 248.4066 358.0072 C.ar           1 RES1               0.0000
     15 C15        124.4122 243.4586 357.6753 C.2            1 RES1               0.0000
     16 C16        121.0300 248.6740 358.1238 C.ar           1 RES1               0.0000
     17 O17        125.2938 242.8371 358.2615 O.2            1 RES1               0.0000
     18 H18        120.5741 244.4874 355.1620 H              1 RES1               0.0000
     19 H19        121.7243 245.5125 354.2852 H              1 RES1               0.0000
     20 H20        119.8011 245.8789 356.6920 H              1 RES1               0.0000
     21 H21        123.8723 247.0400 357.3369 H              1 RES1               0.0000
     22 H22        125.7007 244.7392 356.7427 H              1 RES1               0.0000
     23 H23        122.8469 242.4093 358.4534 H              1 RES1               0.0000
     24 H24        121.6509 243.2366 353.3200 H              1 RES1               0.0000
     25 H25        123.2431 243.5578 354.0029 H              1 RES1               0.0000
     26 H26        122.0998 242.5388 354.8745 H              1 RES1               0.0000
     27 H27        119.0496 247.9683 357.7382 H              1 RES1               0.0000
     28 H28        123.1042 249.1219 358.3781 H              1 RES1               0.0000
     29 H29        120.6948 249.5969 358.5854 H              1 RES1               0.0000
@<TRIPOS>BOND
    1    1    2 1     
    2    1    3 1     
    3    1    4 1     
    4    1    5 1     
    5    2    6 ar    
    6    2    7 ar    
    7    3    8 1     
    8    3    9 2     
    9    4   10 1     
   10    4   11 2     
   11    5   12 1     
   12    5   18 1     
   13    5   19 1     
   14    6   13 ar    
   15    6   20 1     
   16    7   14 ar    
   17    7   21 1     
   18    8   15 1     
   19    8   22 1     
   20   10   15 1     
   21   10   23 1     
   22   12   24 1     
   23   12   25 1     
   24   12   26 1     
   25   13   16 ar    
   26   13   27 1     
   27   14   16 ar    
   28   14   28 1     
   29   15   17 2     
   30   16   29 1     
@<TRIPOS>SUBSTRUCTURE
      1 RES1           1
@<TRIPOS>SET
DONOR_HYDROGENS      STATIC     ATOMS    <user>   **** ""
2 22 23
ATOM$RED        STATIC     ATOMS    COLORGROUP SYSTEM
2 22 23
@<TRIPOS>COMMENT
> <Gold.Version>
2022.3.0

> <Gold.Id.Protein>
unknown|4uch_clean|pdb

> <Gold.Protein.RotatedTorsions>
[ 12872 12851 12850 12848 ] final   66.99 input   59.98 | X-H torsion
[ 13459 13409 13408 13404 ] final  136.33 input   59.99 | X-H torsion
[ 5555 5539 5538 5535 ] final -138.45 input   60.02 | X-H torsion
[ 9075 9061 9060 9058 ] final   99.12 input   59.99 | X-H torsion
[ 8987 8971 8970 8967 ] final -148.48 input   60.01 | X-H torsion
[ 8337 8307 8306 8304 ] final  -44.38 input   59.99 | X-H torsion
[ 13454 13411 13410 13408 ] final  -44.20 input   60.01 | X-H torsion

> <Gold.Protein.ActiveResidues>
 TRP311  MET341  HIS342  TRP414  ALA417  ARG419  CYS420  VAL421  GLY422  ARG423 
 SER462  ALA463  SER482  GLN483  LEU484  ILE485  ARG486  TRP566  TYR567  LEU569 
 PRO570  ALA571  VAL572  SER573  ASN574  MET575  PHE589  SER590  GLY591  TRP592 
 TYR593  MET594  GLU597  ILE598  ARG601  ASP602  ARG608  TRP683  PHE696  HIS697 
 GLU710  TYR711  GLN712  ASP714  HEM750  H4B760 

> <Gold.Protein.RotatedAtoms>
  127.8247  249.7481  361.2035 H   0  0  0  0  0  0  0  0  0  0  0  0  # atno 5555 bound_to 5539
  123.7911  242.1615  360.7019 H   0  0  0  0  0  0  0  0  0  0  0  0  # atno 8337 bound_to 8307
  115.3499  244.6726  368.3643 H   0  0  0  0  0  0  0  0  0  0  0  0  # atno 8987 bound_to 8971
  121.7492  241.6959  360.8118 H   0  0  0  0  0  0  0  0  0  0  0  0  # atno 9075 bound_to 9061
  119.0388  254.0047  354.4787 H   0  0  0  0  0  0  0  0  0  0  0  0  # atno 12872 bound_to 12851
  121.0371  252.4433  345.7663 H   0  0  0  0  0  0  0  0  0  0  0  0  # atno 13454 bound_to 13411
  124.3581  250.2520  344.7788 H   0  0  0  0  0  0  0  0  0  0  0  0  # atno 13459 bound_to 13409
  120.6178  253.7483  354.1814 LP  0  0  0  0  0  0  0  0  0  0  0  0  # atno 13471 bound_to 12851
  119.7241  254.6430  353.1482 LP  0  0  0  0  0  0  0  0  0  0  0  0  # atno 13472 bound_to 12851
  123.5457  249.1762  345.6896 LP  0  0  0  0  0  0  0  0  0  0  0  0  # atno 13488 bound_to 13409
  124.7585  250.0529  346.3431 LP  0  0  0  0  0  0  0  0  0  0  0  0  # atno 13489 bound_to 13409
  126.3545  249.0573  361.1152 LP  0  0  0  0  0  0  0  0  0  0  0  0  # atno 13492 bound_to 5539
  127.1059  249.2039  362.5576 LP  0  0  0  0  0  0  0  0  0  0  0  0  # atno 13493 bound_to 5539
  122.2755  241.4028  359.3000 LP  0  0  0  0  0  0  0  0  0  0  0  0  # atno 13518 bound_to 9061
  122.5764  240.3308  360.4945 LP  0  0  0  0  0  0  0  0  0  0  0  0  # atno 13519 bound_to 9061
  114.4182  243.8483  367.3153 LP  0  0  0  0  0  0  0  0  0  0  0  0  # atno 13520 bound_to 8971
  114.1697  245.4447  367.5526 LP  0  0  0  0  0  0  0  0  0  0  0  0  # atno 13521 bound_to 8971
  125.4100  242.0592  360.8305 LP  0  0  0  0  0  0  0  0  0  0  0  0  # atno 13526 bound_to 8307
  124.5703  243.0495  361.8209 LP  0  0  0  0  0  0  0  0  0  0  0  0  # atno 13527 bound_to 8307

> <Gold.Score>
     Fitness  S(hb_ext) S(vdw_ext)  S(hb_int)    S(int)      intcor
     39.51       7.28      24.42       0.00      -1.36      -0.76

> <Gold.Goldscore.Fitness>
39.5050

> <Gold.Goldscore.Internal.Vdw>
-1.6974

> <Gold.Goldscore.Internal.Torsion>
-0.4209

> <Gold.Goldscore.External.Vdw>
24.4225

> <Gold.Goldscore.Internal.HBond>
0.0000

> <Gold.Goldscore.External.HBond>
7.2839

> <Gold.Goldscore.Internal.Correction>
-0.7585

> <Gold.Goldscore.Hbonds>
donor molecule, donor type, donor heavy atom, donor atom, acceptor molecule, acceptor atom, score
      P1  H  9502  9538       L1    17  0.98
      L1  H    10    23       P1  9061  0.69

> <Gold.Goldscore.Internal.Vdw.Weighted>
-1.6974

> <Gold.Goldscore.Internal.Torsion.Weighted>
-0.4209

> <Gold.Goldscore.External.Vdw.Weighted>
33.5809

> <Gold.Goldscore.Internal.HBond.Weighted>
0.0000

> <Gold.Goldscore.External.HBond.Weighted>
7.2839

> <Gold.Goldscore.Internal.Correction.Weighted>
-0.7585

> <Gold.Rescore>
     Score     S(PLP)   S(hbond)     S(cho)   S(metal)  DE(clash)   DE(tors)     intcor
     25.35     -22.55       1.49       0.00       0.00       1.38       0.14       ----

> <Gold.PLP.Fitness>
25.3533

> <Gold.PLP.PLP>
-22.5459

> <Gold.PLP.part.hbond>
-3.9932

> <Gold.PLP.part.metal>
0.0000

> <Gold.PLP.part.buried>
1.1805

> <Gold.PLP.part.nonpolar>
-22.1988

> <Gold.PLP.part.repulsive>
2.8716

> <Gold.PLP.ligand.clash>
1.3794

> <Gold.PLP.ligand.torsion>
0.1439

> <Gold.PLP.Chemscore.Hbond>
1.4915

> <Gold.PLP.Chemscore.CHOScore>
0.0000

> <Gold.PLP.Chemscore.Metal>
0.0000

> <Gold.Chemscore.Hbonds>
donor molecule, donor type, donor heavy atom, donor atom, acceptor molecule, acceptor atom, score
      L1  H    10    23       P1  9061  0.23
      P1  H  9502  9538       L1    17  0.93

> <Gold.PLP.Chemscore.Internal.Correction>
   9.000000E+99

