#       Name:                CT1002167954
#       Creating user name   hitesit
#       Creation time:       Sun Apr 16 20:16:48 2023


#       File generated by GOLD software.
#

@<TRIPOS>MOLECULE
CT1002167954|ligand_prepared|mol2|1|dock9
    29    30     1
SMALL
NO_CHARGES


@<TRIPOS>ATOM
      1 C1         122.5049 245.4380 356.6176 C.3            1 RES1               0.0000
      2 C2         121.8201 245.2494 357.9866 C.ar           1 RES1               0.0000
      3 C3         122.5472 246.9419 356.3632 C.2            1 RES1               0.0000
      4 C4         123.8791 244.7880 356.7348 C.2            1 RES1               0.0000
      5 C5         121.7553 244.7625 355.4457 C.3            1 RES1               0.0000
      6 C6         121.5158 243.9756 358.4572 C.ar           1 RES1               0.0000
      7 C7         121.4897 246.3376 358.7900 C.ar           1 RES1               0.0000
      8 N8         123.7514 247.5700 356.4869 N.am           1 RES1               0.0000
      9 O9         121.5322 247.5738 356.0970 O.2            1 RES1               0.0000
     10 N10        124.9814 245.5982 356.6565 N.am           1 RES1               0.0000
     11 O11        124.0168 243.5837 356.9109 O.2            1 RES1               0.0000
     12 C12        122.4246 244.9599 354.0947 C.3            1 RES1               0.0000
     13 C13        120.9059 243.7958 359.6877 C.ar           1 RES1               0.0000
     14 C14        120.8796 246.1555 360.0201 C.ar           1 RES1               0.0000
     15 C15        124.9791 246.9637 356.5686 C.2            1 RES1               0.0000
     16 C16        120.5878 244.8855 360.4700 C.ar           1 RES1               0.0000
     17 O17        126.0121 247.6271 356.5578 O.2            1 RES1               0.0000
     18 H18        121.6791 243.6871 355.6483 H              1 RES1               0.0000
     19 H19        120.7369 245.1676 355.3977 H              1 RES1               0.0000
     20 H20        121.7563 243.1063 357.8543 H              1 RES1               0.0000
     21 H21        121.7089 247.3460 358.4559 H              1 RES1               0.0000
     22 H22        123.7378 248.5844 356.5219 H              1 RES1               0.0000
     23 H23        125.8877 245.1411 356.6643 H              1 RES1               0.0000
     24 H24        121.8582 244.4662 353.3078 H              1 RES1               0.0000
     25 H25        122.4942 246.0176 353.8495 H              1 RES1               0.0000
     26 H26        123.4308 244.5460 354.0986 H              1 RES1               0.0000
     27 H27        120.6771 242.7943 360.0366 H              1 RES1               0.0000
     28 H28        120.6305 247.0160 360.6323 H              1 RES1               0.0000
     29 H29        120.1104 244.7443 361.4341 H              1 RES1               0.0000
@<TRIPOS>BOND
    1    1    2 1     
    2    1    3 1     
    3    1    4 1     
    4    1    5 1     
    5    2    6 ar    
    6    2    7 ar    
    7    3    8 1     
    8    3    9 2     
    9    4   10 1     
   10    4   11 2     
   11    5   12 1     
   12    5   18 1     
   13    5   19 1     
   14    6   13 ar    
   15    6   20 1     
   16    7   14 ar    
   17    7   21 1     
   18    8   15 1     
   19    8   22 1     
   20   10   15 1     
   21   10   23 1     
   22   12   24 1     
   23   12   25 1     
   24   12   26 1     
   25   13   16 ar    
   26   13   27 1     
   27   14   16 ar    
   28   14   28 1     
   29   15   17 2     
   30   16   29 1     
@<TRIPOS>SUBSTRUCTURE
      1 RES1           1
@<TRIPOS>SET
DONOR_HYDROGENS      STATIC     ATOMS    <user>   **** ""
2 22 23
ATOM$RED        STATIC     ATOMS    COLORGROUP SYSTEM
2 22 23
@<TRIPOS>COMMENT
> <Gold.Version>
2022.3.0

> <Gold.Id.Protein>
unknown|4uch_clean|pdb

> <Gold.Protein.RotatedTorsions>
[ 12872 12851 12850 12848 ] final   19.83 input   59.98 | X-H torsion
[ 13459 13409 13408 13404 ] final  -11.69 input   59.99 | X-H torsion
[ 5555 5539 5538 5535 ] final  121.43 input   60.02 | X-H torsion
[ 9075 9061 9060 9058 ] final  -93.06 input   59.99 | X-H torsion
[ 8987 8971 8970 8967 ] final   24.69 input   60.01 | X-H torsion
[ 8337 8307 8306 8304 ] final   -6.28 input   59.99 | X-H torsion
[ 13454 13411 13410 13408 ] final  -70.37 input   60.01 | X-H torsion

> <Gold.Protein.ActiveResidues>
 TRP311  MET341  HIS342  TRP414  ALA417  ARG419  CYS420  VAL421  GLY422  ARG423 
 SER462  ALA463  SER482  GLN483  LEU484  ILE485  ARG486  TRP566  TYR567  LEU569 
 PRO570  ALA571  VAL572  SER573  ASN574  MET575  PHE589  SER590  GLY591  TRP592 
 TYR593  MET594  GLU597  ILE598  ARG601  ASP602  ARG608  TRP683  PHE696  HIS697 
 GLU710  TYR711  GLN712  ASP714  HEM750  H4B760 

> <Gold.Protein.RotatedAtoms>
  126.5445  249.1842  360.8849 H   0  0  0  0  0  0  0  0  0  0  0  0  # atno 5555 bound_to 5539
  123.6640  242.5672  361.1408 H   0  0  0  0  0  0  0  0  0  0  0  0  # atno 8337 bound_to 8307
  113.9351  244.7474  367.1454 H   0  0  0  0  0  0  0  0  0  0  0  0  # atno 8987 bound_to 8971
  122.6731  240.4741  359.7527 H   0  0  0  0  0  0  0  0  0  0  0  0  # atno 9075 bound_to 9061
  119.6556  253.6698  354.7400 H   0  0  0  0  0  0  0  0  0  0  0  0  # atno 12872 bound_to 12851
  120.8585  252.4086  345.3831 H   0  0  0  0  0  0  0  0  0  0  0  0  # atno 13454 bound_to 13411
  123.7344  249.2049  346.1026 H   0  0  0  0  0  0  0  0  0  0  0  0  # atno 13459 bound_to 13409
  120.6461  254.1424  353.5388 LP  0  0  0  0  0  0  0  0  0  0  0  0  # atno 13471 bound_to 12851
  119.0746  254.5861  353.5276 LP  0  0  0  0  0  0  0  0  0  0  0  0  # atno 13472 bound_to 12851
  124.9168  250.3185  346.0073 LP  0  0  0  0  0  0  0  0  0  0  0  0  # atno 13488 bound_to 13409
  124.0157  249.9653  344.6920 LP  0  0  0  0  0  0  0  0  0  0  0  0  # atno 13489 bound_to 13409
  126.8155  249.0760  362.4853 LP  0  0  0  0  0  0  0  0  0  0  0  0  # atno 13492 bound_to 5539
  127.9351  249.7534  361.5085 LP  0  0  0  0  0  0  0  0  0  0  0  0  # atno 13493 bound_to 5539
  122.0254  241.0594  361.1262 LP  0  0  0  0  0  0  0  0  0  0  0  0  # atno 13518 bound_to 9061
  121.8964  241.9042  359.7347 LP  0  0  0  0  0  0  0  0  0  0  0  0  # atno 13519 bound_to 9061
  114.9558  245.4031  368.2299 LP  0  0  0  0  0  0  0  0  0  0  0  0  # atno 13520 bound_to 8971
  115.0571  243.8145  367.8657 LP  0  0  0  0  0  0  0  0  0  0  0  0  # atno 13521 bound_to 8971
  124.9555  241.8204  360.4911 LP  0  0  0  0  0  0  0  0  0  0  0  0  # atno 13526 bound_to 8307
  125.1529  242.8796  361.7182 LP  0  0  0  0  0  0  0  0  0  0  0  0  # atno 13527 bound_to 8307

> <Gold.Score>
     Fitness  S(hb_ext) S(vdw_ext)  S(hb_int)    S(int)      intcor
     33.28       1.97      24.27       0.00      -2.06      -0.76

> <Gold.Goldscore.Fitness>
33.2834

> <Gold.Goldscore.Internal.Vdw>
-2.4522

> <Gold.Goldscore.Internal.Torsion>
-0.3682

> <Gold.Goldscore.External.Vdw>
24.2717

> <Gold.Goldscore.Internal.HBond>
0.0000

> <Gold.Goldscore.External.HBond>
1.9716

> <Gold.Goldscore.Internal.Correction>
-0.7585

> <Gold.Goldscore.Hbonds>
donor molecule, donor type, donor heavy atom, donor atom, acceptor molecule, acceptor atom, score
      P1  H  5563  5588       L1    11  0.07
      P1  H  9501  9536       L1    11  0.31

> <Gold.Goldscore.Internal.Vdw.Weighted>
-2.4522

> <Gold.Goldscore.Internal.Torsion.Weighted>
-0.3682

> <Gold.Goldscore.External.Vdw.Weighted>
33.3736

> <Gold.Goldscore.Internal.HBond.Weighted>
0.0000

> <Gold.Goldscore.External.HBond.Weighted>
1.9716

> <Gold.Goldscore.Internal.Correction.Weighted>
-0.7585

> <Gold.Rescore>
     Score     S(PLP)   S(hbond)     S(cho)   S(metal)  DE(clash)   DE(tors)     intcor
     14.00     -14.60       0.27       0.00       0.00       1.37       0.01       ----

> <Gold.PLP.Fitness>
14.0014

> <Gold.PLP.PLP>
-14.5998

> <Gold.PLP.part.hbond>
-1.0000

> <Gold.PLP.part.metal>
0.0000

> <Gold.PLP.part.buried>
-1.9858

> <Gold.PLP.part.nonpolar>
-23.9952

> <Gold.PLP.part.repulsive>
11.5783

> <Gold.PLP.ligand.clash>
1.3749

> <Gold.PLP.ligand.torsion>
0.0096

> <Gold.PLP.Chemscore.Hbond>
0.2652

> <Gold.PLP.Chemscore.CHOScore>
0.0000

> <Gold.PLP.Chemscore.Metal>
0.0000

> <Gold.Chemscore.Hbonds>
donor molecule, donor type, donor heavy atom, donor atom, acceptor molecule, acceptor atom, score
      P1  H  5676  5712       L1    17  0.05

> <Gold.PLP.Chemscore.Internal.Correction>
   9.000000E+99

