#       Name:                CT1002167954
#       Creating user name   hitesit
#       Creation time:       Sun Apr 16 02:21:22 2023


#       File generated by GOLD software.
#

@<TRIPOS>MOLECULE
CT1002167954|ligand_prepared|mol2|1|dock2
    29    30     1
SMALL
NO_CHARGES


@<TRIPOS>ATOM
      1 C1          15.8888  15.3840  22.5796 C.3            1 RES1               0.0000
      2 C2          15.8434  15.1415  24.1021 C.ar           1 RES1               0.0000
      3 C3          14.6308  16.1754  22.2342 C.2            1 RES1               0.0000
      4 C4          17.1890  16.1317  22.3053 C.2            1 RES1               0.0000
      5 C5          15.8982  14.0854  21.7400 C.3            1 RES1               0.0000
      6 C6          15.2935  16.0935  24.9552 C.ar           1 RES1               0.0000
      7 C7          16.3442  13.9715  24.6669 C.ar           1 RES1               0.0000
      8 N8          14.7776  17.4992  21.9412 N.am           1 RES1               0.0000
      9 O9          13.5222  15.6551  22.2570 O.2            1 RES1               0.0000
     10 N10         17.1043  17.4182  21.8412 N.am           1 RES1               0.0000
     11 O11         18.2861  15.6240  22.5027 O.2            1 RES1               0.0000
     12 C12         15.6913  14.3162  20.2514 C.3            1 RES1               0.0000
     13 C13         15.2433  15.8824  26.3232 C.ar           1 RES1               0.0000
     14 C14         16.2932  13.7625  26.0352 C.ar           1 RES1               0.0000
     15 C15         15.9577  18.1464  21.6760 C.2            1 RES1               0.0000
     16 C16         15.7426  14.7168  26.8640 C.ar           1 RES1               0.0000
     17 O17         15.9656  19.3170  21.3062 O.2            1 RES1               0.0000
     18 H18         16.8584  13.5760  21.8883 H              1 RES1               0.0000
     19 H19         15.1062  13.4214  22.1078 H              1 RES1               0.0000
     20 H20         14.8978  17.0180  24.5481 H              1 RES1               0.0000
     21 H21         16.7829  13.2073  24.0343 H              1 RES1               0.0000
     22 H22         13.9318  18.0599  21.9173 H              1 RES1               0.0000
     23 H23         17.9768  17.8754  21.5961 H              1 RES1               0.0000
     24 H24         15.7066  13.3731  19.7091 H              1 RES1               0.0000
     25 H25         14.7341  14.7987  20.0652 H              1 RES1               0.0000
     26 H26         16.4759  14.9524  19.8470 H              1 RES1               0.0000
     27 H27         14.8102  16.6372  26.9713 H              1 RES1               0.0000
     28 H28         16.6880  12.8439  26.4565 H              1 RES1               0.0000
     29 H29         15.7028  14.5515  27.9356 H              1 RES1               0.0000
@<TRIPOS>BOND
    1    1    2 1     
    2    1    3 1     
    3    1    4 1     
    4    1    5 1     
    5    2    6 ar    
    6    2    7 ar    
    7    3    8 1     
    8    3    9 2     
    9    4   10 1     
   10    4   11 2     
   11    5   12 1     
   12    5   18 1     
   13    5   19 1     
   14    6   13 ar    
   15    6   20 1     
   16    7   14 ar    
   17    7   21 1     
   18    8   15 1     
   19    8   22 1     
   20   10   15 1     
   21   10   23 1     
   22   12   24 1     
   23   12   25 1     
   24   12   26 1     
   25   13   16 ar    
   26   13   27 1     
   27   14   16 ar    
   28   14   28 1     
   29   15   17 2     
   30   16   29 1     
@<TRIPOS>SUBSTRUCTURE
      1 RES1           1
@<TRIPOS>SET
DONOR_HYDROGENS      STATIC     ATOMS    <user>   **** ""
2 22 23
ATOM$RED        STATIC     ATOMS    COLORGROUP SYSTEM
2 22 23
@<TRIPOS>COMMENT
> <Gold.Version>
2022.3.0

> <Gold.Id.Protein>
unknown|3nnw_clean|pdb

> <Gold.Protein.RotatedTorsions>
[ 1705 1700 1698 1695 ] final  179.67 input   59.99 | X-H torsion
[  530  527  526  524 ] final   50.97 input   59.98 | X-H torsion
[ 1060 1053 1051 1048 ] final  113.80 input   60.02 | X-H torsion
[ 5171 5162 5161 5159 ] final  -10.82 input   60.02 | X-H torsion

> <Gold.Protein.ActiveResidues>
 TRP18   VAL30   TYR35   SER37   VAL38   CYS39   ALA40   VAL50   ALA51   VAL52  
 LYS53   LYS54   LEU55   ILE63   HIS64   LYS66   ARG67   THR68   TYR69   ARG70  
 GLU71   LEU72   ARG73   LEU74   LEU75   LYS76   HIS77   MET78   ASN82   VAL83  
 ILE84   GLY85   LEU86   LEU87   ASP88   VAL89   VAL102  TYR103  LEU104  VAL105 
 THR106  HIS107  LEU108  MET109  LEU138  TYR140  ILE141  HIS142  ALA144  ILE146 
 ILE147  HIS148  ARG149  ASP150  LEU151  SER154  ASN155  LEU156  ALA157  LYS165 
 ILE166  LEU167  ASP168  PHE169  GLY170  LEU171  ALA172  HIS174  ASP205  TYR323 
 PHE327  GLU328 

> <Gold.Protein.RotatedAtoms>
   16.1032   26.4005   30.8468 H   0  0  0  0  0  0  0  0  0  0  0  0  # atno 530  bound_to 527 
    8.6040   21.5798   34.0526 H   0  0  0  0  0  0  0  0  0  0  0  0  # atno 1060 bound_to 1053
   17.3045    7.8509   29.3774 H   0  0  0  0  0  0  0  0  0  0  0  0  # atno 1705 bound_to 1700
    6.8297   17.9833   21.6903 H   0  0  0  0  0  0  0  0  0  0  0  0  # atno 5171 bound_to 5162
   17.3899    6.2883   29.8225 LP  0  0  0  0  0  0  0  0  0  0  0  0  # atno 5667 bound_to 1700
   16.6313    7.3726   30.7792 LP  0  0  0  0  0  0  0  0  0  0  0  0  # atno 5668 bound_to 1700
   16.8758   27.1613   32.0602 LP  0  0  0  0  0  0  0  0  0  0  0  0  # atno 5712 bound_to 527 
   15.2508   27.0044   32.0945 LP  0  0  0  0  0  0  0  0  0  0  0  0  # atno 5713 bound_to 527 

> <Gold.Score>
     Fitness  S(hb_ext) S(vdw_ext)  S(hb_int)    S(int)      intcor
     37.20       0.00      27.34       0.00      -0.39      -0.79

> <Gold.Goldscore.Fitness>
37.1980

> <Gold.Goldscore.Internal.Vdw>
-0.6378

> <Gold.Goldscore.Internal.Torsion>
-0.5407

> <Gold.Goldscore.External.Vdw>
27.3386

> <Gold.Goldscore.Internal.HBond>
0.0000

> <Gold.Goldscore.External.HBond>
0.0000

> <Gold.Goldscore.Internal.Correction>
-0.7860

> <Gold.Goldscore.Internal.Vdw.Weighted>
-0.6378

> <Gold.Goldscore.Internal.Torsion.Weighted>
-0.5407

> <Gold.Goldscore.External.Vdw.Weighted>
37.5906

> <Gold.Goldscore.Internal.HBond.Weighted>
0.0000

> <Gold.Goldscore.External.HBond.Weighted>
0.0000

> <Gold.Goldscore.Internal.Correction.Weighted>
-0.7860

> <Gold.Rescore>
     Score     S(PLP)   S(hbond)     S(cho)   S(metal)  DE(clash)   DE(tors)     intcor
     27.21     -29.32       0.00       0.00       0.00       0.01       1.05       ----

> <Gold.PLP.Fitness>
27.2060

> <Gold.PLP.PLP>
-29.3205

> <Gold.PLP.part.hbond>
0.0000

> <Gold.PLP.part.metal>
0.0000

> <Gold.PLP.part.buried>
3.9277

> <Gold.PLP.part.nonpolar>
-37.3928

> <Gold.PLP.part.repulsive>
4.1251

> <Gold.PLP.ligand.clash>
0.0134

> <Gold.PLP.ligand.torsion>
1.0506

> <Gold.PLP.Chemscore.Hbond>
0.0000

> <Gold.PLP.Chemscore.CHOScore>
0.0000

> <Gold.PLP.Chemscore.Metal>
0.0000

> <Gold.PLP.Chemscore.Internal.Correction>
   9.000000E+99

