#       Name:                CT1002167954
#       Creating user name   hitesit
#       Creation time:       Sun Apr 16 02:21:23 2023


#       File generated by GOLD software.
#

@<TRIPOS>MOLECULE
CT1002167954|ligand_prepared|mol2|1|dock3
    29    30     1
SMALL
NO_CHARGES


@<TRIPOS>ATOM
      1 C1          15.1470  18.6661  26.5827 C.3            1 RES1               0.0000
      2 C2          15.4051  17.1745  26.2876 C.ar           1 RES1               0.0000
      3 C3          16.4145  19.4097  26.1719 C.2            1 RES1               0.0000
      4 C4          13.9107  19.0524  25.7782 C.2            1 RES1               0.0000
      5 C5          14.8613  18.9680  28.0722 C.3            1 RES1               0.0000
      6 C6          15.1463  16.6465  25.0262 C.ar           1 RES1               0.0000
      7 C7          15.9034  16.3161  27.2640 C.ar           1 RES1               0.0000
      8 N8          16.3708  20.1476  25.0258 N.am           1 RES1               0.0000
      9 O9          17.4483  19.3182  26.8225 O.2            1 RES1               0.0000
     10 N10         14.0631  19.9600  24.7629 N.am           1 RES1               0.0000
     11 O11         12.8092  18.5666  26.0037 O.2            1 RES1               0.0000
     12 C12         14.2203  20.3262  28.3105 C.3            1 RES1               0.0000
     13 C13         15.3800  15.3096  24.7500 C.ar           1 RES1               0.0000
     14 C14         16.1362  14.9793  26.9858 C.ar           1 RES1               0.0000
     15 C15         15.2428  20.5019  24.3304 C.2            1 RES1               0.0000
     16 C16         15.8755  14.4753  25.7293 C.ar           1 RES1               0.0000
     17 O17         15.3062  21.2699  23.3747 O.2            1 RES1               0.0000
     18 H18         14.1978  18.1899  28.4693 H              1 RES1               0.0000
     19 H19         15.8050  18.9204  28.6295 H              1 RES1               0.0000
     20 H20         14.7539  17.2873  24.2436 H              1 RES1               0.0000
     21 H21         16.1149  16.6904  28.2599 H              1 RES1               0.0000
     22 H22         17.2591  20.4653  24.6511 H              1 RES1               0.0000
     23 H23         13.2190  20.2594  24.2853 H              1 RES1               0.0000
     24 H24         14.0413  20.4873  29.3715 H              1 RES1               0.0000
     25 H25         14.8647  21.1254  27.9504 H              1 RES1               0.0000
     26 H26         13.2670  20.3992  27.7911 H              1 RES1               0.0000
     27 H27         15.1719  14.9175  23.7600 H              1 RES1               0.0000
     28 H28         16.5256  14.3262  27.7597 H              1 RES1               0.0000
     29 H29         16.0588  13.4281  25.5126 H              1 RES1               0.0000
@<TRIPOS>BOND
    1    1    2 1     
    2    1    3 1     
    3    1    4 1     
    4    1    5 1     
    5    2    6 ar    
    6    2    7 ar    
    7    3    8 1     
    8    3    9 2     
    9    4   10 1     
   10    4   11 2     
   11    5   12 1     
   12    5   18 1     
   13    5   19 1     
   14    6   13 ar    
   15    6   20 1     
   16    7   14 ar    
   17    7   21 1     
   18    8   15 1     
   19    8   22 1     
   20   10   15 1     
   21   10   23 1     
   22   12   24 1     
   23   12   25 1     
   24   12   26 1     
   25   13   16 ar    
   26   13   27 1     
   27   14   16 ar    
   28   14   28 1     
   29   15   17 2     
   30   16   29 1     
@<TRIPOS>SUBSTRUCTURE
      1 RES1           1
@<TRIPOS>SET
DONOR_HYDROGENS      STATIC     ATOMS    <user>   **** ""
2 22 23
ATOM$RED        STATIC     ATOMS    COLORGROUP SYSTEM
2 22 23
@<TRIPOS>COMMENT
> <Gold.Version>
2022.3.0

> <Gold.Id.Protein>
unknown|3nnw_clean|pdb

> <Gold.Protein.RotatedTorsions>
[ 1705 1700 1698 1695 ] final -133.53 input   59.99 | X-H torsion
[  530  527  526  524 ] final   93.95 input   59.98 | X-H torsion
[ 1060 1053 1051 1048 ] final   72.32 input   60.02 | X-H torsion
[ 5171 5162 5161 5159 ] final  -58.46 input   60.02 | X-H torsion

> <Gold.Protein.ActiveResidues>
 TRP18   VAL30   TYR35   SER37   VAL38   CYS39   ALA40   VAL50   ALA51   VAL52  
 LYS53   LYS54   LEU55   ILE63   HIS64   LYS66   ARG67   THR68   TYR69   ARG70  
 GLU71   LEU72   ARG73   LEU74   LEU75   LYS76   HIS77   MET78   ASN82   VAL83  
 ILE84   GLY85   LEU86   LEU87   ASP88   VAL89   VAL102  TYR103  LEU104  VAL105 
 THR106  HIS107  LEU108  MET109  LEU138  TYR140  ILE141  HIS142  ALA144  ILE146 
 ILE147  HIS148  ARG149  ASP150  LEU151  SER154  ASN155  LEU156  ALA157  LYS165 
 ILE166  LEU167  ASP168  PHE169  GLY170  LEU171  ALA172  HIS174  ASP205  TYR323 
 PHE327  GLU328 

> <Gold.Protein.RotatedAtoms>
   15.4610   26.4606   31.0801 H   0  0  0  0  0  0  0  0  0  0  0  0  # atno 530  bound_to 527 
    9.0362   21.6382   33.5534 H   0  0  0  0  0  0  0  0  0  0  0  0  # atno 1060 bound_to 1053
   16.9254    8.0897   29.9707 H   0  0  0  0  0  0  0  0  0  0  0  0  # atno 1705 bound_to 1700
    6.5631   18.6346   21.4146 H   0  0  0  0  0  0  0  0  0  0  0  0  # atno 5171 bound_to 5162
   17.5864    6.7709   29.2844 LP  0  0  0  0  0  0  0  0  0  0  0  0  # atno 5667 bound_to 1700
   16.8167    6.6494   30.7195 LP  0  0  0  0  0  0  0  0  0  0  0  0  # atno 5668 bound_to 1700
   16.9968   26.8412   31.4602 LP  0  0  0  0  0  0  0  0  0  0  0  0  # atno 5712 bound_to 527 
   15.7765   27.2641   32.4596 LP  0  0  0  0  0  0  0  0  0  0  0  0  # atno 5713 bound_to 527 

> <Gold.Score>
     Fitness  S(hb_ext) S(vdw_ext)  S(hb_int)    S(int)      intcor
     34.13       0.00      25.27       0.00      -0.62      -0.76

> <Gold.Goldscore.Fitness>
34.1267

> <Gold.Goldscore.Internal.Vdw>
-0.5923

> <Gold.Goldscore.Internal.Torsion>
-0.7884

> <Gold.Goldscore.External.Vdw>
25.2672

> <Gold.Goldscore.Internal.HBond>
0.0000

> <Gold.Goldscore.External.HBond>
0.0000

> <Gold.Goldscore.Internal.Correction>
-0.7650

> <Gold.Goldscore.Internal.Vdw.Weighted>
-0.5923

> <Gold.Goldscore.Internal.Torsion.Weighted>
-0.7884

> <Gold.Goldscore.External.Vdw.Weighted>
34.7424

> <Gold.Goldscore.Internal.HBond.Weighted>
0.0000

> <Gold.Goldscore.External.HBond.Weighted>
0.0000

> <Gold.Goldscore.Internal.Correction.Weighted>
-0.7650

> <Gold.Rescore>
     Score     S(PLP)   S(hbond)     S(cho)   S(metal)  DE(clash)   DE(tors)     intcor
     27.23     -27.89       0.00       0.00       0.00       0.00       0.33       ----

> <Gold.PLP.Fitness>
27.2288

> <Gold.PLP.PLP>
-27.8869

> <Gold.PLP.part.hbond>
-0.5812

> <Gold.PLP.part.metal>
0.0000

> <Gold.PLP.part.buried>
-2.1129

> <Gold.PLP.part.nonpolar>
-25.0581

> <Gold.PLP.part.repulsive>
0.3961

> <Gold.PLP.ligand.clash>
0.0000

> <Gold.PLP.ligand.torsion>
0.3291

> <Gold.PLP.Chemscore.Hbond>
0.0000

> <Gold.PLP.Chemscore.CHOScore>
0.0000

> <Gold.PLP.Chemscore.Metal>
0.0000

> <Gold.PLP.Chemscore.Internal.Correction>
   9.000000E+99

