#       Name:                CT1002167954
#       Creating user name   hitesit
#       Creation time:       Sun Apr 16 02:21:29 2023


#       File generated by GOLD software.
#

@<TRIPOS>MOLECULE
CT1002167954|ligand_prepared|mol2|1|dock8
    29    30     1
SMALL
NO_CHARGES


@<TRIPOS>ATOM
      1 C1          16.0068  18.2643  27.2534 C.3            1 RES1               0.0000
      2 C2          15.9519  16.7463  26.9862 C.ar           1 RES1               0.0000
      3 C3          14.6092  18.6694  27.7126 C.2            1 RES1               0.0000
      4 C4          17.0918  18.4736  28.3039 C.2            1 RES1               0.0000
      5 C5          16.3778  19.1047  26.0093 C.3            1 RES1               0.0000
      6 C6          15.4509  16.2561  25.7839 C.ar           1 RES1               0.0000
      7 C7          16.4001  15.8256  27.9296 C.ar           1 RES1               0.0000
      8 N8          14.4361  18.9525  29.0354 N.am           1 RES1               0.0000
      9 O9          13.6648  18.7015  26.9333 O.2            1 RES1               0.0000
     10 N10         16.7119  18.9391  29.5355 N.am           1 RES1               0.0000
     11 O11         18.2702  18.2238  28.0816 O.2            1 RES1               0.0000
     12 C12         16.7737  20.5368  26.3326 C.3            1 RES1               0.0000
     13 C13         15.4026  14.8949  25.5326 C.ar           1 RES1               0.0000
     14 C14         16.3507  14.4648  27.6763 C.ar           1 RES1               0.0000
     15 C15         15.4294  19.1588  29.9586 C.2            1 RES1               0.0000
     16 C16         15.8528  13.9985  26.4782 C.ar           1 RES1               0.0000
     17 O17         15.1636  19.5257  31.0996 O.2            1 RES1               0.0000
     18 H18         17.2114  18.6167  25.4894 H              1 RES1               0.0000
     19 H19         15.5200  19.1213  25.3258 H              1 RES1               0.0000
     20 H20         15.0899  16.9463  25.0288 H              1 RES1               0.0000
     21 H21         16.7949  16.1696  28.8796 H              1 RES1               0.0000
     22 H22         13.4796  19.0167  29.3690 H              1 RES1               0.0000
     23 H23         17.4540  19.1406  30.1981 H              1 RES1               0.0000
     24 H24         17.0241  21.0820  25.4250 H              1 RES1               0.0000
     25 H25         15.9585  21.0599  26.8281 H              1 RES1               0.0000
     26 H26         17.6399  20.5583  26.9908 H              1 RES1               0.0000
     27 H27         15.0086  14.5330  24.5886 H              1 RES1               0.0000
     28 H28         16.7055  13.7628  28.4237 H              1 RES1               0.0000
     29 H29         15.8151  12.9322  26.2809 H              1 RES1               0.0000
@<TRIPOS>BOND
    1    1    2 1     
    2    1    3 1     
    3    1    4 1     
    4    1    5 1     
    5    2    6 ar    
    6    2    7 ar    
    7    3    8 1     
    8    3    9 2     
    9    4   10 1     
   10    4   11 2     
   11    5   12 1     
   12    5   18 1     
   13    5   19 1     
   14    6   13 ar    
   15    6   20 1     
   16    7   14 ar    
   17    7   21 1     
   18    8   15 1     
   19    8   22 1     
   20   10   15 1     
   21   10   23 1     
   22   12   24 1     
   23   12   25 1     
   24   12   26 1     
   25   13   16 ar    
   26   13   27 1     
   27   14   16 ar    
   28   14   28 1     
   29   15   17 2     
   30   16   29 1     
@<TRIPOS>SUBSTRUCTURE
      1 RES1           1
@<TRIPOS>SET
DONOR_HYDROGENS      STATIC     ATOMS    <user>   **** ""
2 22 23
ATOM$RED        STATIC     ATOMS    COLORGROUP SYSTEM
2 22 23
@<TRIPOS>COMMENT
> <Gold.Version>
2022.3.0

> <Gold.Id.Protein>
unknown|3nnw_clean|pdb

> <Gold.Protein.RotatedTorsions>
[ 1705 1700 1698 1695 ] final  130.18 input   59.99 | X-H torsion
[  530  527  526  524 ] final  -64.54 input   59.98 | X-H torsion
[ 1060 1053 1051 1048 ] final  -92.60 input   60.02 | X-H torsion
[ 5171 5162 5161 5159 ] final  -53.83 input   60.02 | X-H torsion

> <Gold.Protein.ActiveResidues>
 TRP18   VAL30   TYR35   SER37   VAL38   CYS39   ALA40   VAL50   ALA51   VAL52  
 LYS53   LYS54   LEU55   ILE63   HIS64   LYS66   ARG67   THR68   TYR69   ARG70  
 GLU71   LEU72   ARG73   LEU74   LEU75   LYS76   HIS77   MET78   ASN82   VAL83  
 ILE84   GLY85   LEU86   LEU87   ASP88   VAL89   VAL102  TYR103  LEU104  VAL105 
 THR106  HIS107  LEU108  MET109  LEU138  TYR140  ILE141  HIS142  ALA144  ILE146 
 ILE147  HIS148  ARG149  ASP150  LEU151  SER154  ASN155  LEU156  ALA157  LYS165 
 ILE166  LEU167  ASP168  PHE169  GLY170  LEU171  ALA172  HIS174  ASP205  TYR323 
 PHE327  GLU328 

> <Gold.Protein.RotatedAtoms>
   16.9063   27.1287   32.0015 H   0  0  0  0  0  0  0  0  0  0  0  0  # atno 530  bound_to 527 
    9.3596   19.9277   34.1959 H   0  0  0  0  0  0  0  0  0  0  0  0  # atno 1060 bound_to 1053
   17.5661    7.1406   29.1755 H   0  0  0  0  0  0  0  0  0  0  0  0  # atno 1705 bound_to 1700
    6.5627   18.5678   21.4499 H   0  0  0  0  0  0  0  0  0  0  0  0  # atno 5171 bound_to 5162
   16.9947    6.3858   30.4987 LP  0  0  0  0  0  0  0  0  0  0  0  0  # atno 5667 bound_to 1700
   16.7629    7.9908   30.3065 LP  0  0  0  0  0  0  0  0  0  0  0  0  # atno 5668 bound_to 1700
   15.2882   27.0384   32.1483 LP  0  0  0  0  0  0  0  0  0  0  0  0  # atno 5712 bound_to 527 
   16.0298   26.3942   30.8438 LP  0  0  0  0  0  0  0  0  0  0  0  0  # atno 5713 bound_to 527 

> <Gold.Score>
     Fitness  S(hb_ext) S(vdw_ext)  S(hb_int)    S(int)      intcor
     39.59       2.18      27.90       0.00      -0.95      -0.76

> <Gold.Goldscore.Fitness>
39.5896

> <Gold.Goldscore.Internal.Vdw>
-1.0184

> <Gold.Goldscore.Internal.Torsion>
-0.6872

> <Gold.Goldscore.External.Vdw>
27.8980

> <Gold.Goldscore.Internal.HBond>
0.0000

> <Gold.Goldscore.External.HBond>
2.1769

> <Gold.Goldscore.Internal.Correction>
-0.7585

> <Gold.Goldscore.Hbonds>
donor molecule, donor type, donor heavy atom, donor atom, acceptor molecule, acceptor atom, score
      P1  H  1030  1046       L1    17  0.03
      L1  H    10    23       P1  2744  1.00

> <Gold.Goldscore.Internal.Vdw.Weighted>
-1.0184

> <Gold.Goldscore.Internal.Torsion.Weighted>
-0.6872

> <Gold.Goldscore.External.Vdw.Weighted>
38.3597

> <Gold.Goldscore.Internal.HBond.Weighted>
0.0000

> <Gold.Goldscore.External.HBond.Weighted>
2.1769

> <Gold.Goldscore.Internal.Correction.Weighted>
-0.7585

> <Gold.Rescore>
     Score     S(PLP)   S(hbond)     S(cho)   S(metal)  DE(clash)   DE(tors)     intcor
     27.60     -23.99       1.77       0.00       0.00       0.19       0.75       ----

> <Gold.PLP.Fitness>
27.6015

> <Gold.PLP.PLP>
-23.9897

> <Gold.PLP.part.hbond>
-2.7025

> <Gold.PLP.part.metal>
0.0000

> <Gold.PLP.part.buried>
2.1973

> <Gold.PLP.part.nonpolar>
-30.0918

> <Gold.PLP.part.repulsive>
6.0601

> <Gold.PLP.ligand.clash>
0.1923

> <Gold.PLP.ligand.torsion>
0.7500

> <Gold.PLP.Chemscore.Hbond>
1.7680

> <Gold.PLP.Chemscore.CHOScore>
0.0000

> <Gold.PLP.Chemscore.Metal>
0.0000

> <Gold.Chemscore.Hbonds>
donor molecule, donor type, donor heavy atom, donor atom, acceptor molecule, acceptor atom, score
      L1  H    10    23       P1  2744  0.78
      P1  H  1030  1046       L1    17  0.83
      P1  H  2741  2745       L1    11  0.22

> <Gold.PLP.Chemscore.Internal.Correction>
   9.000000E+99

