#       Name:                CT1002167954
#       Creating user name   hitesit
#       Creation time:       Sun Apr 16 02:21:28 2023


#       File generated by GOLD software.
#

@<TRIPOS>MOLECULE
CT1002167954|ligand_prepared|mol2|1|dock7
    29    30     1
SMALL
NO_CHARGES


@<TRIPOS>ATOM
      1 C1          14.9987  19.1496  26.1244 C.3            1 RES1               0.0000
      2 C2          15.3977  18.9667  24.6458 C.ar           1 RES1               0.0000
      3 C3          15.2581  20.6153  26.4600 C.2            1 RES1               0.0000
      4 C4          13.5341  18.7381  26.2250 C.2            1 RES1               0.0000
      5 C5          15.8104  18.2703  27.1039 C.3            1 RES1               0.0000
      6 C6          15.1806  19.9848  23.7221 C.ar           1 RES1               0.0000
      7 C7          15.9852  17.7888  24.1919 C.ar           1 RES1               0.0000
      8 N8          14.1758  21.4349  26.5899 N.am           1 RES1               0.0000
      9 O9          16.3964  21.0539  26.5700 O.2            1 RES1               0.0000
     10 N10         12.6162  19.7042  26.5442 N.am           1 RES1               0.0000
     11 O11         13.1646  17.5894  26.0145 O.2            1 RES1               0.0000
     12 C12         15.5624  18.5947  28.5686 C.3            1 RES1               0.0000
     13 C13         15.5405  19.8321  22.3934 C.ar           1 RES1               0.0000
     14 C14         16.3441  17.6381  22.8626 C.ar           1 RES1               0.0000
     15 C15         12.8668  21.0402  26.7010 C.2            1 RES1               0.0000
     16 C16         16.1228  18.6590  21.9629 C.ar           1 RES1               0.0000
     17 O17         11.9796  21.8562  26.9336 O.2            1 RES1               0.0000
     18 H18         15.5562  17.2179  26.9274 H              1 RES1               0.0000
     19 H19         16.8789  18.3976  26.8902 H              1 RES1               0.0000
     20 H20         14.7213  20.9142  24.0420 H              1 RES1               0.0000
     21 H21         16.1678  16.9719  24.8817 H              1 RES1               0.0000
     22 H22         14.3564  22.4336  26.6057 H              1 RES1               0.0000
     23 H23         11.6572  19.3991  26.6773 H              1 RES1               0.0000
     24 H24         16.1561  17.9493  29.2126 H              1 RES1               0.0000
     25 H25         15.8285  19.6272  28.7855 H              1 RES1               0.0000
     26 H26         14.5137  18.4545  28.8225 H              1 RES1               0.0000
     27 H27         15.3629  20.6380  21.6890 H              1 RES1               0.0000
     28 H28         16.8015  16.7129  22.5281 H              1 RES1               0.0000
     29 H29         16.4050  18.5397  20.9220 H              1 RES1               0.0000
@<TRIPOS>BOND
    1    1    2 1     
    2    1    3 1     
    3    1    4 1     
    4    1    5 1     
    5    2    6 ar    
    6    2    7 ar    
    7    3    8 1     
    8    3    9 2     
    9    4   10 1     
   10    4   11 2     
   11    5   12 1     
   12    5   18 1     
   13    5   19 1     
   14    6   13 ar    
   15    6   20 1     
   16    7   14 ar    
   17    7   21 1     
   18    8   15 1     
   19    8   22 1     
   20   10   15 1     
   21   10   23 1     
   22   12   24 1     
   23   12   25 1     
   24   12   26 1     
   25   13   16 ar    
   26   13   27 1     
   27   14   16 ar    
   28   14   28 1     
   29   15   17 2     
   30   16   29 1     
@<TRIPOS>SUBSTRUCTURE
      1 RES1           1
@<TRIPOS>SET
DONOR_HYDROGENS      STATIC     ATOMS    <user>   **** ""
2 22 23
ATOM$RED        STATIC     ATOMS    COLORGROUP SYSTEM
2 22 23
@<TRIPOS>COMMENT
> <Gold.Version>
2022.3.0

> <Gold.Id.Protein>
unknown|3nnw_clean|pdb

> <Gold.Protein.RotatedTorsions>
[ 1705 1700 1698 1695 ] final   76.11 input   59.99 | X-H torsion
[  530  527  526  524 ] final  117.32 input   59.98 | X-H torsion
[ 1060 1053 1051 1048 ] final   30.07 input   60.02 | X-H torsion
[ 5171 5162 5161 5159 ] final -116.52 input   60.02 | X-H torsion

> <Gold.Protein.ActiveResidues>
 TRP18   VAL30   TYR35   SER37   VAL38   CYS39   ALA40   VAL50   ALA51   VAL52  
 LYS53   LYS54   LEU55   ILE63   HIS64   LYS66   ARG67   THR68   TYR69   ARG70  
 GLU71   LEU72   ARG73   LEU74   LEU75   LYS76   HIS77   MET78   ASN82   VAL83  
 ILE84   GLY85   LEU86   LEU87   ASP88   VAL89   VAL102  TYR103  LEU104  VAL105 
 THR106  HIS107  LEU108  MET109  LEU138  TYR140  ILE141  HIS142  ALA144  ILE146 
 ILE147  HIS148  ARG149  ASP150  LEU151  SER154  ASN155  LEU156  ALA157  LYS165 
 ILE166  LEU167  ASP168  PHE169  GLY170  LEU171  ALA172  HIS174  ASP205  TYR323 
 PHE327  GLU328 

> <Gold.Protein.RotatedAtoms>
   15.2340   26.5889   31.3555 H   0  0  0  0  0  0  0  0  0  0  0  0  # atno 530  bound_to 527 
    9.5134   21.2655   33.2557 H   0  0  0  0  0  0  0  0  0  0  0  0  # atno 1060 bound_to 1053
   17.4842    6.4088   29.6015 H   0  0  0  0  0  0  0  0  0  0  0  0  # atno 1705 bound_to 1700
    7.0279   19.2693   20.9608 H   0  0  0  0  0  0  0  0  0  0  0  0  # atno 5171 bound_to 5162
   16.6642    7.1082   30.8203 LP  0  0  0  0  0  0  0  0  0  0  0  0  # atno 5667 bound_to 1700
   17.1759    8.0056   29.5556 LP  0  0  0  0  0  0  0  0  0  0  0  0  # atno 5668 bound_to 1700
   16.8480   26.6583   31.1599 LP  0  0  0  0  0  0  0  0  0  0  0  0  # atno 5712 bound_to 527 
   16.1539   27.3178   32.4827 LP  0  0  0  0  0  0  0  0  0  0  0  0  # atno 5713 bound_to 527 

> <Gold.Score>
     Fitness  S(hb_ext) S(vdw_ext)  S(hb_int)    S(int)      intcor
     38.61       5.71      24.25       0.00      -0.45      -0.76

> <Gold.Goldscore.Fitness>
38.6056

> <Gold.Goldscore.Internal.Vdw>
-0.7260

> <Gold.Goldscore.Internal.Torsion>
-0.4828

> <Gold.Goldscore.External.Vdw>
24.2512

> <Gold.Goldscore.Internal.HBond>
0.0000

> <Gold.Goldscore.External.HBond>
5.7105

> <Gold.Goldscore.Internal.Correction>
-0.7585

> <Gold.Goldscore.Hbonds>
donor molecule, donor type, donor heavy atom, donor atom, acceptor molecule, acceptor atom, score
      P1  H  1091  1103       L1    17  0.95

> <Gold.Goldscore.Internal.Vdw.Weighted>
-0.7260

> <Gold.Goldscore.Internal.Torsion.Weighted>
-0.4828

> <Gold.Goldscore.External.Vdw.Weighted>
33.3454

> <Gold.Goldscore.Internal.HBond.Weighted>
0.0000

> <Gold.Goldscore.External.HBond.Weighted>
5.7105

> <Gold.Goldscore.Internal.Correction.Weighted>
-0.7585

> <Gold.Rescore>
     Score     S(PLP)   S(hbond)     S(cho)   S(metal)  DE(clash)   DE(tors)     intcor
     32.18     -31.34       0.99       0.00       0.00       0.00       1.07       ----

> <Gold.PLP.Fitness>
32.1777

> <Gold.PLP.PLP>
-31.3430

> <Gold.PLP.part.hbond>
-1.5575

> <Gold.PLP.part.metal>
0.0000

> <Gold.PLP.part.buried>
-4.1369

> <Gold.PLP.part.nonpolar>
-26.0527

> <Gold.PLP.part.repulsive>
0.5203

> <Gold.PLP.ligand.clash>
0.0000

> <Gold.PLP.ligand.torsion>
1.0695

> <Gold.PLP.Chemscore.Hbond>
0.9913

> <Gold.PLP.Chemscore.CHOScore>
0.0000

> <Gold.PLP.Chemscore.Metal>
0.0000

> <Gold.Chemscore.Hbonds>
donor molecule, donor type, donor heavy atom, donor atom, acceptor molecule, acceptor atom, score
      P1  H  1091  1103       L1    17  1.00

> <Gold.PLP.Chemscore.Internal.Correction>
   9.000000E+99

