#       Name:                CT1002167954
#       Creating user name   hitesit
#       Creation time:       Sun Apr 16 02:21:26 2023


#       File generated by GOLD software.
#

@<TRIPOS>MOLECULE
CT1002167954|ligand_prepared|mol2|1|dock6
    29    30     1
SMALL
NO_CHARGES


@<TRIPOS>ATOM
      1 C1          15.0260  18.9426  26.1366 C.3            1 RES1               0.0000
      2 C2          15.4960  18.7068  24.6867 C.ar           1 RES1               0.0000
      3 C3          15.5623  20.3119  26.5435 C.2            1 RES1               0.0000
      4 C4          13.5041  18.8529  26.1116 C.2            1 RES1               0.0000
      5 C5          15.5501  17.8911  27.1422 C.3            1 RES1               0.0000
      6 C6          15.4175  17.4412  24.1133 C.ar           1 RES1               0.0000
      7 C7          16.0070  19.7437  23.9106 C.ar           1 RES1               0.0000
      8 N8          14.6717  21.3418  26.6209 N.am           1 RES1               0.0000
      9 O9          16.7550  20.4940  26.7548 O.2            1 RES1               0.0000
     10 N10         12.7893  19.9871  26.3953 N.am           1 RES1               0.0000
     11 O11         12.9176  17.8144  25.8325 O.2            1 RES1               0.0000
     12 C12         15.2310  18.2174  28.5926 C.3            1 RES1               0.0000
     13 C13         15.8321  17.2206  22.8103 C.ar           1 RES1               0.0000
     14 C14         16.4212  19.5209  22.6078 C.ar           1 RES1               0.0000
     15 C15         13.3042  21.2350  26.6187 C.2            1 RES1               0.0000
     16 C16         16.3337  18.2603  22.0566 C.ar           1 RES1               0.0000
     17 O17         12.5945  22.2177  26.8132 O.2            1 RES1               0.0000
     18 H18         15.1114  16.9165  26.8947 H              1 RES1               0.0000
     19 H19         16.6381  17.8072  27.0303 H              1 RES1               0.0000
     20 H20         15.0278  16.6103  24.6919 H              1 RES1               0.0000
     21 H21         16.0862  20.7435  24.3238 H              1 RES1               0.0000
     22 H22         15.0583  22.2781  26.6864 H              1 RES1               0.0000
     23 H23         11.7799  19.8922  26.4446 H              1 RES1               0.0000
     24 H24         15.6209  17.4481  29.2558 H              1 RES1               0.0000
     25 H25         15.6734  19.1689  28.8803 H              1 RES1               0.0000
     26 H26         14.1558  18.2836  28.7455 H              1 RES1               0.0000
     27 H27         15.7624  16.2263  22.3816 H              1 RES1               0.0000
     28 H28         16.8160  20.3420  22.0185 H              1 RES1               0.0000
     29 H29         16.6580  18.0873  21.0357 H              1 RES1               0.0000
@<TRIPOS>BOND
    1    1    2 1     
    2    1    3 1     
    3    1    4 1     
    4    1    5 1     
    5    2    6 ar    
    6    2    7 ar    
    7    3    8 1     
    8    3    9 2     
    9    4   10 1     
   10    4   11 2     
   11    5   12 1     
   12    5   18 1     
   13    5   19 1     
   14    6   13 ar    
   15    6   20 1     
   16    7   14 ar    
   17    7   21 1     
   18    8   15 1     
   19    8   22 1     
   20   10   15 1     
   21   10   23 1     
   22   12   24 1     
   23   12   25 1     
   24   12   26 1     
   25   13   16 ar    
   26   13   27 1     
   27   14   16 ar    
   28   14   28 1     
   29   15   17 2     
   30   16   29 1     
@<TRIPOS>SUBSTRUCTURE
      1 RES1           1
@<TRIPOS>SET
DONOR_HYDROGENS      STATIC     ATOMS    <user>   **** ""
2 22 23
ATOM$RED        STATIC     ATOMS    COLORGROUP SYSTEM
2 22 23
@<TRIPOS>COMMENT
> <Gold.Version>
2022.3.0

> <Gold.Id.Protein>
unknown|3nnw_clean|pdb

> <Gold.Protein.RotatedTorsions>
[ 1705 1700 1698 1695 ] final  -88.78 input   59.99 | X-H torsion
[  530  527  526  524 ] final  -86.64 input   59.98 | X-H torsion
[ 1060 1053 1051 1048 ] final -116.86 input   60.02 | X-H torsion
[ 5171 5162 5161 5159 ] final  123.27 input   60.02 | X-H torsion

> <Gold.Protein.ActiveResidues>
 TRP18   VAL30   TYR35   SER37   VAL38   CYS39   ALA40   VAL50   ALA51   VAL52  
 LYS53   LYS54   LEU55   ILE63   HIS64   LYS66   ARG67   THR68   TYR69   ARG70  
 GLU71   LEU72   ARG73   LEU74   LEU75   LYS76   HIS77   MET78   ASN82   VAL83  
 ILE84   GLY85   LEU86   LEU87   ASP88   VAL89   VAL102  TYR103  LEU104  VAL105 
 THR106  HIS107  LEU108  MET109  LEU138  TYR140  ILE141  HIS142  ALA144  ILE146 
 ILE147  HIS148  ARG149  ASP150  LEU151  SER154  ASN155  LEU156  ALA157  LYS165 
 ILE166  LEU167  ASP168  PHE169  GLY170  LEU171  ALA172  HIS174  ASP205  TYR323 
 PHE327  GLU328 

> <Gold.Protein.RotatedAtoms>
   16.6854   27.2474   32.2582 H   0  0  0  0  0  0  0  0  0  0  0  0  # atno 530  bound_to 527 
    9.0755   20.0060   34.4563 H   0  0  0  0  0  0  0  0  0  0  0  0  # atno 1060 bound_to 1053
   16.6677    7.7747   30.5555 H   0  0  0  0  0  0  0  0  0  0  0  0  # atno 1705 bound_to 1700
    8.3876   18.3916   21.0769 H   0  0  0  0  0  0  0  0  0  0  0  0  # atno 5171 bound_to 5162
   17.4927    7.4756   29.1855 LP  0  0  0  0  0  0  0  0  0  0  0  0  # atno 5667 bound_to 1700
   17.1700    6.2620   30.2293 LP  0  0  0  0  0  0  0  0  0  0  0  0  # atno 5668 bound_to 1700
   15.1545   26.8644   31.8611 LP  0  0  0  0  0  0  0  0  0  0  0  0  # atno 5712 bound_to 527 
   16.3859   26.4486   30.8725 LP  0  0  0  0  0  0  0  0  0  0  0  0  # atno 5713 bound_to 527 

> <Gold.Score>
     Fitness  S(hb_ext) S(vdw_ext)  S(hb_int)    S(int)      intcor
     37.55       6.00      23.92       0.00      -1.33      -0.76

> <Gold.Goldscore.Fitness>
37.5543

> <Gold.Goldscore.Internal.Vdw>
-1.6355

> <Gold.Goldscore.Internal.Torsion>
-0.4526

> <Gold.Goldscore.External.Vdw>
23.9167

> <Gold.Goldscore.Internal.HBond>
0.0000

> <Gold.Goldscore.External.HBond>
5.9983

> <Gold.Goldscore.Internal.Correction>
-0.7585

> <Gold.Goldscore.Hbonds>
donor molecule, donor type, donor heavy atom, donor atom, acceptor molecule, acceptor atom, score
      P1  H  1091  1103       L1    17  1.00

> <Gold.Goldscore.Internal.Vdw.Weighted>
-1.6355

> <Gold.Goldscore.Internal.Torsion.Weighted>
-0.4526

> <Gold.Goldscore.External.Vdw.Weighted>
32.8855

> <Gold.Goldscore.Internal.HBond.Weighted>
0.0000

> <Gold.Goldscore.External.HBond.Weighted>
5.9983

> <Gold.Goldscore.Internal.Correction.Weighted>
-0.7585

> <Gold.Rescore>
     Score     S(PLP)   S(hbond)     S(cho)   S(metal)  DE(clash)   DE(tors)     intcor
     26.31     -28.10       0.00       0.00       0.00       0.72       0.54       ----

> <Gold.PLP.Fitness>
26.3055

> <Gold.PLP.PLP>
-28.0999

> <Gold.PLP.part.hbond>
-0.9472

> <Gold.PLP.part.metal>
0.0000

> <Gold.PLP.part.buried>
-4.2411

> <Gold.PLP.part.nonpolar>
-24.1096

> <Gold.PLP.part.repulsive>
0.6190

> <Gold.PLP.ligand.clash>
0.7167

> <Gold.PLP.ligand.torsion>
0.5388

> <Gold.PLP.Chemscore.Hbond>
0.0000

> <Gold.PLP.Chemscore.CHOScore>
0.0000

> <Gold.PLP.Chemscore.Metal>
0.0000

> <Gold.Chemscore.Hbonds>
donor molecule, donor type, donor heavy atom, donor atom, acceptor molecule, acceptor atom, score
      P1  H  1091  1103       L1    17  1.00

> <Gold.PLP.Chemscore.Internal.Correction>
   9.000000E+99

