#       Name:                CT1002167954
#       Creating user name   hitesit
#       Creation time:       Sun Apr 16 02:21:30 2023


#       File generated by GOLD software.
#

@<TRIPOS>MOLECULE
CT1002167954|ligand_prepared|mol2|1|dock9
    29    30     1
SMALL
NO_CHARGES


@<TRIPOS>ATOM
      1 C1          15.5218  18.6701  26.8545 C.3            1 RES1               0.0000
      2 C2          15.5948  17.1635  26.5326 C.ar           1 RES1               0.0000
      3 C3          16.2044  18.8528  28.2068 C.2            1 RES1               0.0000
      4 C4          16.2194  19.3865  25.7035 C.2            1 RES1               0.0000
      5 C5          14.0792  19.2185  26.9543 C.3            1 RES1               0.0000
      6 C6          16.2227  16.2817  27.4071 C.ar           1 RES1               0.0000
      7 C7          15.0375  16.6412  25.3684 C.ar           1 RES1               0.0000
      8 N8          17.4427  19.4242  28.2174 N.am           1 RES1               0.0000
      9 O9          15.6811  18.4655  29.2443 O.2            1 RES1               0.0000
     10 N10         17.3823  20.0582  25.9760 N.am           1 RES1               0.0000
     11 O11         15.7815  19.3615  24.5599 O.2            1 RES1               0.0000
     12 C12         14.0065  20.7311  27.0915 C.3            1 RES1               0.0000
     13 C13         16.2886  14.9263  27.1294 C.ar           1 RES1               0.0000
     14 C14         15.1047  15.2855  25.0926 C.ar           1 RES1               0.0000
     15 C15         18.0418  20.0838  27.1746 C.2            1 RES1               0.0000
     16 C16         15.7294  14.4273  25.9724 C.ar           1 RES1               0.0000
     17 O17         19.1121  20.6653  27.3278 O.2            1 RES1               0.0000
     18 H18         13.5244  18.9182  26.0569 H              1 RES1               0.0000
     19 H19         13.5869  18.7613  27.8215 H              1 RES1               0.0000
     20 H20         16.6707  16.6564  28.3214 H              1 RES1               0.0000
     21 H21         14.5421  17.2977  24.6613 H              1 RES1               0.0000
     22 H22         17.9723  19.3544  29.0806 H              1 RES1               0.0000
     23 H23         17.7944  20.5884  25.2148 H              1 RES1               0.0000
     24 H24         12.9725  21.0631  27.1576 H              1 RES1               0.0000
     25 H25         14.5268  21.0626  27.9876 H              1 RES1               0.0000
     26 H26         14.4647  21.2186  26.2335 H              1 RES1               0.0000
     27 H27         16.7825  14.2553  27.8245 H              1 RES1               0.0000
     28 H28         14.6638  14.8972  24.1804 H              1 RES1               0.0000
     29 H29         15.7808  13.3655  25.7553 H              1 RES1               0.0000
@<TRIPOS>BOND
    1    1    2 1     
    2    1    3 1     
    3    1    4 1     
    4    1    5 1     
    5    2    6 ar    
    6    2    7 ar    
    7    3    8 1     
    8    3    9 2     
    9    4   10 1     
   10    4   11 2     
   11    5   12 1     
   12    5   18 1     
   13    5   19 1     
   14    6   13 ar    
   15    6   20 1     
   16    7   14 ar    
   17    7   21 1     
   18    8   15 1     
   19    8   22 1     
   20   10   15 1     
   21   10   23 1     
   22   12   24 1     
   23   12   25 1     
   24   12   26 1     
   25   13   16 ar    
   26   13   27 1     
   27   14   16 ar    
   28   14   28 1     
   29   15   17 2     
   30   16   29 1     
@<TRIPOS>SUBSTRUCTURE
      1 RES1           1
@<TRIPOS>SET
DONOR_HYDROGENS      STATIC     ATOMS    <user>   **** ""
2 22 23
ATOM$RED        STATIC     ATOMS    COLORGROUP SYSTEM
2 22 23
@<TRIPOS>COMMENT
> <Gold.Version>
2022.3.0

> <Gold.Id.Protein>
unknown|3nnw_clean|pdb

> <Gold.Protein.RotatedTorsions>
[ 1705 1700 1698 1695 ] final -127.20 input   59.99 | X-H torsion
[  530  527  526  524 ] final  -91.47 input   59.98 | X-H torsion
[ 1060 1053 1051 1048 ] final  -59.77 input   60.02 | X-H torsion
[ 5171 5162 5161 5159 ] final   50.49 input   60.02 | X-H torsion

> <Gold.Protein.ActiveResidues>
 TRP18   VAL30   TYR35   SER37   VAL38   CYS39   ALA40   VAL50   ALA51   VAL52  
 LYS53   LYS54   LEU55   ILE63   HIS64   LYS66   ARG67   THR68   TYR69   ARG70  
 GLU71   LEU72   ARG73   LEU74   LEU75   LYS76   HIS77   MET78   ASN82   VAL83  
 ILE84   GLY85   LEU86   LEU87   ASP88   VAL89   VAL102  TYR103  LEU104  VAL105 
 THR106  HIS107  LEU108  MET109  LEU138  TYR140  ILE141  HIS142  ALA144  ILE146 
 ILE147  HIS148  ARG149  ASP150  LEU151  SER154  ASN155  LEU156  ALA157  LYS165 
 ILE166  LEU167  ASP168  PHE169  GLY170  LEU171  ALA172  HIS174  ASP205  TYR323 
 PHE327  GLU328 

> <Gold.Protein.RotatedAtoms>
   16.6238   27.2661   32.3039 H   0  0  0  0  0  0  0  0  0  0  0  0  # atno 530  bound_to 527 
    9.6658   20.0650   33.7869 H   0  0  0  0  0  0  0  0  0  0  0  0  # atno 1060 bound_to 1053
   16.8779    8.0764   30.0615 H   0  0  0  0  0  0  0  0  0  0  0  0  # atno 1705 bound_to 1700
    7.7316   17.6794   21.6204 H   0  0  0  0  0  0  0  0  0  0  0  0  # atno 5171 bound_to 5162
   17.5904    6.8655   29.2411 LP  0  0  0  0  0  0  0  0  0  0  0  0  # atno 5667 bound_to 1700
   16.8606    6.5682   30.6714 LP  0  0  0  0  0  0  0  0  0  0  0  0  # atno 5668 bound_to 1700
   15.1430   26.8253   31.7929 LP  0  0  0  0  0  0  0  0  0  0  0  0  # atno 5712 bound_to 527 
   16.4594   26.4690   30.8947 LP  0  0  0  0  0  0  0  0  0  0  0  0  # atno 5713 bound_to 527 

> <Gold.Score>
     Fitness  S(hb_ext) S(vdw_ext)  S(hb_int)    S(int)      intcor
     35.64       2.15      27.34       0.00      -4.11      -0.76

> <Gold.Goldscore.Fitness>
35.6408

> <Gold.Goldscore.Internal.Vdw>
-4.4134

> <Gold.Goldscore.Internal.Torsion>
-0.4539

> <Gold.Goldscore.External.Vdw>
27.3437

> <Gold.Goldscore.Internal.HBond>
0.0000

> <Gold.Goldscore.External.HBond>
2.1522

> <Gold.Goldscore.Internal.Correction>
-0.7585

> <Gold.Goldscore.Hbonds>
donor molecule, donor type, donor heavy atom, donor atom, acceptor molecule, acceptor atom, score
      P1  H  1032  1040       L1    17  0.03
      L1  H     8    22       P1  2744  1.00

> <Gold.Goldscore.Internal.Vdw.Weighted>
-4.4134

> <Gold.Goldscore.Internal.Torsion.Weighted>
-0.4539

> <Gold.Goldscore.External.Vdw.Weighted>
37.5975

> <Gold.Goldscore.Internal.HBond.Weighted>
0.0000

> <Gold.Goldscore.External.HBond.Weighted>
2.1522

> <Gold.Goldscore.Internal.Correction.Weighted>
-0.7585

> <Gold.Rescore>
     Score     S(PLP)   S(hbond)     S(cho)   S(metal)  DE(clash)   DE(tors)     intcor
     29.02     -30.15       0.44       0.00       0.00       2.05       0.20       ----

> <Gold.PLP.Fitness>
29.0188

> <Gold.PLP.PLP>
-30.1479

> <Gold.PLP.part.hbond>
-2.8058

> <Gold.PLP.part.metal>
0.0000

> <Gold.PLP.part.buried>
-0.5245

> <Gold.PLP.part.nonpolar>
-30.4628

> <Gold.PLP.part.repulsive>
3.6770

> <Gold.PLP.ligand.clash>
2.0480

> <Gold.PLP.ligand.torsion>
0.1986

> <Gold.PLP.Chemscore.Hbond>
0.4388

> <Gold.PLP.Chemscore.CHOScore>
0.0000

> <Gold.PLP.Chemscore.Metal>
0.0000

> <Gold.Chemscore.Hbonds>
donor molecule, donor type, donor heavy atom, donor atom, acceptor molecule, acceptor atom, score
      L1  H     8    22       P1  2744  1.00

> <Gold.PLP.Chemscore.Internal.Correction>
   9.000000E+99

