#       Name:                CT1002167954
#       Creating user name   hitesit
#       Creation time:       Sun Apr 16 02:21:21 2023


#       File generated by GOLD software.
#

@<TRIPOS>MOLECULE
CT1002167954|ligand_prepared|mol2|1|dock1
    29    30     1
SMALL
NO_CHARGES


@<TRIPOS>ATOM
      1 C1          15.3479  18.9225  26.8753 C.3            1 RES1               0.0000
      2 C2          15.0154  17.5151  26.3392 C.ar           1 RES1               0.0000
      3 C3          14.0631  19.4572  27.5011 C.2            1 RES1               0.0000
      4 C4          16.4937  18.7423  27.8649 C.2            1 RES1               0.0000
      5 C5          15.8117  19.9138  25.7827 C.3            1 RES1               0.0000
      6 C6          14.4138  17.3548  25.0946 C.ar           1 RES1               0.0000
      7 C7          15.3061  16.3696  27.0753 C.ar           1 RES1               0.0000
      8 N8          13.9953  19.5045  28.8623 N.am           1 RES1               0.0000
      9 O9          13.1090  19.7952  26.8114 O.2            1 RES1               0.0000
     10 N10         16.2512  19.0178  29.1852 N.am           1 RES1               0.0000
     11 O11         17.5997  18.3484  27.5158 O.2            1 RES1               0.0000
     12 C12         16.3853  21.2096  26.3341 C.3            1 RES1               0.0000
     13 C13         14.1163  16.0949  24.6023 C.ar           1 RES1               0.0000
     14 C14         15.0075  15.1105  26.5812 C.ar           1 RES1               0.0000
     15 C15         15.0454  19.3612  29.7333 C.2            1 RES1               0.0000
     16 C16         14.4133  14.9720  25.3449 C.ar           1 RES1               0.0000
     17 O17         14.8940  19.5399  30.9384 O.2            1 RES1               0.0000
     18 H18         16.5742  19.4254  25.1635 H              1 RES1               0.0000
     19 H19         14.9577  20.1524  25.1369 H              1 RES1               0.0000
     20 H20         14.1704  18.2270  24.4970 H              1 RES1               0.0000
     21 H21         15.7726  16.4545  28.0509 H              1 RES1               0.0000
     22 H22         13.0792  19.6607  29.2705 H              1 RES1               0.0000
     23 H23         17.0428  18.9618  29.8180 H              1 RES1               0.0000
     24 H24         16.6951  21.8690  25.5260 H              1 RES1               0.0000
     25 H25         15.6452  21.7344  26.9347 H              1 RES1               0.0000
     26 H26         17.2521  21.0117  26.9612 H              1 RES1               0.0000
     27 H27         13.6474  15.9913  23.6293 H              1 RES1               0.0000
     28 H28         15.2425  14.2296  27.1694 H              1 RES1               0.0000
     29 H29         14.1805  13.9851  24.9588 H              1 RES1               0.0000
@<TRIPOS>BOND
    1    1    2 1     
    2    1    3 1     
    3    1    4 1     
    4    1    5 1     
    5    2    6 ar    
    6    2    7 ar    
    7    3    8 1     
    8    3    9 2     
    9    4   10 1     
   10    4   11 2     
   11    5   12 1     
   12    5   18 1     
   13    5   19 1     
   14    6   13 ar    
   15    6   20 1     
   16    7   14 ar    
   17    7   21 1     
   18    8   15 1     
   19    8   22 1     
   20   10   15 1     
   21   10   23 1     
   22   12   24 1     
   23   12   25 1     
   24   12   26 1     
   25   13   16 ar    
   26   13   27 1     
   27   14   16 ar    
   28   14   28 1     
   29   15   17 2     
   30   16   29 1     
@<TRIPOS>SUBSTRUCTURE
      1 RES1           1
@<TRIPOS>SET
DONOR_HYDROGENS      STATIC     ATOMS    <user>   **** ""
2 22 23
ATOM$RED        STATIC     ATOMS    COLORGROUP SYSTEM
2 22 23
@<TRIPOS>COMMENT
> <Gold.Version>
2022.3.0

> <Gold.Id.Protein>
unknown|3nnw_clean|pdb

> <Gold.Protein.RotatedTorsions>
[ 1705 1700 1698 1695 ] final -103.11 input   59.99 | X-H torsion
[  530  527  526  524 ] final  154.31 input   59.98 | X-H torsion
[ 1060 1053 1051 1048 ] final   86.70 input   60.02 | X-H torsion
[ 5171 5162 5161 5159 ] final -116.28 input   60.02 | X-H torsion

> <Gold.Protein.ActiveResidues>
 TRP18   VAL30   TYR35   SER37   VAL38   CYS39   ALA40   VAL50   ALA51   VAL52  
 LYS53   LYS54   LEU55   ILE63   HIS64   LYS66   ARG67   THR68   TYR69   ARG70  
 GLU71   LEU72   ARG73   LEU74   LEU75   LYS76   HIS77   MET78   ASN82   VAL83  
 ILE84   GLY85   LEU86   LEU87   ASP88   VAL89   VAL102  TYR103  LEU104  VAL105 
 THR106  HIS107  LEU108  MET109  LEU138  TYR140  ILE141  HIS142  ALA144  ILE146 
 ILE147  HIS148  ARG149  ASP150  LEU151  SER154  ASN155  LEU156  ALA157  LYS165 
 ILE166  LEU167  ASP168  PHE169  GLY170  LEU171  ALA172  HIS174  ASP205  TYR323 
 PHE327  GLU328 

> <Gold.Protein.RotatedAtoms>
   15.1642   26.8695   31.8744 H   0  0  0  0  0  0  0  0  0  0  0  0  # atno 530  bound_to 527 
    8.8696   21.6690   33.7151 H   0  0  0  0  0  0  0  0  0  0  0  0  # atno 1060 bound_to 1053
   16.7272    7.9281   30.3899 H   0  0  0  0  0  0  0  0  0  0  0  0  # atno 1705 bound_to 1700
    7.0245   19.2680   20.9624 H   0  0  0  0  0  0  0  0  0  0  0  0  # atno 5171 bound_to 5162
   17.5527    7.2493   29.1632 LP  0  0  0  0  0  0  0  0  0  0  0  0  # atno 5667 bound_to 1700
   17.0501    6.3338   30.4185 LP  0  0  0  0  0  0  0  0  0  0  0  0  # atno 5668 bound_to 1700
   16.3710   26.4449   30.8687 LP  0  0  0  0  0  0  0  0  0  0  0  0  # atno 5712 bound_to 527 
   16.7011   27.2486   32.2514 LP  0  0  0  0  0  0  0  0  0  0  0  0  # atno 5713 bound_to 527 

> <Gold.Score>
     Fitness  S(hb_ext) S(vdw_ext)  S(hb_int)    S(int)      intcor
     39.70       2.31      27.77       0.00      -0.80      -0.79

> <Gold.Goldscore.Fitness>
39.7046

> <Gold.Goldscore.Internal.Vdw>
-1.0404

> <Gold.Goldscore.Internal.Torsion>
-0.5470

> <Gold.Goldscore.External.Vdw>
27.7730

> <Gold.Goldscore.Internal.HBond>
0.0000

> <Gold.Goldscore.External.HBond>
2.3132

> <Gold.Goldscore.Internal.Correction>
-0.7909

> <Gold.Goldscore.Hbonds>
donor molecule, donor type, donor heavy atom, donor atom, acceptor molecule, acceptor atom, score
      P1  H  1030  1046       L1    17  0.05
      L1  H     8    22       P1  1026  0.01
      L1  H    10    23       P1  2744  1.00

> <Gold.Goldscore.Internal.Vdw.Weighted>
-1.0404

> <Gold.Goldscore.Internal.Torsion.Weighted>
-0.5470

> <Gold.Goldscore.External.Vdw.Weighted>
38.1879

> <Gold.Goldscore.Internal.HBond.Weighted>
0.0000

> <Gold.Goldscore.External.HBond.Weighted>
2.3132

> <Gold.Goldscore.Internal.Correction.Weighted>
-0.7909

> <Gold.Rescore>
     Score     S(PLP)   S(hbond)     S(cho)   S(metal)  DE(clash)   DE(tors)     intcor
     33.50     -30.07       1.76       0.00       0.00       0.99       0.43       ----

> <Gold.PLP.Fitness>
33.4982

> <Gold.PLP.PLP>
-30.0701

> <Gold.PLP.part.hbond>
-2.0810

> <Gold.PLP.part.metal>
0.0000

> <Gold.PLP.part.buried>
-1.0414

> <Gold.PLP.part.nonpolar>
-31.7370

> <Gold.PLP.part.repulsive>
4.4695

> <Gold.PLP.ligand.clash>
0.9862

> <Gold.PLP.ligand.torsion>
0.4306

> <Gold.PLP.Chemscore.Hbond>
1.7585

> <Gold.PLP.Chemscore.CHOScore>
0.0000

> <Gold.PLP.Chemscore.Metal>
0.0000

> <Gold.Chemscore.Hbonds>
donor molecule, donor type, donor heavy atom, donor atom, acceptor molecule, acceptor atom, score
      L1  H    10    23       P1  2744  1.00
      P1  H  1030  1046       L1    17  0.81

> <Gold.PLP.Chemscore.Internal.Correction>
   9.000000E+99

