#       Name:                CT1002167954
#       Creating user name   hitesit
#       Creation time:       Sun Apr 16 02:21:32 2023


#       File generated by GOLD software.
#

@<TRIPOS>MOLECULE
CT1002167954|ligand_prepared|mol2|1|dock10
    29    30     1
SMALL
NO_CHARGES


@<TRIPOS>ATOM
      1 C1          15.1941  19.1602  25.5507 C.3            1 RES1               0.0000
      2 C2          15.5261  18.0949  24.4860 C.ar           1 RES1               0.0000
      3 C3          16.1604  18.9250  26.7080 C.2            1 RES1               0.0000
      4 C4          15.3597  20.5128  24.8670 C.2            1 RES1               0.0000
      5 C5          13.7483  19.0726  26.0926 C.3            1 RES1               0.0000
      6 C6          15.0600  16.7904  24.6194 C.ar           1 RES1               0.0000
      7 C7          16.2936  18.4017  23.3656 C.ar           1 RES1               0.0000
      8 N8          17.1841  19.8120  26.8665 N.am           1 RES1               0.0000
      9 O9          16.0490  17.9540  27.4462 O.2            1 RES1               0.0000
     10 N10         16.3618  21.3368  25.3081 N.am           1 RES1               0.0000
     11 O11         14.6422  20.8656  23.9391 O.2            1 RES1               0.0000
     12 C12         13.3336  20.2723  26.9298 C.3            1 RES1               0.0000
     13 C13         15.3483  15.8281  23.6659 C.ar           1 RES1               0.0000
     14 C14         16.5810  17.4378  22.4133 C.ar           1 RES1               0.0000
     15 C15         17.3010  21.0350  26.2563 C.2            1 RES1               0.0000
     16 C16         16.1085  16.1512  22.5621 C.ar           1 RES1               0.0000
     17 O17         18.2050  21.8078  26.5607 O.2            1 RES1               0.0000
     18 H18         13.0586  18.9783  25.2447 H              1 RES1               0.0000
     19 H19         13.6544  18.1664  26.7035 H              1 RES1               0.0000
     20 H20         14.4624  16.5169  25.4826 H              1 RES1               0.0000
     21 H21         16.6768  19.4071  23.2283 H              1 RES1               0.0000
     22 H22         17.9320  19.5408  27.4969 H              1 RES1               0.0000
     23 H23         16.4123  22.2609  24.8911 H              1 RES1               0.0000
     24 H24         12.3113  20.1600  27.2848 H              1 RES1               0.0000
     25 H25         13.9830  20.3814  27.7958 H              1 RES1               0.0000
     26 H26         13.3907  21.1885  26.3457 H              1 RES1               0.0000
     27 H27         14.9753  14.8166  23.7883 H              1 RES1               0.0000
     28 H28         17.1801  17.6964  21.5465 H              1 RES1               0.0000
     29 H29         16.3339  15.3973  21.8150 H              1 RES1               0.0000
@<TRIPOS>BOND
    1    1    2 1     
    2    1    3 1     
    3    1    4 1     
    4    1    5 1     
    5    2    6 ar    
    6    2    7 ar    
    7    3    8 1     
    8    3    9 2     
    9    4   10 1     
   10    4   11 2     
   11    5   12 1     
   12    5   18 1     
   13    5   19 1     
   14    6   13 ar    
   15    6   20 1     
   16    7   14 ar    
   17    7   21 1     
   18    8   15 1     
   19    8   22 1     
   20   10   15 1     
   21   10   23 1     
   22   12   24 1     
   23   12   25 1     
   24   12   26 1     
   25   13   16 ar    
   26   13   27 1     
   27   14   16 ar    
   28   14   28 1     
   29   15   17 2     
   30   16   29 1     
@<TRIPOS>SUBSTRUCTURE
      1 RES1           1
@<TRIPOS>SET
DONOR_HYDROGENS      STATIC     ATOMS    <user>   **** ""
2 22 23
ATOM$RED        STATIC     ATOMS    COLORGROUP SYSTEM
2 22 23
@<TRIPOS>COMMENT
> <Gold.Version>
2022.3.0

> <Gold.Id.Protein>
unknown|3nnw_clean|pdb

> <Gold.Protein.RotatedTorsions>
[ 1705 1700 1698 1695 ] final  -72.75 input   59.99 | X-H torsion
[  530  527  526  524 ] final  -83.97 input   59.98 | X-H torsion
[ 1060 1053 1051 1048 ] final  127.89 input   60.02 | X-H torsion
[ 5171 5162 5161 5159 ] final  -26.40 input   60.02 | X-H torsion

> <Gold.Protein.ActiveResidues>
 TRP18   VAL30   TYR35   SER37   VAL38   CYS39   ALA40   VAL50   ALA51   VAL52  
 LYS53   LYS54   LEU55   ILE63   HIS64   LYS66   ARG67   THR68   TYR69   ARG70  
 GLU71   LEU72   ARG73   LEU74   LEU75   LYS76   HIS77   MET78   ASN82   VAL83  
 ILE84   GLY85   LEU86   LEU87   ASP88   VAL89   VAL102  TYR103  LEU104  VAL105 
 THR106  HIS107  LEU108  MET109  LEU138  TYR140  ILE141  HIS142  ALA144  ILE146 
 ILE147  HIS148  ARG149  ASP150  LEU151  SER154  ASN155  LEU156  ALA157  LYS165 
 ILE166  LEU167  ASP168  PHE169  GLY170  LEU171  ALA172  HIS174  ASP205  TYR323 
 PHE327  GLU328 

> <Gold.Protein.RotatedAtoms>
   16.7177   27.2358   32.2311 H   0  0  0  0  0  0  0  0  0  0  0  0  # atno 530  bound_to 527 
    8.5071   21.4627   34.2246 H   0  0  0  0  0  0  0  0  0  0  0  0  # atno 1060 bound_to 1053
   16.6338    7.5593   30.6987 H   0  0  0  0  0  0  0  0  0  0  0  0  # atno 1705 bound_to 1700
    6.6800   18.1777   21.6259 H   0  0  0  0  0  0  0  0  0  0  0  0  # atno 5171 bound_to 5162
   17.3975    7.7058   29.2696 LP  0  0  0  0  0  0  0  0  0  0  0  0  # atno 5667 bound_to 1700
   17.2994    6.2489   30.0008 LP  0  0  0  0  0  0  0  0  0  0  0  0  # atno 5668 bound_to 1700
   15.1637   26.8861   31.8983 LP  0  0  0  0  0  0  0  0  0  0  0  0  # atno 5712 bound_to 527 
   16.3442   26.4386   30.8626 LP  0  0  0  0  0  0  0  0  0  0  0  0  # atno 5713 bound_to 527 

> <Gold.Score>
     Fitness  S(hb_ext) S(vdw_ext)  S(hb_int)    S(int)      intcor
     32.55       0.15      24.26       0.00      -0.96      -0.76

> <Gold.Goldscore.Fitness>
32.5467

> <Gold.Goldscore.Internal.Vdw>
-1.1596

> <Gold.Goldscore.Internal.Torsion>
-0.5621

> <Gold.Goldscore.External.Vdw>
24.2613

> <Gold.Goldscore.Internal.HBond>
0.0000

> <Gold.Goldscore.External.HBond>
0.1505

> <Gold.Goldscore.Internal.Correction>
-0.7585

> <Gold.Goldscore.Hbonds>
donor molecule, donor type, donor heavy atom, donor atom, acceptor molecule, acceptor atom, score
      P1  H  1032  1040       L1    17  0.03

> <Gold.Goldscore.Internal.Vdw.Weighted>
-1.1596

> <Gold.Goldscore.Internal.Torsion.Weighted>
-0.5621

> <Gold.Goldscore.External.Vdw.Weighted>
33.3593

> <Gold.Goldscore.Internal.HBond.Weighted>
0.0000

> <Gold.Goldscore.External.HBond.Weighted>
0.1505

> <Gold.Goldscore.Internal.Correction.Weighted>
-0.7585

> <Gold.Rescore>
     Score     S(PLP)   S(hbond)     S(cho)   S(metal)  DE(clash)   DE(tors)     intcor
     34.71     -33.69       0.86       0.00       0.00       1.39       0.08       ----

> <Gold.PLP.Fitness>
34.7086

> <Gold.PLP.PLP>
-33.6851

> <Gold.PLP.part.hbond>
-1.0000

> <Gold.PLP.part.metal>
0.0000

> <Gold.PLP.part.buried>
-5.1005

> <Gold.PLP.part.nonpolar>
-28.5805

> <Gold.PLP.part.repulsive>
0.5816

> <Gold.PLP.ligand.clash>
1.3928

> <Gold.PLP.ligand.torsion>
0.0765

> <Gold.PLP.Chemscore.Hbond>
0.8564

> <Gold.PLP.Chemscore.CHOScore>
0.0000

> <Gold.PLP.Chemscore.Metal>
0.0000

> <Gold.Chemscore.Hbonds>
donor molecule, donor type, donor heavy atom, donor atom, acceptor molecule, acceptor atom, score
      P1  H  1032  1040       L1    17  0.22

> <Gold.PLP.Chemscore.Internal.Correction>
   9.000000E+99

