#       Name:                GA Fitting Points
#       Creating user name   hitesit
#       Creation time:       Sun Apr 16 02:21:43 2023


#       Fitting Points Used by GA Software.
#

@<TRIPOS>MOLECULE
GA Fitting Points
  1212    0    0
SMALL
NO_CHARGES


@<TRIPOS>ATOM
      1 ****        40.5000  70.2500  24.2500 Du        
      2 ****        40.7500  66.7500  14.7500 Du        
      3 ****        40.7500  66.7500  15.0000 Du        
      4 ****        40.7500  67.0000  14.7500 Du        
      5 ****        40.7500  70.2500  24.2500 Du        
      6 ****        40.7500  70.5000  24.2500 Du        
      7 ****        41.0000  66.7500  14.7500 Du        
      8 ****        41.0000  66.7500  15.0000 Du        
      9 ****        41.0000  67.0000  14.2500 Du        
     10 ****        41.0000  67.0000  14.5000 Du        
     11 ****        41.0000  67.0000  14.7500 Du        
     12 ****        41.0000  67.0000  15.0000 Du        
     13 ****        41.0000  67.2500  14.7500 Du        
     14 ****        41.2500  66.5000  14.7500 Du        
     15 ****        41.2500  66.5000  15.0000 Du        
     16 ****        41.2500  66.7500  14.2500 Du        
     17 ****        41.2500  66.7500  14.5000 Du        
     18 ****        41.2500  66.7500  14.7500 Du        
     19 ****        41.2500  66.7500  15.0000 Du        
     20 ****        41.2500  67.0000  14.0000 Du        
     21 ****        41.2500  67.0000  14.2500 Du        
     22 ****        41.2500  67.0000  14.5000 Du        
     23 ****        41.2500  67.0000  14.7500 Du        
     24 ****        41.2500  67.0000  15.0000 Du        
     25 ****        41.2500  67.2500  14.7500 Du        
     26 ****        41.5000  66.5000  14.2500 Du        
     27 ****        41.5000  66.5000  14.5000 Du        
     28 ****        41.5000  66.5000  14.7500 Du        
     29 ****        41.5000  66.5000  15.0000 Du        
     30 ****        41.5000  66.7500  14.0000 Du        
     31 ****        41.5000  66.7500  14.2500 Du        
     32 ****        41.5000  66.7500  14.5000 Du        
     33 ****        41.5000  66.7500  14.7500 Du        
     34 ****        41.5000  66.7500  15.0000 Du        
     35 ****        41.5000  67.0000  14.0000 Du        
     36 ****        41.5000  67.0000  14.2500 Du        
     37 ****        41.5000  67.0000  14.5000 Du        
     38 ****        41.5000  67.0000  14.7500 Du        
     39 ****        41.5000  67.0000  15.0000 Du        
     40 ****        41.5000  67.2500  14.2500 Du        
     41 ****        41.5000  67.2500  14.5000 Du        
     42 ****        41.5000  67.2500  14.7500 Du        
     43 ****        41.5000  67.5000  14.7500 Du        
     44 ****        41.7500  66.2500  14.7500 Du        
     45 ****        41.7500  66.2500  15.0000 Du        
     46 ****        41.7500  66.5000  14.0000 Du        
     47 ****        41.7500  66.5000  14.2500 Du        
     48 ****        41.7500  66.5000  14.5000 Du        
     49 ****        41.7500  66.5000  14.7500 Du        
     50 ****        41.7500  66.5000  15.0000 Du        
     51 ****        41.7500  66.5000  15.2500 Du        
     52 ****        41.7500  66.7500  13.7500 Du        
     53 ****        41.7500  66.7500  14.0000 Du        
     54 ****        41.7500  66.7500  14.2500 Du        
     55 ****        41.7500  66.7500  14.5000 Du        
     56 ****        41.7500  66.7500  14.7500 Du        
     57 ****        41.7500  66.7500  15.0000 Du        
     58 ****        41.7500  67.0000  14.0000 Du        
     59 ****        41.7500  67.0000  14.2500 Du        
     60 ****        41.7500  67.0000  14.5000 Du        
     61 ****        41.7500  67.0000  14.7500 Du        
     62 ****        41.7500  67.0000  15.0000 Du        
     63 ****        41.7500  67.2500  14.2500 Du        
     64 ****        41.7500  67.2500  14.5000 Du        
     65 ****        41.7500  67.2500  14.7500 Du        
     66 ****        41.7500  67.5000  14.7500 Du        
     67 ****        42.0000  64.5000  19.7500 Du        
     68 ****        42.0000  64.5000  20.0000 Du        
     69 ****        42.0000  64.5000  20.5000 Du        
     70 ****        42.0000  64.7500  19.7500 Du        
     71 ****        42.0000  64.7500  20.0000 Du        
     72 ****        42.0000  64.7500  20.2500 Du        
     73 ****        42.0000  64.7500  20.5000 Du        
     74 ****        42.0000  66.0000  15.0000 Du        
     75 ****        42.0000  66.2500  14.5000 Du        
     76 ****        42.0000  66.2500  14.7500 Du        
     77 ****        42.0000  66.2500  15.0000 Du        
     78 ****        42.0000  66.2500  15.2500 Du        
     79 ****        42.0000  66.5000  13.7500 Du        
     80 ****        42.0000  66.5000  14.0000 Du        
     81 ****        42.0000  66.5000  14.2500 Du        
     82 ****        42.0000  66.5000  14.5000 Du        
     83 ****        42.0000  66.5000  14.7500 Du        
     84 ****        42.0000  66.5000  15.0000 Du        
     85 ****        42.0000  66.5000  15.2500 Du        
     86 ****        42.0000  66.7500  13.7500 Du        
     87 ****        42.0000  66.7500  14.0000 Du        
     88 ****        42.0000  66.7500  14.2500 Du        
     89 ****        42.0000  66.7500  14.5000 Du        
     90 ****        42.0000  66.7500  14.7500 Du        
     91 ****        42.0000  66.7500  15.0000 Du        
     92 ****        42.0000  67.0000  14.0000 Du        
     93 ****        42.0000  67.0000  14.2500 Du        
     94 ****        42.0000  67.0000  14.5000 Du        
     95 ****        42.0000  67.0000  14.7500 Du        
     96 ****        42.0000  67.0000  15.0000 Du        
     97 ****        42.0000  67.2500  14.2500 Du        
     98 ****        42.0000  67.2500  14.5000 Du        
     99 ****        42.0000  67.2500  14.7500 Du        
    100 ****        42.0000  67.2500  15.0000 Du        
    101 ****        42.0000  67.5000  14.5000 Du        
    102 ****        42.0000  67.5000  14.7500 Du        
    103 ****        42.2500  64.2500  19.0000 Du        
    104 ****        42.2500  64.2500  19.2500 Du        
    105 ****        42.2500  64.2500  19.5000 Du        
    106 ****        42.2500  64.2500  19.7500 Du        
    107 ****        42.2500  64.2500  20.0000 Du        
    108 ****        42.2500  64.5000  18.2500 Du        
    109 ****        42.2500  64.5000  18.5000 Du        
    110 ****        42.2500  64.5000  18.7500 Du        
    111 ****        42.2500  64.5000  19.0000 Du        
    112 ****        42.2500  64.5000  19.2500 Du        
    113 ****        42.2500  64.5000  19.5000 Du        
    114 ****        42.2500  64.5000  19.7500 Du        
    115 ****        42.2500  64.5000  20.0000 Du        
    116 ****        42.2500  64.5000  20.2500 Du        
    117 ****        42.2500  64.5000  20.5000 Du        
    118 ****        42.2500  64.7500  18.7500 Du        
    119 ****        42.2500  64.7500  19.0000 Du        
    120 ****        42.2500  64.7500  19.2500 Du        
    121 ****        42.2500  64.7500  19.5000 Du        
    122 ****        42.2500  64.7500  19.7500 Du        
    123 ****        42.2500  64.7500  20.0000 Du        
    124 ****        42.2500  64.7500  20.2500 Du        
    125 ****        42.2500  64.7500  20.5000 Du        
    126 ****        42.2500  66.0000  14.5000 Du        
    127 ****        42.2500  66.0000  14.7500 Du        
    128 ****        42.2500  66.0000  15.0000 Du        
    129 ****        42.2500  66.0000  15.2500 Du        
    130 ****        42.2500  66.2500  14.5000 Du        
    131 ****        42.2500  66.2500  14.7500 Du        
    132 ****        42.2500  66.2500  15.0000 Du        
    133 ****        42.2500  66.2500  15.2500 Du        
    134 ****        42.2500  66.5000  13.7500 Du        
    135 ****        42.2500  66.5000  14.0000 Du        
    136 ****        42.2500  66.5000  14.2500 Du        
    137 ****        42.2500  66.5000  14.5000 Du        
    138 ****        42.2500  66.5000  14.7500 Du        
    139 ****        42.2500  66.5000  15.0000 Du        
    140 ****        42.2500  66.5000  15.2500 Du        
    141 ****        42.2500  66.7500  13.7500 Du        
    142 ****        42.2500  66.7500  14.0000 Du        
    143 ****        42.2500  66.7500  14.2500 Du        
    144 ****        42.2500  66.7500  14.5000 Du        
    145 ****        42.2500  66.7500  14.7500 Du        
    146 ****        42.2500  66.7500  15.0000 Du        
    147 ****        42.2500  66.7500  15.2500 Du        
    148 ****        42.2500  67.0000  14.0000 Du        
    149 ****        42.2500  67.0000  14.2500 Du        
    150 ****        42.2500  67.0000  14.5000 Du        
    151 ****        42.2500  67.0000  14.7500 Du        
    152 ****        42.2500  67.0000  15.0000 Du        
    153 ****        42.2500  67.2500  14.2500 Du        
    154 ****        42.2500  67.2500  14.5000 Du        
    155 ****        42.2500  67.2500  14.7500 Du        
    156 ****        42.2500  67.2500  15.0000 Du        
    157 ****        42.2500  67.5000  14.5000 Du        
    158 ****        42.2500  67.5000  14.7500 Du        
    159 ****        42.2500  67.5000  15.0000 Du        
    160 ****        42.5000  64.0000  19.0000 Du        
    161 ****        42.5000  64.0000  19.2500 Du        
    162 ****        42.5000  64.0000  19.5000 Du        
    163 ****        42.5000  64.2500  18.5000 Du        
    164 ****        42.5000  64.2500  18.7500 Du        
    165 ****        42.5000  64.2500  19.0000 Du        
    166 ****        42.5000  64.2500  19.2500 Du        
    167 ****        42.5000  64.2500  19.5000 Du        
    168 ****        42.5000  64.2500  19.7500 Du        
    169 ****        42.5000  64.2500  20.0000 Du        
    170 ****        42.5000  64.2500  20.2500 Du        
    171 ****        42.5000  64.5000  18.0000 Du        
    172 ****        42.5000  64.5000  18.2500 Du        
    173 ****        42.5000  64.5000  18.5000 Du        
    174 ****        42.5000  64.5000  18.7500 Du        
    175 ****        42.5000  64.5000  19.0000 Du        
    176 ****        42.5000  64.5000  19.2500 Du        
    177 ****        42.5000  64.5000  19.5000 Du        
    178 ****        42.5000  64.5000  19.7500 Du        
    179 ****        42.5000  64.5000  20.0000 Du        
    180 ****        42.5000  64.5000  20.2500 Du        
    181 ****        42.5000  64.5000  20.5000 Du        
    182 ****        42.5000  64.7500  18.0000 Du        
    183 ****        42.5000  64.7500  18.2500 Du        
    184 ****        42.5000  64.7500  18.5000 Du        
    185 ****        42.5000  64.7500  18.7500 Du        
    186 ****        42.5000  64.7500  19.0000 Du        
    187 ****        42.5000  64.7500  19.2500 Du        
    188 ****        42.5000  64.7500  19.5000 Du        
    189 ****        42.5000  64.7500  19.7500 Du        
    190 ****        42.5000  64.7500  20.0000 Du        
    191 ****        42.5000  64.7500  20.2500 Du        
    192 ****        42.5000  65.7500  15.2500 Du        
    193 ****        42.5000  66.0000  14.5000 Du        
    194 ****        42.5000  66.0000  14.7500 Du        
    195 ****        42.5000  66.0000  15.0000 Du        
    196 ****        42.5000  66.0000  15.2500 Du        
    197 ****        42.5000  66.2500  14.2500 Du        
    198 ****        42.5000  66.2500  14.5000 Du        
    199 ****        42.5000  66.2500  14.7500 Du        
    200 ****        42.5000  66.2500  15.0000 Du        
    201 ****        42.5000  66.2500  15.2500 Du        
    202 ****        42.5000  66.5000  13.7500 Du        
    203 ****        42.5000  66.5000  14.0000 Du        
    204 ****        42.5000  66.5000  14.2500 Du        
    205 ****        42.5000  66.5000  14.5000 Du        
    206 ****        42.5000  66.5000  14.7500 Du        
    207 ****        42.5000  66.5000  15.0000 Du        
    208 ****        42.5000  66.5000  15.2500 Du        
    209 ****        42.5000  66.7500  13.7500 Du        
    210 ****        42.5000  66.7500  14.0000 Du        
    211 ****        42.5000  66.7500  14.2500 Du        
    212 ****        42.5000  66.7500  14.5000 Du        
    213 ****        42.5000  66.7500  14.7500 Du        
    214 ****        42.5000  66.7500  15.0000 Du        
    215 ****        42.5000  66.7500  15.2500 Du        
    216 ****        42.5000  67.0000  14.0000 Du        
    217 ****        42.5000  67.0000  14.2500 Du        
    218 ****        42.5000  67.0000  14.5000 Du        
    219 ****        42.5000  67.0000  14.7500 Du        
    220 ****        42.5000  67.0000  15.0000 Du        
    221 ****        42.5000  67.2500  14.2500 Du        
    222 ****        42.5000  67.2500  14.5000 Du        
    223 ****        42.5000  67.2500  14.7500 Du        
    224 ****        42.5000  67.2500  15.0000 Du        
    225 ****        42.5000  67.5000  14.5000 Du        
    226 ****        42.5000  67.5000  14.7500 Du        
    227 ****        42.5000  67.5000  15.0000 Du        
    228 ****        42.5000  67.7500  14.7500 Du        
    229 ****        42.7500  64.0000  18.5000 Du        
    230 ****        42.7500  64.0000  18.7500 Du        
    231 ****        42.7500  64.0000  19.0000 Du        
    232 ****        42.7500  64.0000  19.2500 Du        
    233 ****        42.7500  64.0000  19.5000 Du        
    234 ****        42.7500  64.2500  18.2500 Du        
    235 ****        42.7500  64.2500  18.5000 Du        
    236 ****        42.7500  64.2500  18.7500 Du        
    237 ****        42.7500  64.2500  19.0000 Du        
    238 ****        42.7500  64.2500  19.2500 Du        
    239 ****        42.7500  64.2500  19.5000 Du        
    240 ****        42.7500  64.2500  19.7500 Du        
    241 ****        42.7500  64.2500  20.0000 Du        
    242 ****        42.7500  64.5000  17.7500 Du        
    243 ****        42.7500  64.5000  18.0000 Du        
    244 ****        42.7500  64.5000  18.2500 Du        
    245 ****        42.7500  64.5000  18.5000 Du        
    246 ****        42.7500  64.5000  18.7500 Du        
    247 ****        42.7500  64.5000  19.0000 Du        
    248 ****        42.7500  64.5000  19.2500 Du        
    249 ****        42.7500  64.5000  19.5000 Du        
    250 ****        42.7500  64.5000  19.7500 Du        
    251 ****        42.7500  64.5000  20.0000 Du        
    252 ****        42.7500  64.7500  17.7500 Du        
    253 ****        42.7500  64.7500  18.0000 Du        
    254 ****        42.7500  64.7500  18.2500 Du        
    255 ****        42.7500  64.7500  18.5000 Du        
    256 ****        42.7500  64.7500  18.7500 Du        
    257 ****        42.7500  64.7500  19.0000 Du        
    258 ****        42.7500  64.7500  19.2500 Du        
    259 ****        42.7500  64.7500  19.5000 Du        
    260 ****        42.7500  64.7500  19.7500 Du        
    261 ****        42.7500  64.7500  20.0000 Du        
    262 ****        42.7500  65.7500  15.0000 Du        
    263 ****        42.7500  65.7500  15.2500 Du        
    264 ****        42.7500  66.0000  14.5000 Du        
    265 ****        42.7500  66.0000  14.7500 Du        
    266 ****        42.7500  66.0000  15.0000 Du        
    267 ****        42.7500  66.0000  15.2500 Du        
    268 ****        42.7500  66.0000  15.5000 Du        
    269 ****        42.7500  66.2500  14.0000 Du        
    270 ****        42.7500  66.2500  14.2500 Du        
    271 ****        42.7500  66.2500  14.5000 Du        
    272 ****        42.7500  66.2500  14.7500 Du        
    273 ****        42.7500  66.2500  15.0000 Du        
    274 ****        42.7500  66.2500  15.2500 Du        
    275 ****        42.7500  66.5000  13.7500 Du        
    276 ****        42.7500  66.5000  14.0000 Du        
    277 ****        42.7500  66.5000  14.2500 Du        
    278 ****        42.7500  66.5000  14.5000 Du        
    279 ****        42.7500  66.5000  14.7500 Du        
    280 ****        42.7500  66.5000  15.0000 Du        
    281 ****        42.7500  66.5000  15.2500 Du        
    282 ****        42.7500  66.5000  15.5000 Du        
    283 ****        42.7500  66.7500  13.7500 Du        
    284 ****        42.7500  66.7500  14.0000 Du        
    285 ****        42.7500  66.7500  14.2500 Du        
    286 ****        42.7500  66.7500  14.5000 Du        
    287 ****        42.7500  66.7500  14.7500 Du        
    288 ****        42.7500  66.7500  15.0000 Du        
    289 ****        42.7500  66.7500  15.2500 Du        
    290 ****        42.7500  67.0000  14.0000 Du        
    291 ****        42.7500  67.0000  14.2500 Du        
    292 ****        42.7500  67.0000  14.5000 Du        
    293 ****        42.7500  67.0000  14.7500 Du        
    294 ****        42.7500  67.0000  15.0000 Du        
    295 ****        42.7500  67.0000  15.2500 Du        
    296 ****        42.7500  67.2500  14.2500 Du        
    297 ****        42.7500  67.2500  14.5000 Du        
    298 ****        42.7500  67.2500  14.7500 Du        
    299 ****        42.7500  67.2500  15.0000 Du        
    300 ****        42.7500  67.5000  14.5000 Du        
    301 ****        42.7500  67.5000  14.7500 Du        
    302 ****        42.7500  67.5000  15.0000 Du        
    303 ****        42.7500  67.7500  14.7500 Du        
    304 ****        43.0000  64.0000  18.7500 Du        
    305 ****        43.0000  64.2500  18.5000 Du        
    306 ****        43.0000  64.2500  18.7500 Du        
    307 ****        43.0000  64.2500  19.0000 Du        
    308 ****        43.0000  64.2500  19.2500 Du        
    309 ****        43.0000  64.5000  18.0000 Du        
    310 ****        43.0000  64.5000  18.2500 Du        
    311 ****        43.0000  64.5000  18.5000 Du        
    312 ****        43.0000  64.5000  18.7500 Du        
    313 ****        43.0000  64.5000  19.0000 Du        
    314 ****        43.0000  64.5000  19.2500 Du        
    315 ****        43.0000  64.5000  19.5000 Du        
    316 ****        43.0000  65.7500  14.7500 Du        
    317 ****        43.0000  65.7500  15.0000 Du        
    318 ****        43.0000  65.7500  15.2500 Du        
    319 ****        43.0000  66.0000  14.2500 Du        
    320 ****        43.0000  66.0000  14.5000 Du        
    321 ****        43.0000  66.0000  14.7500 Du        
    322 ****        43.0000  66.0000  15.0000 Du        
    323 ****        43.0000  66.0000  15.2500 Du        
    324 ****        43.0000  66.2500  14.0000 Du        
    325 ****        43.0000  66.2500  14.2500 Du        
    326 ****        43.0000  66.2500  14.5000 Du        
    327 ****        43.0000  66.2500  14.7500 Du        
    328 ****        43.0000  66.2500  15.0000 Du        
    329 ****        43.0000  66.2500  15.2500 Du        
    330 ****        43.0000  66.5000  13.7500 Du        
    331 ****        43.0000  66.5000  14.0000 Du        
    332 ****        43.0000  66.5000  14.2500 Du        
    333 ****        43.0000  66.5000  14.5000 Du        
    334 ****        43.0000  66.5000  14.7500 Du        
    335 ****        43.0000  66.5000  15.0000 Du        
    336 ****        43.0000  66.5000  15.2500 Du        
    337 ****        43.0000  66.7500  13.7500 Du        
    338 ****        43.0000  66.7500  14.0000 Du        
    339 ****        43.0000  66.7500  14.2500 Du        
    340 ****        43.0000  66.7500  14.5000 Du        
    341 ****        43.0000  66.7500  14.7500 Du        
    342 ****        43.0000  66.7500  15.0000 Du        
    343 ****        43.0000  66.7500  15.2500 Du        
    344 ****        43.0000  67.0000  14.0000 Du        
    345 ****        43.0000  67.0000  14.2500 Du        
    346 ****        43.0000  67.0000  14.5000 Du        
    347 ****        43.0000  67.0000  14.7500 Du        
    348 ****        43.0000  67.0000  15.0000 Du        
    349 ****        43.0000  67.0000  15.2500 Du        
    350 ****        43.0000  67.2500  14.2500 Du        
    351 ****        43.0000  67.2500  14.5000 Du        
    352 ****        43.0000  67.2500  14.7500 Du        
    353 ****        43.0000  67.2500  15.0000 Du        
    354 ****        43.0000  67.5000  14.5000 Du        
    355 ****        43.0000  67.5000  14.7500 Du        
    356 ****        43.0000  67.5000  15.0000 Du        
    357 ****        43.0000  67.7500  14.7500 Du        
    358 ****        43.2500  66.0000  14.5000 Du        
    359 ****        43.2500  66.0000  14.7500 Du        
    360 ****        43.2500  66.2500  14.0000 Du        
    361 ****        43.2500  66.2500  14.2500 Du        
    362 ****        43.2500  66.2500  14.5000 Du        
    363 ****        43.2500  66.2500  14.7500 Du        
    364 ****        43.2500  66.2500  15.0000 Du        
    365 ****        43.2500  66.5000  13.7500 Du        
    366 ****        43.2500  66.5000  14.0000 Du        
    367 ****        43.2500  66.5000  14.2500 Du        
    368 ****        43.2500  66.5000  14.5000 Du        
    369 ****        43.2500  66.5000  14.7500 Du        
    370 ****        43.2500  66.5000  15.0000 Du        
    371 ****        43.2500  66.7500  13.7500 Du        
    372 ****        43.2500  66.7500  14.0000 Du        
    373 ****        43.2500  66.7500  14.2500 Du        
    374 ****        43.2500  66.7500  14.5000 Du        
    375 ****        43.2500  66.7500  14.7500 Du        
    376 ****        43.2500  66.7500  15.0000 Du        
    377 ****        43.2500  67.0000  14.0000 Du        
    378 ****        43.2500  67.0000  14.2500 Du        
    379 ****        43.2500  67.0000  14.5000 Du        
    380 ****        43.2500  67.0000  14.7500 Du        
    381 ****        43.2500  67.0000  15.0000 Du        
    382 ****        43.2500  67.2500  14.2500 Du        
    383 ****        43.2500  67.2500  14.5000 Du        
    384 ****        43.2500  67.2500  14.7500 Du        
    385 ****        43.2500  67.2500  15.0000 Du        
    386 ****        43.2500  67.5000  14.5000 Du        
    387 ****        43.2500  67.5000  14.7500 Du        
    388 ****        43.5000  66.2500  13.7500 Du        
    389 ****        43.5000  66.2500  14.0000 Du        
    390 ****        43.5000  66.2500  14.2500 Du        
    391 ****        43.5000  66.5000  13.5000 Du        
    392 ****        43.5000  66.5000  13.7500 Du        
    393 ****        43.5000  66.5000  14.0000 Du        
    394 ****        43.5000  66.5000  14.2500 Du        
    395 ****        43.5000  66.5000  14.5000 Du        
    396 ****        43.5000  66.5000  14.7500 Du        
    397 ****        43.5000  66.7500  13.7500 Du        
    398 ****        43.5000  66.7500  14.0000 Du        
    399 ****        43.5000  66.7500  14.2500 Du        
    400 ****        43.5000  66.7500  14.5000 Du        
    401 ****        43.5000  66.7500  14.7500 Du        
    402 ****        43.5000  67.0000  13.7500 Du        
    403 ****        43.5000  67.0000  14.0000 Du        
    404 ****        43.5000  67.0000  14.2500 Du        
    405 ****        43.5000  67.0000  14.5000 Du        
    406 ****        43.5000  67.0000  14.7500 Du        
    407 ****        43.5000  67.2500  14.0000 Du        
    408 ****        43.5000  67.2500  14.2500 Du        
    409 ****        43.5000  67.2500  14.5000 Du        
    410 ****        43.5000  67.2500  14.7500 Du        
    411 ****        43.5000  67.5000  14.2500 Du        
    412 ****        43.5000  67.5000  14.5000 Du        
    413 ****        43.5000  67.5000  14.7500 Du        
    414 ****        43.5000  70.0000  26.7500 Du        
    415 ****        43.5000  70.0000  27.0000 Du        
    416 ****        43.5000  70.2500  26.2500 Du        
    417 ****        43.5000  70.2500  26.5000 Du        
    418 ****        43.5000  70.2500  26.7500 Du        
    419 ****        43.5000  70.2500  27.0000 Du        
    420 ****        43.5000  70.5000  26.2500 Du        
    421 ****        43.5000  70.5000  26.5000 Du        
    422 ****        43.5000  70.5000  26.7500 Du        
    423 ****        43.5000  70.5000  27.0000 Du        
    424 ****        43.5000  70.5000  27.2500 Du        
    425 ****        43.5000  70.7500  26.5000 Du        
    426 ****        43.5000  70.7500  26.7500 Du        
    427 ****        43.5000  70.7500  27.0000 Du        
    428 ****        43.5000  70.7500  27.2500 Du        
    429 ****        43.5000  71.0000  26.7500 Du        
    430 ****        43.5000  71.0000  27.0000 Du        
    431 ****        43.5000  71.0000  27.2500 Du        
    432 ****        43.7500  66.2500  13.7500 Du        
    433 ****        43.7500  66.2500  14.0000 Du        
    434 ****        43.7500  66.5000  13.5000 Du        
    435 ****        43.7500  66.5000  13.7500 Du        
    436 ****        43.7500  66.5000  14.0000 Du        
    437 ****        43.7500  66.5000  14.2500 Du        
    438 ****        43.7500  66.7500  13.5000 Du        
    439 ****        43.7500  66.7500  13.7500 Du        
    440 ****        43.7500  66.7500  14.0000 Du        
    441 ****        43.7500  66.7500  14.2500 Du        
    442 ****        43.7500  67.0000  13.7500 Du        
    443 ****        43.7500  67.0000  14.0000 Du        
    444 ****        43.7500  67.0000  14.2500 Du        
    445 ****        43.7500  67.0000  14.5000 Du        
    446 ****        43.7500  67.2500  14.0000 Du        
    447 ****        43.7500  67.2500  14.2500 Du        
    448 ****        43.7500  67.2500  14.5000 Du        
    449 ****        43.7500  67.5000  14.2500 Du        
    450 ****        43.7500  67.5000  14.5000 Du        
    451 ****        43.7500  70.0000  26.7500 Du        
    452 ****        43.7500  70.0000  27.0000 Du        
    453 ****        43.7500  70.2500  26.2500 Du        
    454 ****        43.7500  70.2500  26.5000 Du        
    455 ****        43.7500  70.2500  26.7500 Du        
    456 ****        43.7500  70.2500  27.0000 Du        
    457 ****        43.7500  70.2500  27.2500 Du        
    458 ****        43.7500  70.5000  26.2500 Du        
    459 ****        43.7500  70.5000  26.5000 Du        
    460 ****        43.7500  70.5000  26.7500 Du        
    461 ****        43.7500  70.5000  27.0000 Du        
    462 ****        43.7500  70.5000  27.2500 Du        
    463 ****        43.7500  70.7500  26.2500 Du        
    464 ****        43.7500  70.7500  26.5000 Du        
    465 ****        43.7500  70.7500  26.7500 Du        
    466 ****        43.7500  70.7500  27.0000 Du        
    467 ****        43.7500  70.7500  27.2500 Du        
    468 ****        43.7500  71.0000  26.5000 Du        
    469 ****        43.7500  71.0000  26.7500 Du        
    470 ****        43.7500  71.0000  27.0000 Du        
    471 ****        43.7500  71.0000  27.2500 Du        
    472 ****        43.7500  71.2500  27.0000 Du        
    473 ****        43.7500  71.2500  27.2500 Du        
    474 ****        44.0000  66.0000  13.2500 Du        
    475 ****        44.0000  66.0000  13.5000 Du        
    476 ****        44.0000  66.0000  13.7500 Du        
    477 ****        44.0000  66.2500  13.5000 Du        
    478 ****        44.0000  66.2500  13.7500 Du        
    479 ****        44.0000  66.5000  13.2500 Du        
    480 ****        44.0000  66.5000  13.5000 Du        
    481 ****        44.0000  66.5000  13.7500 Du        
    482 ****        44.0000  66.5000  14.0000 Du        
    483 ****        44.0000  66.7500  13.5000 Du        
    484 ****        44.0000  66.7500  13.7500 Du        
    485 ****        44.0000  66.7500  14.0000 Du        
    486 ****        44.0000  67.0000  13.7500 Du        
    487 ****        44.0000  67.0000  14.0000 Du        
    488 ****        44.0000  67.0000  14.2500 Du        
    489 ****        44.0000  67.2500  14.0000 Du        
    490 ****        44.0000  67.2500  14.2500 Du        
    491 ****        44.0000  70.0000  26.7500 Du        
    492 ****        44.0000  70.0000  27.2500 Du        
    493 ****        44.0000  70.2500  26.2500 Du        
    494 ****        44.0000  70.2500  26.5000 Du        
    495 ****        44.0000  70.2500  26.7500 Du        
    496 ****        44.0000  70.2500  27.0000 Du        
    497 ****        44.0000  70.2500  27.2500 Du        
    498 ****        44.0000  70.5000  26.2500 Du        
    499 ****        44.0000  70.5000  26.5000 Du        
    500 ****        44.0000  70.5000  26.7500 Du        
    501 ****        44.0000  70.5000  27.0000 Du        
    502 ****        44.0000  70.5000  27.2500 Du        
    503 ****        44.0000  70.7500  26.2500 Du        
    504 ****        44.0000  70.7500  26.5000 Du        
    505 ****        44.0000  70.7500  26.7500 Du        
    506 ****        44.0000  70.7500  27.0000 Du        
    507 ****        44.0000  70.7500  27.2500 Du        
    508 ****        44.0000  71.0000  26.5000 Du        
    509 ****        44.0000  71.0000  26.7500 Du        
    510 ****        44.0000  71.0000  27.0000 Du        
    511 ****        44.0000  71.0000  27.2500 Du        
    512 ****        44.0000  71.2500  26.7500 Du        
    513 ****        44.0000  71.2500  27.0000 Du        
    514 ****        44.0000  71.2500  27.2500 Du        
    515 ****        44.0000  71.5000  27.0000 Du        
    516 ****        44.0000  71.5000  27.2500 Du        
    517 ****        44.0000  71.7500  27.2500 Du        
    518 ****        44.2500  63.5000  15.7500 Du        
    519 ****        44.2500  65.7500  12.7500 Du        
    520 ****        44.2500  65.7500  13.0000 Du        
    521 ****        44.2500  65.7500  13.2500 Du        
    522 ****        44.2500  66.0000  12.5000 Du        
    523 ****        44.2500  66.0000  12.7500 Du        
    524 ****        44.2500  66.0000  13.0000 Du        
    525 ****        44.2500  66.0000  13.2500 Du        
    526 ****        44.2500  66.2500  12.7500 Du        
    527 ****        44.2500  66.2500  13.0000 Du        
    528 ****        44.2500  66.2500  13.2500 Du        
    529 ****        44.2500  66.2500  13.5000 Du        
    530 ****        44.2500  66.5000  13.2500 Du        
    531 ****        44.2500  66.5000  13.5000 Du        
    532 ****        44.2500  66.7500  13.2500 Du        
    533 ****        44.2500  66.7500  13.5000 Du        
    534 ****        44.2500  66.7500  13.7500 Du        
    535 ****        44.2500  67.0000  13.5000 Du        
    536 ****        44.2500  67.0000  13.7500 Du        
    537 ****        44.2500  67.2500  13.7500 Du        
    538 ****        44.2500  70.2500  26.7500 Du        
    539 ****        44.2500  70.2500  27.0000 Du        
    540 ****        44.2500  70.2500  27.2500 Du        
    541 ****        44.2500  70.5000  26.2500 Du        
    542 ****        44.2500  70.5000  26.5000 Du        
    543 ****        44.2500  70.5000  26.7500 Du        
    544 ****        44.2500  70.5000  27.0000 Du        
    545 ****        44.2500  70.5000  27.2500 Du        
    546 ****        44.2500  70.7500  26.2500 Du        
    547 ****        44.2500  70.7500  26.5000 Du        
    548 ****        44.2500  70.7500  26.7500 Du        
    549 ****        44.2500  70.7500  27.0000 Du        
    550 ****        44.2500  70.7500  27.2500 Du        
    551 ****        44.2500  70.7500  27.5000 Du        
    552 ****        44.2500  71.0000  26.5000 Du        
    553 ****        44.2500  71.0000  26.7500 Du        
    554 ****        44.2500  71.0000  27.0000 Du        
    555 ****        44.2500  71.0000  27.2500 Du        
    556 ****        44.2500  71.0000  27.5000 Du        
    557 ****        44.2500  71.2500  26.7500 Du        
    558 ****        44.2500  71.2500  27.0000 Du        
    559 ****        44.2500  71.2500  27.2500 Du        
    560 ****        44.2500  71.2500  27.5000 Du        
    561 ****        44.2500  71.5000  27.0000 Du        
    562 ****        44.2500  71.5000  27.2500 Du        
    563 ****        44.2500  71.7500  27.2500 Du        
    564 ****        44.5000  62.7500  15.2500 Du        
    565 ****        44.5000  62.7500  15.5000 Du        
    566 ****        44.5000  63.0000  14.7500 Du        
    567 ****        44.5000  63.0000  15.0000 Du        
    568 ****        44.5000  63.0000  15.2500 Du        
    569 ****        44.5000  63.0000  15.5000 Du        
    570 ****        44.5000  63.0000  15.7500 Du        
    571 ****        44.5000  63.2500  14.7500 Du        
    572 ****        44.5000  63.2500  15.0000 Du        
    573 ****        44.5000  63.2500  15.2500 Du        
    574 ****        44.5000  63.2500  15.5000 Du        
    575 ****        44.5000  63.2500  15.7500 Du        
    576 ****        44.5000  63.5000  15.0000 Du        
    577 ****        44.5000  63.5000  15.2500 Du        
    578 ****        44.5000  63.5000  15.5000 Du        
    579 ****        44.5000  63.7500  14.5000 Du        
    580 ****        44.5000  65.5000  12.7500 Du        
    581 ****        44.5000  65.5000  13.0000 Du        
    582 ****        44.5000  65.5000  13.2500 Du        
    583 ****        44.5000  65.7500  12.5000 Du        
    584 ****        44.5000  65.7500  12.7500 Du        
    585 ****        44.5000  65.7500  13.0000 Du        
    586 ****        44.5000  66.0000  12.2500 Du        
    587 ****        44.5000  66.0000  12.5000 Du        
    588 ****        44.5000  66.0000  12.7500 Du        
    589 ****        44.5000  66.0000  13.0000 Du        
    590 ****        44.5000  66.0000  13.2500 Du        
    591 ****        44.5000  66.2500  12.5000 Du        
    592 ****        44.5000  66.2500  12.7500 Du        
    593 ****        44.5000  66.2500  13.0000 Du        
    594 ****        44.5000  66.2500  13.2500 Du        
    595 ****        44.5000  66.5000  12.7500 Du        
    596 ****        44.5000  66.5000  13.0000 Du        
    597 ****        44.5000  66.5000  13.2500 Du        
    598 ****        44.5000  66.5000  13.5000 Du        
    599 ****        44.5000  66.7500  13.0000 Du        
    600 ****        44.5000  66.7500  13.2500 Du        
    601 ****        44.5000  66.7500  13.5000 Du        
    602 ****        44.5000  67.0000  13.5000 Du        
    603 ****        44.5000  70.5000  26.7500 Du        
    604 ****        44.5000  70.5000  27.0000 Du        
    605 ****        44.5000  70.5000  27.2500 Du        
    606 ****        44.5000  70.7500  26.5000 Du        
    607 ****        44.5000  70.7500  26.7500 Du        
    608 ****        44.5000  70.7500  27.0000 Du        
    609 ****        44.5000  70.7500  27.2500 Du        
    610 ****        44.5000  70.7500  27.5000 Du        
    611 ****        44.5000  70.7500  27.7500 Du        
    612 ****        44.5000  71.0000  26.5000 Du        
    613 ****        44.5000  71.0000  26.7500 Du        
    614 ****        44.5000  71.0000  27.0000 Du        
    615 ****        44.5000  71.0000  27.2500 Du        
    616 ****        44.5000  71.0000  27.5000 Du        
    617 ****        44.5000  71.0000  27.7500 Du        
    618 ****        44.5000  71.2500  26.7500 Du        
    619 ****        44.5000  71.2500  27.0000 Du        
    620 ****        44.5000  71.2500  27.2500 Du        
    621 ****        44.5000  71.2500  27.5000 Du        
    622 ****        44.5000  71.2500  27.7500 Du        
    623 ****        44.5000  71.5000  27.0000 Du        
    624 ****        44.5000  71.5000  27.2500 Du        
    625 ****        44.5000  71.5000  27.5000 Du        
    626 ****        44.5000  71.5000  27.7500 Du        
    627 ****        44.5000  71.7500  27.2500 Du        
    628 ****        44.5000  71.7500  27.5000 Du        
    629 ****        44.5000  71.7500  27.7500 Du        
    630 ****        44.5000  72.0000  27.7500 Du        
    631 ****        44.7500  62.5000  15.2500 Du        
    632 ****        44.7500  62.5000  15.5000 Du        
    633 ****        44.7500  62.7500  15.0000 Du        
    634 ****        44.7500  62.7500  15.2500 Du        
    635 ****        44.7500  62.7500  15.5000 Du        
    636 ****        44.7500  62.7500  15.7500 Du        
    637 ****        44.7500  63.0000  14.7500 Du        
    638 ****        44.7500  63.0000  15.0000 Du        
    639 ****        44.7500  63.0000  15.2500 Du        
    640 ****        44.7500  63.0000  15.5000 Du        
    641 ****        44.7500  63.2500  14.2500 Du        
    642 ****        44.7500  63.2500  14.5000 Du        
    643 ****        44.7500  63.2500  14.7500 Du        
    644 ****        44.7500  63.2500  15.0000 Du        
    645 ****        44.7500  63.2500  15.2500 Du        
    646 ****        44.7500  63.2500  15.5000 Du        
    647 ****        44.7500  63.5000  14.5000 Du        
    648 ****        44.7500  63.5000  14.7500 Du        
    649 ****        44.7500  63.5000  15.0000 Du        
    650 ****        44.7500  63.5000  15.2500 Du        
    651 ****        44.7500  63.7500  14.2500 Du        
    652 ****        44.7500  63.7500  14.5000 Du        
    653 ****        44.7500  65.5000  12.5000 Du        
    654 ****        44.7500  65.5000  12.7500 Du        
    655 ****        44.7500  65.5000  13.0000 Du        
    656 ****        44.7500  65.7500  12.2500 Du        
    657 ****        44.7500  65.7500  12.5000 Du        
    658 ****        44.7500  65.7500  12.7500 Du        
    659 ****        44.7500  65.7500  13.0000 Du        
    660 ****        44.7500  66.0000  12.0000 Du        
    661 ****        44.7500  66.0000  12.2500 Du        
    662 ****        44.7500  66.0000  12.5000 Du        
    663 ****        44.7500  66.0000  12.7500 Du        
    664 ****        44.7500  66.0000  13.0000 Du        
    665 ****        44.7500  66.2500  12.0000 Du        
    666 ****        44.7500  66.2500  12.2500 Du        
    667 ****        44.7500  66.2500  12.5000 Du        
    668 ****        44.7500  66.2500  12.7500 Du        
    669 ****        44.7500  66.2500  13.0000 Du        
    670 ****        44.7500  66.5000  12.5000 Du        
    671 ****        44.7500  66.5000  12.7500 Du        
    672 ****        44.7500  66.5000  13.0000 Du        
    673 ****        44.7500  66.5000  13.2500 Du        
    674 ****        44.7500  66.7500  12.7500 Du        
    675 ****        44.7500  66.7500  13.0000 Du        
    676 ****        44.7500  66.7500  13.2500 Du        
    677 ****        44.7500  70.7500  26.7500 Du        
    678 ****        44.7500  70.7500  27.0000 Du        
    679 ****        44.7500  70.7500  27.2500 Du        
    680 ****        44.7500  70.7500  27.5000 Du        
    681 ****        44.7500  70.7500  27.7500 Du        
    682 ****        44.7500  71.0000  26.5000 Du        
    683 ****        44.7500  71.0000  26.7500 Du        
    684 ****        44.7500  71.0000  27.0000 Du        
    685 ****        44.7500  71.0000  27.2500 Du        
    686 ****        44.7500  71.0000  27.5000 Du        
    687 ****        44.7500  71.0000  27.7500 Du        
    688 ****        44.7500  71.2500  26.7500 Du        
    689 ****        44.7500  71.2500  27.0000 Du        
    690 ****        44.7500  71.2500  27.2500 Du        
    691 ****        44.7500  71.2500  27.5000 Du        
    692 ****        44.7500  71.2500  27.7500 Du        
    693 ****        44.7500  71.5000  27.0000 Du        
    694 ****        44.7500  71.5000  27.2500 Du        
    695 ****        44.7500  71.5000  27.5000 Du        
    696 ****        44.7500  71.5000  27.7500 Du        
    697 ****        44.7500  71.7500  27.2500 Du        
    698 ****        44.7500  71.7500  27.5000 Du        
    699 ****        44.7500  71.7500  27.7500 Du        
    700 ****        44.7500  72.0000  27.7500 Du        
    701 ****        45.0000  63.0000  14.7500 Du        
    702 ****        45.0000  63.2500  14.5000 Du        
    703 ****        45.0000  63.2500  14.7500 Du        
    704 ****        45.0000  63.5000  14.5000 Du        
    705 ****        45.0000  63.5000  14.7500 Du        
    706 ****        45.0000  65.5000  12.2500 Du        
    707 ****        45.0000  65.5000  12.5000 Du        
    708 ****        45.0000  65.5000  12.7500 Du        
    709 ****        45.0000  65.7500  12.0000 Du        
    710 ****        45.0000  65.7500  12.2500 Du        
    711 ****        45.0000  65.7500  12.5000 Du        
    712 ****        45.0000  66.0000  11.7500 Du        
    713 ****        45.0000  66.0000  12.0000 Du        
    714 ****        45.0000  66.0000  12.2500 Du        
    715 ****        45.0000  66.0000  12.5000 Du        
    716 ****        45.0000  66.2500  11.7500 Du        
    717 ****        45.0000  66.2500  12.0000 Du        
    718 ****        45.0000  66.2500  12.2500 Du        
    719 ****        45.0000  66.2500  12.5000 Du        
    720 ****        45.0000  66.5000  12.0000 Du        
    721 ****        45.0000  66.5000  12.2500 Du        
    722 ****        45.0000  66.5000  12.5000 Du        
    723 ****        45.0000  66.7500  12.5000 Du        
    724 ****        45.0000  66.7500  12.7500 Du        
    725 ****        45.0000  67.0000  12.7500 Du        
    726 ****        45.0000  71.0000  26.7500 Du        
    727 ****        45.0000  71.0000  27.0000 Du        
    728 ****        45.0000  71.0000  27.2500 Du        
    729 ****        45.0000  71.0000  27.5000 Du        
    730 ****        45.0000  71.0000  27.7500 Du        
    731 ****        45.0000  71.2500  26.7500 Du        
    732 ****        45.0000  71.2500  27.0000 Du        
    733 ****        45.0000  71.2500  27.2500 Du        
    734 ****        45.0000  71.2500  27.5000 Du        
    735 ****        45.0000  71.2500  27.7500 Du        
    736 ****        45.0000  71.5000  27.0000 Du        
    737 ****        45.0000  71.5000  27.2500 Du        
    738 ****        45.0000  71.5000  27.5000 Du        
    739 ****        45.0000  71.5000  27.7500 Du        
    740 ****        45.0000  71.7500  27.2500 Du        
    741 ****        45.0000  71.7500  27.5000 Du        
    742 ****        45.0000  71.7500  27.7500 Du        
    743 ****        45.0000  72.0000  27.7500 Du        
    744 ****        45.2500  65.7500  11.7500 Du        
    745 ****        45.2500  65.7500  12.0000 Du        
    746 ****        45.2500  65.7500  12.2500 Du        
    747 ****        45.2500  66.0000  11.7500 Du        
    748 ****        45.2500  66.0000  12.0000 Du        
    749 ****        45.2500  66.0000  12.2500 Du        
    750 ****        45.2500  66.2500  11.5000 Du        
    751 ****        45.2500  66.2500  11.7500 Du        
    752 ****        45.2500  66.2500  12.0000 Du        
    753 ****        45.2500  66.2500  12.2500 Du        
    754 ****        45.2500  66.5000  11.5000 Du        
    755 ****        45.2500  66.5000  11.7500 Du        
    756 ****        45.2500  66.5000  12.0000 Du        
    757 ****        45.2500  66.7500  12.0000 Du        
    758 ****        45.2500  71.2500  27.2500 Du        
    759 ****        45.2500  71.2500  27.5000 Du        
    760 ****        45.2500  71.2500  27.7500 Du        
    761 ****        45.2500  71.5000  27.2500 Du        
    762 ****        45.2500  71.5000  27.5000 Du        
    763 ****        45.2500  71.5000  27.7500 Du        
    764 ****        45.2500  71.7500  27.7500 Du        
    765 ****        45.5000  63.5000  25.2500 Du        
    766 ****        45.5000  66.0000  11.7500 Du        
    767 ****        45.5000  66.0000  12.0000 Du        
    768 ****        45.5000  66.2500  11.5000 Du        
    769 ****        45.5000  66.2500  11.7500 Du        
    770 ****        45.5000  66.2500  12.0000 Du        
    771 ****        45.5000  66.5000  11.2500 Du        
    772 ****        45.5000  66.5000  11.5000 Du        
    773 ****        45.5000  66.5000  11.7500 Du        
    774 ****        45.5000  66.5000  12.0000 Du        
    775 ****        45.5000  66.7500  11.0000 Du        
    776 ****        45.5000  66.7500  11.2500 Du        
    777 ****        45.5000  66.7500  11.5000 Du        
    778 ****        45.5000  66.7500  11.7500 Du        
    779 ****        45.5000  66.7500  12.0000 Du        
    780 ****        45.5000  67.0000  11.5000 Du        
    781 ****        45.5000  67.0000  11.7500 Du        
    782 ****        45.5000  67.0000  12.0000 Du        
    783 ****        45.5000  71.5000  27.7500 Du        
    784 ****        45.5000  71.7500  27.7500 Du        
    785 ****        45.7500  63.0000  25.2500 Du        
    786 ****        45.7500  63.2500  25.2500 Du        
    787 ****        45.7500  63.2500  25.5000 Du        
    788 ****        45.7500  63.2500  25.7500 Du        
    789 ****        45.7500  63.5000  25.2500 Du        
    790 ****        45.7500  63.5000  25.5000 Du        
    791 ****        45.7500  63.5000  25.7500 Du        
    792 ****        45.7500  66.2500  11.5000 Du        
    793 ****        45.7500  66.2500  11.7500 Du        
    794 ****        45.7500  66.5000  11.2500 Du        
    795 ****        45.7500  66.5000  11.5000 Du        
    796 ****        45.7500  66.5000  11.7500 Du        
    797 ****        45.7500  66.7500  11.0000 Du        
    798 ****        45.7500  66.7500  11.2500 Du        
    799 ****        45.7500  66.7500  11.5000 Du        
    800 ****        45.7500  66.7500  11.7500 Du        
    801 ****        45.7500  67.0000  11.0000 Du        
    802 ****        45.7500  67.0000  11.2500 Du        
    803 ****        45.7500  67.0000  11.5000 Du        
    804 ****        45.7500  67.0000  11.7500 Du        
    805 ****        45.7500  67.2500  11.0000 Du        
    806 ****        45.7500  67.2500  11.2500 Du        
    807 ****        45.7500  67.2500  11.5000 Du        
    808 ****        45.7500  67.2500  11.7500 Du        
    809 ****        45.7500  67.5000  11.2500 Du        
    810 ****        46.0000  62.7500  25.2500 Du        
    811 ****        46.0000  63.0000  25.2500 Du        
    812 ****        46.0000  63.0000  25.5000 Du        
    813 ****        46.0000  63.2500  25.0000 Du        
    814 ****        46.0000  63.2500  25.2500 Du        
    815 ****        46.0000  63.2500  25.5000 Du        
    816 ****        46.0000  63.2500  25.7500 Du        
    817 ****        46.0000  63.5000  25.2500 Du        
    818 ****        46.0000  63.5000  25.5000 Du        
    819 ****        46.0000  63.5000  25.7500 Du        
    820 ****        46.0000  66.5000  11.5000 Du        
    821 ****        46.0000  66.7500  11.0000 Du        
    822 ****        46.0000  66.7500  11.2500 Du        
    823 ****        46.0000  66.7500  11.5000 Du        
    824 ****        46.0000  67.0000  10.7500 Du        
    825 ****        46.0000  67.0000  11.0000 Du        
    826 ****        46.0000  67.0000  11.2500 Du        
    827 ****        46.0000  67.0000  11.5000 Du        
    828 ****        46.0000  67.2500  10.7500 Du        
    829 ****        46.0000  67.2500  11.0000 Du        
    830 ****        46.0000  67.2500  11.2500 Du        
    831 ****        46.0000  67.2500  11.5000 Du        
    832 ****        46.0000  67.5000  10.5000 Du        
    833 ****        46.0000  67.5000  10.7500 Du        
    834 ****        46.0000  67.5000  11.0000 Du        
    835 ****        46.0000  67.5000  11.2500 Du        
    836 ****        46.0000  67.5000  11.5000 Du        
    837 ****        46.0000  67.7500  10.5000 Du        
    838 ****        46.0000  67.7500  10.7500 Du        
    839 ****        46.0000  67.7500  11.0000 Du        
    840 ****        46.0000  67.7500  11.2500 Du        
    841 ****        46.2500  62.7500  25.2500 Du        
    842 ****        46.2500  62.7500  25.5000 Du        
    843 ****        46.2500  63.0000  25.0000 Du        
    844 ****        46.2500  63.0000  25.2500 Du        
    845 ****        46.2500  63.0000  25.5000 Du        
    846 ****        46.2500  63.2500  25.2500 Du        
    847 ****        46.2500  63.2500  25.5000 Du        
    848 ****        46.2500  63.5000  25.2500 Du        
    849 ****        46.2500  63.5000  25.5000 Du        
    850 ****        46.2500  67.0000  10.7500 Du        
    851 ****        46.2500  67.0000  11.0000 Du        
    852 ****        46.2500  67.0000  11.2500 Du        
    853 ****        46.2500  67.2500  10.7500 Du        
    854 ****        46.2500  67.2500  11.0000 Du        
    855 ****        46.2500  67.2500  11.2500 Du        
    856 ****        46.2500  67.2500  11.5000 Du        
    857 ****        46.2500  67.5000  10.5000 Du        
    858 ****        46.2500  67.5000  10.7500 Du        
    859 ****        46.2500  67.5000  11.0000 Du        
    860 ****        46.2500  67.5000  11.2500 Du        
    861 ****        46.2500  67.5000  11.5000 Du        
    862 ****        46.2500  67.7500  10.5000 Du        
    863 ****        46.2500  67.7500  10.7500 Du        
    864 ****        46.2500  67.7500  11.0000 Du        
    865 ****        46.2500  67.7500  11.2500 Du        
    866 ****        46.2500  67.7500  11.5000 Du        
    867 ****        46.2500  68.0000  10.5000 Du        
    868 ****        46.2500  68.0000  10.7500 Du        
    869 ****        46.2500  68.0000  11.0000 Du        
    870 ****        46.5000  62.7500  25.2500 Du        
    871 ****        46.5000  62.7500  25.5000 Du        
    872 ****        46.5000  62.7500  25.7500 Du        
    873 ****        46.5000  63.0000  25.2500 Du        
    874 ****        46.5000  63.0000  25.5000 Du        
    875 ****        46.5000  63.0000  25.7500 Du        
    876 ****        46.5000  63.2500  25.2500 Du        
    877 ****        46.5000  63.2500  25.5000 Du        
    878 ****        46.5000  63.2500  25.7500 Du        
    879 ****        46.5000  63.5000  25.2500 Du        
    880 ****        46.5000  63.5000  25.5000 Du        
    881 ****        46.5000  67.5000  10.5000 Du        
    882 ****        46.5000  67.5000  10.7500 Du        
    883 ****        46.5000  67.5000  11.0000 Du        
    884 ****        46.5000  67.7500  10.5000 Du        
    885 ****        46.5000  67.7500  10.7500 Du        
    886 ****        46.5000  67.7500  11.0000 Du        
    887 ****        46.5000  67.7500  11.2500 Du        
    888 ****        46.5000  68.0000  10.5000 Du        
    889 ****        46.5000  68.0000  10.7500 Du        
    890 ****        46.5000  68.0000  11.0000 Du        
    891 ****        46.5000  68.0000  11.2500 Du        
    892 ****        46.5000  68.2500  10.7500 Du        
    893 ****        46.5000  68.2500  11.0000 Du        
    894 ****        46.5000  68.2500  11.2500 Du        
    895 ****        46.7500  62.7500  25.5000 Du        
    896 ****        46.7500  63.0000  25.5000 Du        
    897 ****        46.7500  63.0000  25.7500 Du        
    898 ****        46.7500  67.5000  10.7500 Du        
    899 ****        46.7500  67.5000  11.0000 Du        
    900 ****        46.7500  67.7500  10.5000 Du        
    901 ****        46.7500  67.7500  10.7500 Du        
    902 ****        46.7500  67.7500  11.0000 Du        
    903 ****        46.7500  68.0000  10.2500 Du        
    904 ****        46.7500  68.0000  10.5000 Du        
    905 ****        46.7500  68.0000  10.7500 Du        
    906 ****        46.7500  68.0000  11.0000 Du        
    907 ****        46.7500  68.0000  11.2500 Du        
    908 ****        46.7500  68.2500  10.5000 Du        
    909 ****        46.7500  68.2500  10.7500 Du        
    910 ****        46.7500  68.2500  11.0000 Du        
    911 ****        46.7500  68.2500  11.2500 Du        
    912 ****        46.7500  68.5000  11.0000 Du        
    913 ****        47.0000  67.7500  10.5000 Du        
    914 ****        47.0000  67.7500  10.7500 Du        
    915 ****        47.0000  68.0000  10.5000 Du        
    916 ****        47.0000  68.0000  10.7500 Du        
    917 ****        47.0000  68.2500  10.5000 Du        
    918 ****        47.0000  68.2500  10.7500 Du        
    919 ****        47.0000  68.2500  11.0000 Du        
    920 ****        47.0000  68.5000  10.5000 Du        
    921 ****        47.0000  68.5000  10.7500 Du        
    922 ****        47.0000  68.5000  11.0000 Du        
    923 ****        47.0000  68.7500  10.7500 Du        
    924 ****        47.0000  68.7500  11.0000 Du        
    925 ****        47.0000  72.0000  11.0000 Du        
    926 ****        47.2500  68.2500  10.7500 Du        
    927 ****        47.2500  68.5000  10.7500 Du        
    928 ****        47.2500  68.7500  10.5000 Du        
    929 ****        47.2500  68.7500  10.7500 Du        
    930 ****        47.2500  68.7500  11.0000 Du        
    931 ****        47.2500  69.0000  10.7500 Du        
    932 ****        47.2500  69.0000  11.0000 Du        
    933 ****        47.2500  69.0000  11.2500 Du        
    934 ****        47.2500  69.0000  11.5000 Du        
    935 ****        47.2500  69.2500  10.7500 Du        
    936 ****        47.2500  69.2500  11.0000 Du        
    937 ****        47.2500  69.2500  11.5000 Du        
    938 ****        47.2500  69.5000  11.5000 Du        
    939 ****        47.2500  71.5000  11.0000 Du        
    940 ****        47.2500  71.7500  11.0000 Du        
    941 ****        47.2500  71.7500  11.2500 Du        
    942 ****        47.2500  72.0000  11.0000 Du        
    943 ****        47.2500  72.0000  11.2500 Du        
    944 ****        47.5000  69.0000  11.0000 Du        
    945 ****        47.5000  69.0000  11.2500 Du        
    946 ****        47.5000  69.2500  10.5000 Du        
    947 ****        47.5000  69.2500  10.7500 Du        
    948 ****        47.5000  69.2500  11.0000 Du        
    949 ****        47.5000  69.2500  11.2500 Du        
    950 ****        47.5000  69.2500  11.5000 Du        
    951 ****        47.5000  69.2500  11.7500 Du        
    952 ****        47.5000  69.5000  10.7500 Du        
    953 ****        47.5000  69.5000  11.0000 Du        
    954 ****        47.5000  69.5000  11.2500 Du        
    955 ****        47.5000  69.5000  11.5000 Du        
    956 ****        47.5000  69.5000  11.7500 Du        
    957 ****        47.5000  69.7500  10.5000 Du        
    958 ****        47.5000  69.7500  10.7500 Du        
    959 ****        47.5000  69.7500  11.0000 Du        
    960 ****        47.5000  69.7500  11.2500 Du        
    961 ****        47.5000  69.7500  11.5000 Du        
    962 ****        47.5000  69.7500  11.7500 Du        
    963 ****        47.5000  69.7500  12.0000 Du        
    964 ****        47.5000  70.0000  10.5000 Du        
    965 ****        47.5000  70.0000  10.7500 Du        
    966 ****        47.5000  70.0000  11.0000 Du        
    967 ****        47.5000  70.0000  11.2500 Du        
    968 ****        47.5000  70.0000  11.5000 Du        
    969 ****        47.5000  70.0000  11.7500 Du        
    970 ****        47.5000  70.0000  12.0000 Du        
    971 ****        47.5000  70.2500  10.7500 Du        
    972 ****        47.5000  70.2500  11.0000 Du        
    973 ****        47.5000  70.2500  11.2500 Du        
    974 ****        47.5000  70.2500  11.5000 Du        
    975 ****        47.5000  70.2500  11.7500 Du        
    976 ****        47.5000  70.5000  10.5000 Du        
    977 ****        47.5000  70.5000  10.7500 Du        
    978 ****        47.5000  70.5000  11.0000 Du        
    979 ****        47.5000  70.5000  11.2500 Du        
    980 ****        47.5000  70.5000  11.5000 Du        
    981 ****        47.5000  70.5000  11.7500 Du        
    982 ****        47.5000  70.7500  10.5000 Du        
    983 ****        47.5000  70.7500  10.7500 Du        
    984 ****        47.5000  70.7500  11.0000 Du        
    985 ****        47.5000  70.7500  11.2500 Du        
    986 ****        47.5000  70.7500  11.5000 Du        
    987 ****        47.5000  71.0000  10.5000 Du        
    988 ****        47.5000  71.0000  10.7500 Du        
    989 ****        47.5000  71.0000  11.0000 Du        
    990 ****        47.5000  71.0000  11.2500 Du        
    991 ****        47.5000  71.0000  11.5000 Du        
    992 ****        47.5000  71.2500  11.0000 Du        
    993 ****        47.5000  71.2500  11.2500 Du        
    994 ****        47.5000  71.2500  11.5000 Du        
    995 ****        47.5000  71.5000  11.0000 Du        
    996 ****        47.5000  71.5000  11.2500 Du        
    997 ****        47.5000  71.5000  11.5000 Du        
    998 ****        47.5000  71.7500  11.0000 Du        
    999 ****        47.5000  71.7500  11.2500 Du        
   1000 ****        47.5000  71.7500  11.5000 Du        
   1001 ****        47.5000  72.0000  11.0000 Du        
   1002 ****        47.5000  72.0000  11.2500 Du        
   1003 ****        47.7500  69.0000  10.7500 Du        
   1004 ****        47.7500  69.0000  11.0000 Du        
   1005 ****        47.7500  69.2500  10.5000 Du        
   1006 ****        47.7500  69.2500  10.7500 Du        
   1007 ****        47.7500  69.2500  11.0000 Du        
   1008 ****        47.7500  69.2500  11.2500 Du        
   1009 ****        47.7500  69.2500  11.5000 Du        
   1010 ****        47.7500  69.5000  10.5000 Du        
   1011 ****        47.7500  69.5000  10.7500 Du        
   1012 ****        47.7500  69.5000  11.0000 Du        
   1013 ****        47.7500  69.5000  11.2500 Du        
   1014 ****        47.7500  69.5000  11.5000 Du        
   1015 ****        47.7500  69.5000  11.7500 Du        
   1016 ****        47.7500  69.7500  10.5000 Du        
   1017 ****        47.7500  69.7500  10.7500 Du        
   1018 ****        47.7500  69.7500  11.0000 Du        
   1019 ****        47.7500  69.7500  11.2500 Du        
   1020 ****        47.7500  69.7500  11.5000 Du        
   1021 ****        47.7500  69.7500  11.7500 Du        
   1022 ****        47.7500  69.7500  12.0000 Du        
   1023 ****        47.7500  70.0000  10.5000 Du        
   1024 ****        47.7500  70.0000  10.7500 Du        
   1025 ****        47.7500  70.0000  11.0000 Du        
   1026 ****        47.7500  70.0000  11.2500 Du        
   1027 ****        47.7500  70.0000  11.5000 Du        
   1028 ****        47.7500  70.0000  11.7500 Du        
   1029 ****        47.7500  70.0000  12.0000 Du        
   1030 ****        47.7500  70.0000  12.2500 Du        
   1031 ****        47.7500  70.2500  10.5000 Du        
   1032 ****        47.7500  70.2500  10.7500 Du        
   1033 ****        47.7500  70.2500  11.0000 Du        
   1034 ****        47.7500  70.2500  11.2500 Du        
   1035 ****        47.7500  70.2500  11.5000 Du        
   1036 ****        47.7500  70.2500  11.7500 Du        
   1037 ****        47.7500  70.2500  12.0000 Du        
   1038 ****        47.7500  70.5000  10.5000 Du        
   1039 ****        47.7500  70.5000  10.7500 Du        
   1040 ****        47.7500  70.5000  11.0000 Du        
   1041 ****        47.7500  70.5000  11.2500 Du        
   1042 ****        47.7500  70.5000  11.5000 Du        
   1043 ****        47.7500  70.5000  11.7500 Du        
   1044 ****        47.7500  70.5000  12.0000 Du        
   1045 ****        47.7500  70.7500  10.5000 Du        
   1046 ****        47.7500  70.7500  10.7500 Du        
   1047 ****        47.7500  70.7500  11.0000 Du        
   1048 ****        47.7500  70.7500  11.2500 Du        
   1049 ****        47.7500  70.7500  11.5000 Du        
   1050 ****        47.7500  70.7500  11.7500 Du        
   1051 ****        47.7500  71.0000  10.5000 Du        
   1052 ****        47.7500  71.0000  10.7500 Du        
   1053 ****        47.7500  71.0000  11.0000 Du        
   1054 ****        47.7500  71.0000  11.2500 Du        
   1055 ****        47.7500  71.0000  11.5000 Du        
   1056 ****        47.7500  71.0000  11.7500 Du        
   1057 ****        47.7500  71.2500  11.0000 Du        
   1058 ****        47.7500  71.2500  11.2500 Du        
   1059 ****        47.7500  71.2500  11.5000 Du        
   1060 ****        47.7500  71.2500  11.7500 Du        
   1061 ****        47.7500  71.5000  11.0000 Du        
   1062 ****        47.7500  71.5000  11.2500 Du        
   1063 ****        47.7500  71.5000  11.5000 Du        
   1064 ****        47.7500  71.7500  11.0000 Du        
   1065 ****        47.7500  71.7500  11.2500 Du        
   1066 ****        47.7500  71.7500  11.5000 Du        
   1067 ****        47.7500  72.0000  11.0000 Du        
   1068 ****        48.0000  69.2500  10.5000 Du        
   1069 ****        48.0000  69.2500  10.7500 Du        
   1070 ****        48.0000  69.2500  11.0000 Du        
   1071 ****        48.0000  69.5000  10.5000 Du        
   1072 ****        48.0000  69.5000  10.7500 Du        
   1073 ****        48.0000  69.5000  11.0000 Du        
   1074 ****        48.0000  69.5000  11.2500 Du        
   1075 ****        48.0000  69.5000  11.5000 Du        
   1076 ****        48.0000  69.5000  11.7500 Du        
   1077 ****        48.0000  69.7500  10.5000 Du        
   1078 ****        48.0000  69.7500  10.7500 Du        
   1079 ****        48.0000  69.7500  11.0000 Du        
   1080 ****        48.0000  69.7500  11.2500 Du        
   1081 ****        48.0000  69.7500  11.5000 Du        
   1082 ****        48.0000  69.7500  11.7500 Du        
   1083 ****        48.0000  69.7500  12.0000 Du        
   1084 ****        48.0000  70.0000  10.5000 Du        
   1085 ****        48.0000  70.0000  10.7500 Du        
   1086 ****        48.0000  70.0000  11.0000 Du        
   1087 ****        48.0000  70.0000  11.2500 Du        
   1088 ****        48.0000  70.0000  11.5000 Du        
   1089 ****        48.0000  70.0000  11.7500 Du        
   1090 ****        48.0000  70.0000  12.0000 Du        
   1091 ****        48.0000  70.0000  12.2500 Du        
   1092 ****        48.0000  70.2500  10.5000 Du        
   1093 ****        48.0000  70.2500  10.7500 Du        
   1094 ****        48.0000  70.2500  11.0000 Du        
   1095 ****        48.0000  70.2500  11.2500 Du        
   1096 ****        48.0000  70.2500  11.5000 Du        
   1097 ****        48.0000  70.2500  11.7500 Du        
   1098 ****        48.0000  70.2500  12.0000 Du        
   1099 ****        48.0000  70.2500  12.2500 Du        
   1100 ****        48.0000  70.5000  10.5000 Du        
   1101 ****        48.0000  70.5000  10.7500 Du        
   1102 ****        48.0000  70.5000  11.0000 Du        
   1103 ****        48.0000  70.5000  11.2500 Du        
   1104 ****        48.0000  70.5000  11.5000 Du        
   1105 ****        48.0000  70.5000  11.7500 Du        
   1106 ****        48.0000  70.5000  12.0000 Du        
   1107 ****        48.0000  70.7500  11.0000 Du        
   1108 ****        48.0000  70.7500  11.2500 Du        
   1109 ****        48.0000  70.7500  11.5000 Du        
   1110 ****        48.0000  70.7500  11.7500 Du        
   1111 ****        48.0000  70.7500  12.0000 Du        
   1112 ****        48.0000  71.0000  11.0000 Du        
   1113 ****        48.0000  71.0000  11.2500 Du        
   1114 ****        48.0000  71.0000  11.5000 Du        
   1115 ****        48.0000  71.0000  11.7500 Du        
   1116 ****        48.0000  71.2500  11.0000 Du        
   1117 ****        48.0000  71.2500  11.2500 Du        
   1118 ****        48.0000  71.2500  11.5000 Du        
   1119 ****        48.0000  71.2500  11.7500 Du        
   1120 ****        48.0000  71.5000  11.0000 Du        
   1121 ****        48.0000  71.5000  11.2500 Du        
   1122 ****        48.0000  71.5000  11.5000 Du        
   1123 ****        48.0000  71.5000  11.7500 Du        
   1124 ****        48.0000  71.7500  11.5000 Du        
   1125 ****        48.2500  69.2500  10.5000 Du        
   1126 ****        48.2500  69.2500  10.7500 Du        
   1127 ****        48.2500  69.5000  10.5000 Du        
   1128 ****        48.2500  69.5000  10.7500 Du        
   1129 ****        48.2500  69.5000  11.0000 Du        
   1130 ****        48.2500  69.5000  11.2500 Du        
   1131 ****        48.2500  69.7500  10.5000 Du        
   1132 ****        48.2500  69.7500  10.7500 Du        
   1133 ****        48.2500  69.7500  11.0000 Du        
   1134 ****        48.2500  69.7500  11.2500 Du        
   1135 ****        48.2500  69.7500  11.5000 Du        
   1136 ****        48.2500  69.7500  11.7500 Du        
   1137 ****        48.2500  70.0000  10.5000 Du        
   1138 ****        48.2500  70.0000  10.7500 Du        
   1139 ****        48.2500  70.0000  11.0000 Du        
   1140 ****        48.2500  70.0000  11.2500 Du        
   1141 ****        48.2500  70.0000  11.5000 Du        
   1142 ****        48.2500  70.0000  11.7500 Du        
   1143 ****        48.2500  70.0000  12.0000 Du        
   1144 ****        48.2500  70.2500  10.5000 Du        
   1145 ****        48.2500  70.2500  10.7500 Du        
   1146 ****        48.2500  70.2500  11.0000 Du        
   1147 ****        48.2500  70.2500  11.2500 Du        
   1148 ****        48.2500  70.2500  11.5000 Du        
   1149 ****        48.2500  70.2500  11.7500 Du        
   1150 ****        48.2500  70.2500  12.0000 Du        
   1151 ****        48.2500  70.5000  10.5000 Du        
   1152 ****        48.2500  70.5000  10.7500 Du        
   1153 ****        48.2500  70.5000  11.0000 Du        
   1154 ****        48.2500  70.5000  11.2500 Du        
   1155 ****        48.2500  70.5000  11.5000 Du        
   1156 ****        48.2500  70.5000  11.7500 Du        
   1157 ****        48.2500  70.5000  12.0000 Du        
   1158 ****        48.2500  70.7500  11.0000 Du        
   1159 ****        48.2500  70.7500  11.2500 Du        
   1160 ****        48.2500  70.7500  11.5000 Du        
   1161 ****        48.2500  70.7500  11.7500 Du        
   1162 ****        48.2500  70.7500  12.0000 Du        
   1163 ****        48.2500  71.0000  11.0000 Du        
   1164 ****        48.2500  71.0000  11.2500 Du        
   1165 ****        48.2500  71.0000  11.5000 Du        
   1166 ****        48.2500  71.0000  11.7500 Du        
   1167 ****        48.2500  71.0000  12.0000 Du        
   1168 ****        48.2500  71.2500  11.0000 Du        
   1169 ****        48.2500  71.2500  11.2500 Du        
   1170 ****        48.2500  71.2500  11.5000 Du        
   1171 ****        48.2500  71.2500  11.7500 Du        
   1172 ****        48.2500  71.5000  11.0000 Du        
   1173 ****        48.2500  71.5000  11.2500 Du        
   1174 ****        48.2500  71.5000  11.5000 Du        
   1175 ****        48.2500  71.5000  11.7500 Du        
   1176 ****        48.5000  69.2500  10.5000 Du        
   1177 ****        48.5000  69.5000  10.5000 Du        
   1178 ****        48.5000  69.5000  10.7500 Du        
   1179 ****        48.5000  69.7500  10.5000 Du        
   1180 ****        48.5000  69.7500  10.7500 Du        
   1181 ****        48.5000  69.7500  11.0000 Du        
   1182 ****        48.5000  69.7500  11.2500 Du        
   1183 ****        48.5000  70.0000  10.5000 Du        
   1184 ****        48.5000  70.0000  10.7500 Du        
   1185 ****        48.5000  70.0000  11.0000 Du        
   1186 ****        48.5000  70.0000  11.2500 Du        
   1187 ****        48.5000  70.0000  11.5000 Du        
   1188 ****        48.5000  70.2500  11.0000 Du        
   1189 ****        48.5000  70.2500  11.2500 Du        
   1190 ****        48.5000  70.2500  11.5000 Du        
   1191 ****        48.5000  70.5000  11.0000 Du        
   1192 ****        48.5000  70.5000  11.2500 Du        
   1193 ****        48.5000  70.5000  11.5000 Du        
   1194 ****        48.5000  70.5000  11.7500 Du        
   1195 ****        48.5000  70.7500  11.0000 Du        
   1196 ****        48.5000  70.7500  11.2500 Du        
   1197 ****        48.5000  70.7500  11.5000 Du        
   1198 ****        48.5000  70.7500  11.7500 Du        
   1199 ****        48.5000  71.0000  11.0000 Du        
   1200 ****        48.5000  71.0000  11.2500 Du        
   1201 ****        48.5000  71.0000  11.5000 Du        
   1202 ****        48.5000  71.0000  11.7500 Du        
   1203 ****        48.5000  71.2500  11.5000 Du        
   1204 ****        48.5000  71.2500  11.7500 Du        
   1205 ****        48.7500  69.5000  10.5000 Du        
   1206 ****        48.7500  69.7500  10.5000 Du        
   1207 ****        48.7500  69.7500  10.7500 Du        
   1208 ****        48.7500  70.0000  10.5000 Du        
   1209 ****        48.7500  70.0000  10.7500 Du        
   1210 ****        48.7500  70.5000  11.0000 Du        
   1211 ****        48.7500  70.7500  11.0000 Du        
   1212 ****        48.7500  71.0000  11.0000 Du        
