#       Name:                CT1002167954
#       Creating user name   hitesit
#       Creation time:       Sun Apr 16 02:21:50 2023


#       File generated by GOLD software.
#

@<TRIPOS>MOLECULE
CT1002167954|ligand_prepared|mol2|1|dock2
    29    30     1
SMALL
NO_CHARGES


@<TRIPOS>ATOM
      1 C1          43.4455  66.8360  14.0170 C.3            1 RES1               0.0000
      2 C2          43.8317  65.6671  14.9461 C.ar           1 RES1               0.0000
      3 C3          44.3026  68.0239  14.4441 C.2            1 RES1               0.0000
      4 C4          43.7118  66.3562  12.5945 C.2            1 RES1               0.0000
      5 C5          41.9571  67.2446  14.1126 C.3            1 RES1               0.0000
      6 C6          43.3320  65.5980  16.2431 C.ar           1 RES1               0.0000
      7 C7          44.6829  64.6508  14.5203 C.ar           1 RES1               0.0000
      8 N8          45.3374  68.3813  13.6308 N.am           1 RES1               0.0000
      9 O9          44.0981  68.6133  15.4981 O.2            1 RES1               0.0000
     10 N10         44.6991  66.9825  11.8798 N.am           1 RES1               0.0000
     11 O11         43.0868  65.4304  12.0919 O.2            1 RES1               0.0000
     12 C12         40.9957  66.0666  14.0988 C.3            1 RES1               0.0000
     13 C13         43.6687  64.5494  17.0831 C.ar           1 RES1               0.0000
     14 C14         45.0185  63.6033  15.3620 C.ar           1 RES1               0.0000
     15 C15         45.5447  67.9528  12.3442 C.2            1 RES1               0.0000
     16 C16         44.5117  63.5512  16.6430 C.ar           1 RES1               0.0000
     17 O17         46.4443  68.4294  11.6581 O.2            1 RES1               0.0000
     18 H18         41.8058  67.8131  15.0385 H              1 RES1               0.0000
     19 H19         41.7176  67.9056  13.2704 H              1 RES1               0.0000
     20 H20         42.6692  66.3756  16.6078 H              1 RES1               0.0000
     21 H21         45.0944  64.6717  13.5169 H              1 RES1               0.0000
     22 H22         46.0203  69.0267  14.0147 H              1 RES1               0.0000
     23 H23         44.8143  66.6992  10.9119 H              1 RES1               0.0000
     24 H24         39.9653  66.4088  14.1681 H              1 RES1               0.0000
     25 H25         41.1013  65.4932  13.1802 H              1 RES1               0.0000
     26 H26         41.1890  65.4013  14.9378 H              1 RES1               0.0000
     27 H27         43.2682  64.5138  18.0909 H              1 RES1               0.0000
     28 H28         45.6828  62.8202  15.0116 H              1 RES1               0.0000
     29 H29         44.7749  62.7298  17.3011 H              1 RES1               0.0000
@<TRIPOS>BOND
    1    1    2 1     
    2    1    3 1     
    3    1    4 1     
    4    1    5 1     
    5    2    6 ar    
    6    2    7 ar    
    7    3    8 1     
    8    3    9 2     
    9    4   10 1     
   10    4   11 2     
   11    5   12 1     
   12    5   18 1     
   13    5   19 1     
   14    6   13 ar    
   15    6   20 1     
   16    7   14 ar    
   17    7   21 1     
   18    8   15 1     
   19    8   22 1     
   20   10   15 1     
   21   10   23 1     
   22   12   24 1     
   23   12   25 1     
   24   12   26 1     
   25   13   16 ar    
   26   13   27 1     
   27   14   16 ar    
   28   14   28 1     
   29   15   17 2     
   30   16   29 1     
@<TRIPOS>SUBSTRUCTURE
      1 RES1           1
@<TRIPOS>SET
DONOR_HYDROGENS      STATIC     ATOMS    <user>   **** ""
2 22 23
ATOM$RED        STATIC     ATOMS    COLORGROUP SYSTEM
2 22 23
@<TRIPOS>COMMENT
> <Gold.Version>
2022.3.0

> <Gold.Id.Protein>
unknown|4r3c_clean|pdb

> <Gold.Protein.RotatedTorsions>
[  649  644  642  639 ] final  -39.59 input   60.03 | X-H torsion
[   62   61   59   56 ] final   96.40 input   59.99 | X-H torsion
[  665  660  659  658 ] final   83.72 input   59.98 | X-H torsion

> <Gold.Protein.ActiveResidues>
 PRO6    THR7    PHE8    TYR9    PRO21   GLU22   ARG23   TYR24   GLN25   ASN26  
 PHE42   ASP43   THR44   LYS45   THR46   GLY47  

> <Gold.Protein.RotatedAtoms>
   38.0616   69.3144   14.1494 H   0  0  0  0  0  0  0  0  0  0  0  0  # atno 62   bound_to 61  
   47.1122   64.4000   18.6209 H   0  0  0  0  0  0  0  0  0  0  0  0  # atno 649  bound_to 644 
   49.6822   63.8448   10.0105 H   0  0  0  0  0  0  0  0  0  0  0  0  # atno 665  bound_to 660 
   48.3217   63.2519    9.2720 H   0  0  0  0  0  0  0  0  0  0  0  0  # atno 666  bound_to 660 
   48.1861   64.3900   10.4692 H   0  0  0  0  0  0  0  0  0  0  0  0  # atno 667  bound_to 660 
   45.5393   64.2535   19.0116 LP  0  0  0  0  0  0  0  0  0  0  0  0  # atno 5661 bound_to 644 
   46.2173   63.2226   17.9419 LP  0  0  0  0  0  0  0  0  0  0  0  0  # atno 5662 bound_to 644 
   37.7124   70.8025   13.5911 LP  0  0  0  0  0  0  0  0  0  0  0  0  # atno 5677 bound_to 61  
   36.8790   70.1840   14.8519 LP  0  0  0  0  0  0  0  0  0  0  0  0  # atno 5678 bound_to 61  

> <Gold.Score>
     Fitness  S(hb_ext) S(vdw_ext)  S(hb_int)    S(int)      intcor
     31.24       0.43      24.53       0.00      -2.93      -0.77

> <Gold.Goldscore.Fitness>
31.2387

> <Gold.Goldscore.Internal.Vdw>
-3.0120

> <Gold.Goldscore.Internal.Torsion>
-0.6826

> <Gold.Goldscore.External.Vdw>
24.5319

> <Gold.Goldscore.Internal.HBond>
0.0000

> <Gold.Goldscore.External.HBond>
0.4332

> <Gold.Goldscore.Internal.Correction>
-0.7686

> <Gold.Goldscore.Hbonds>
donor molecule, donor type, donor heavy atom, donor atom, acceptor molecule, acceptor atom, score
      P1  H   338   353       L1     9  0.22

> <Gold.Goldscore.Internal.Vdw.Weighted>
-3.0120

> <Gold.Goldscore.Internal.Torsion.Weighted>
-0.6826

> <Gold.Goldscore.External.Vdw.Weighted>
33.7314

> <Gold.Goldscore.Internal.HBond.Weighted>
0.0000

> <Gold.Goldscore.External.HBond.Weighted>
0.4332

> <Gold.Goldscore.Internal.Correction.Weighted>
-0.7686

> <Gold.Rescore>
     Score     S(PLP)   S(hbond)     S(cho)   S(metal)  DE(clash)   DE(tors)     intcor
     31.86     -30.57       0.98       0.00       0.00       0.00       0.82       ----

> <Gold.PLP.Fitness>
31.8610

> <Gold.PLP.PLP>
-30.5717

> <Gold.PLP.part.hbond>
-2.0000

> <Gold.PLP.part.metal>
0.0000

> <Gold.PLP.part.buried>
-2.4731

> <Gold.PLP.part.nonpolar>
-27.5403

> <Gold.PLP.part.repulsive>
0.1614

> <Gold.PLP.ligand.clash>
0.0000

> <Gold.PLP.ligand.torsion>
0.8194

> <Gold.PLP.Chemscore.Hbond>
0.9760

> <Gold.PLP.Chemscore.CHOScore>
0.0000

> <Gold.PLP.Chemscore.Metal>
0.0000

> <Gold.Chemscore.Hbonds>
donor molecule, donor type, donor heavy atom, donor atom, acceptor molecule, acceptor atom, score
      P1  H   338   353       L1     9  1.00

> <Gold.PLP.Chemscore.Internal.Correction>
   9.000000E+99

