#       Name:                CT1002167954
#       Creating user name   hitesit
#       Creation time:       Sun Apr 16 02:21:49 2023


#       File generated by GOLD software.
#

@<TRIPOS>MOLECULE
CT1002167954|ligand_prepared|mol2|1|dock1
    29    30     1
SMALL
NO_CHARGES


@<TRIPOS>ATOM
      1 C1          42.3920  66.4329  14.6563 C.3            1 RES1               0.0000
      2 C2          43.4728  66.8641  13.6441 C.ar           1 RES1               0.0000
      3 C3          41.3767  67.5708  14.7097 C.2            1 RES1               0.0000
      4 C4          41.8239  65.1161  14.1389 C.2            1 RES1               0.0000
      5 C5          42.9342  66.1911  16.0843 C.3            1 RES1               0.0000
      6 C6          43.4783  66.3494  12.3511 C.ar           1 RES1               0.0000
      7 C7          44.4675  67.7760  13.9871 C.ar           1 RES1               0.0000
      8 N8          40.1718  67.3715  14.1027 N.am           1 RES1               0.0000
      9 O9          41.6438  68.6411  15.2420 O.2            1 RES1               0.0000
     10 N10         40.5146  65.0962  13.7349 N.am           1 RES1               0.0000
     11 O11         42.5030  64.0996  14.0617 O.2            1 RES1               0.0000
     12 C12         41.9066  65.6043  17.0391 C.3            1 RES1               0.0000
     13 C13         44.4415  66.7346  11.4333 C.ar           1 RES1               0.0000
     14 C14         45.4299  68.1597  13.0679 C.ar           1 RES1               0.0000
     15 C15         39.6717  66.1717  13.6646 C.2            1 RES1               0.0000
     16 C16         45.4175  67.6402  11.7909 C.ar           1 RES1               0.0000
     17 O17         38.5235  66.0848  13.2386 O.2            1 RES1               0.0000
     18 H18         43.7915  65.5093  16.0256 H              1 RES1               0.0000
     19 H19         43.2914  67.1446  16.4925 H              1 RES1               0.0000
     20 H20         42.7196  65.6338  12.0523 H              1 RES1               0.0000
     21 H21         44.4974  68.1969  14.9864 H              1 RES1               0.0000
     22 H22         39.5888  68.1903  13.9613 H              1 RES1               0.0000
     23 H23         40.1330  64.1962  13.4615 H              1 RES1               0.0000
     24 H24         42.3386  65.4546  18.0264 H              1 RES1               0.0000
     25 H25         41.0509  66.2686  17.1409 H              1 RES1               0.0000
     26 H26         41.5481  64.6430  16.6767 H              1 RES1               0.0000
     27 H27         44.4282  66.3218  10.4300 H              1 RES1               0.0000
     28 H28         46.1965  68.8722  13.3538 H              1 RES1               0.0000
     29 H29         46.1717  67.9421  11.0716 H              1 RES1               0.0000
@<TRIPOS>BOND
    1    1    2 1     
    2    1    3 1     
    3    1    4 1     
    4    1    5 1     
    5    2    6 ar    
    6    2    7 ar    
    7    3    8 1     
    8    3    9 2     
    9    4   10 1     
   10    4   11 2     
   11    5   12 1     
   12    5   18 1     
   13    5   19 1     
   14    6   13 ar    
   15    6   20 1     
   16    7   14 ar    
   17    7   21 1     
   18    8   15 1     
   19    8   22 1     
   20   10   15 1     
   21   10   23 1     
   22   12   24 1     
   23   12   25 1     
   24   12   26 1     
   25   13   16 ar    
   26   13   27 1     
   27   14   16 ar    
   28   14   28 1     
   29   15   17 2     
   30   16   29 1     
@<TRIPOS>SUBSTRUCTURE
      1 RES1           1
@<TRIPOS>SET
DONOR_HYDROGENS      STATIC     ATOMS    <user>   **** ""
2 22 23
ATOM$RED        STATIC     ATOMS    COLORGROUP SYSTEM
2 22 23
@<TRIPOS>COMMENT
> <Gold.Version>
2022.3.0

> <Gold.Id.Protein>
unknown|4r3c_clean|pdb

> <Gold.Protein.RotatedTorsions>
[  649  644  642  639 ] final -132.04 input   60.03 | X-H torsion
[   62   61   59   56 ] final  158.18 input   59.99 | X-H torsion
[  665  660  659  658 ] final  -53.97 input   59.98 | X-H torsion

> <Gold.Protein.ActiveResidues>
 PRO6    THR7    PHE8    TYR9    PRO21   GLU22   ARG23   TYR24   GLN25   ASN26  
 PHE42   ASP43   THR44   LYS45   THR46   GLY47  

> <Gold.Protein.RotatedAtoms>
   37.3727   69.4156   14.8122 H   0  0  0  0  0  0  0  0  0  0  0  0  # atno 62   bound_to 61  
   45.8686   64.5302   19.1352 H   0  0  0  0  0  0  0  0  0  0  0  0  # atno 649  bound_to 644 
   47.9724   64.2599   10.3137 H   0  0  0  0  0  0  0  0  0  0  0  0  # atno 665  bound_to 660 
   49.6130   64.0436   10.2166 H   0  0  0  0  0  0  0  0  0  0  0  0  # atno 666  bound_to 660 
   48.6032   63.1842    9.2224 H   0  0  0  0  0  0  0  0  0  0  0  0  # atno 667  bound_to 660 
   45.8042   63.2659   18.1128 LP  0  0  0  0  0  0  0  0  0  0  0  0  # atno 5661 bound_to 644 
   47.2046   64.0791   18.3229 LP  0  0  0  0  0  0  0  0  0  0  0  0  # atno 5662 bound_to 644 
   38.2303   69.9856   13.5521 LP  0  0  0  0  0  0  0  0  0  0  0  0  # atno 5677 bound_to 61  
   37.0550   70.8991   14.2236 LP  0  0  0  0  0  0  0  0  0  0  0  0  # atno 5678 bound_to 61  

> <Gold.Score>
     Fitness  S(hb_ext) S(vdw_ext)  S(hb_int)    S(int)      intcor
     25.55       0.86      18.89       0.00      -1.28      -0.77

> <Gold.Goldscore.Fitness>
25.5470

> <Gold.Goldscore.Internal.Vdw>
-1.6060

> <Gold.Goldscore.Internal.Torsion>
-0.4451

> <Gold.Goldscore.External.Vdw>
18.8889

> <Gold.Goldscore.Internal.HBond>
0.0000

> <Gold.Goldscore.External.HBond>
0.8573

> <Gold.Goldscore.Internal.Correction>
-0.7686

> <Gold.Goldscore.Hbonds>
donor molecule, donor type, donor heavy atom, donor atom, acceptor molecule, acceptor atom, score
      P1  H    55    67       L1     9  0.10
      L1  H     8    22       P1    61  0.33

> <Gold.Goldscore.Internal.Vdw.Weighted>
-1.6060

> <Gold.Goldscore.Internal.Torsion.Weighted>
-0.4451

> <Gold.Goldscore.External.Vdw.Weighted>
25.9723

> <Gold.Goldscore.Internal.HBond.Weighted>
0.0000

> <Gold.Goldscore.External.HBond.Weighted>
0.8573

> <Gold.Goldscore.Internal.Correction.Weighted>
-0.7686

> <Gold.Rescore>
     Score     S(PLP)   S(hbond)     S(cho)   S(metal)  DE(clash)   DE(tors)     intcor
     27.36     -26.79       0.98       0.00       0.00       0.58       0.89       ----

> <Gold.PLP.Fitness>
27.3574

> <Gold.PLP.PLP>
-26.7869

> <Gold.PLP.part.hbond>
-1.0000

> <Gold.PLP.part.metal>
0.0000

> <Gold.PLP.part.buried>
-3.3764

> <Gold.PLP.part.nonpolar>
-23.6103

> <Gold.PLP.part.repulsive>
0.1666

> <Gold.PLP.ligand.clash>
0.5805

> <Gold.PLP.ligand.torsion>
0.8885

> <Gold.PLP.Chemscore.Hbond>
0.9760

> <Gold.PLP.Chemscore.CHOScore>
0.0000

> <Gold.PLP.Chemscore.Metal>
0.0000

> <Gold.Chemscore.Hbonds>
donor molecule, donor type, donor heavy atom, donor atom, acceptor molecule, acceptor atom, score
      P1  H    55    67       L1     9  0.39

> <Gold.PLP.Chemscore.Internal.Correction>
   9.000000E+99

