#       Name:                CT1002167954
#       Creating user name   hitesit
#       Creation time:       Sun Apr 16 02:21:56 2023


#       File generated by GOLD software.
#

@<TRIPOS>MOLECULE
CT1002167954|ligand_prepared|mol2|1|dock9
    29    30     1
SMALL
NO_CHARGES


@<TRIPOS>ATOM
      1 C1          41.9573  64.3596  17.1547 C.3            1 RES1               0.0000
      2 C2          42.4882  65.3617  16.1094 C.ar           1 RES1               0.0000
      3 C3          42.7453  64.6187  18.4355 C.2            1 RES1               0.0000
      4 C4          40.4614  64.6262  17.2800 C.2            1 RES1               0.0000
      5 C5          42.1466  62.8783  16.7527 C.3            1 RES1               0.0000
      6 C6          43.6457  65.0861  15.3876 C.ar           1 RES1               0.0000
      7 C7          41.8311  66.5624  15.8544 C.ar           1 RES1               0.0000
      8 N8          42.1008  65.2529  19.4564 N.am           1 RES1               0.0000
      9 O9          43.9256  64.3067  18.5337 O.2            1 RES1               0.0000
     10 N10         39.9927  65.1076  18.4743 N.am           1 RES1               0.0000
     11 O11         39.6866  64.4395  16.3498 O.2            1 RES1               0.0000
     12 C12         41.4210  61.8988  17.6617 C.3            1 RES1               0.0000
     13 C13         44.1273  65.9772  14.4430 C.ar           1 RES1               0.0000
     14 C14         42.3146  67.4523  14.9095 C.ar           1 RES1               0.0000
     15 C15         40.7490  65.4621  19.5581 C.2            1 RES1               0.0000
     16 C16         43.4619  67.1605  14.2029 C.ar           1 RES1               0.0000
     17 O17         40.2597  65.9396  20.5778 O.2            1 RES1               0.0000
     18 H18         41.7846  62.7420  15.7262 H              1 RES1               0.0000
     19 H19         43.2181  62.6434  16.7644 H              1 RES1               0.0000
     20 H20         44.1842  64.1610  15.5646 H              1 RES1               0.0000
     21 H21         40.9273  66.8134  16.3990 H              1 RES1               0.0000
     22 H22         42.6774  65.6043  20.2143 H              1 RES1               0.0000
     23 H23         38.9869  65.2112  18.5637 H              1 RES1               0.0000
     24 H24         41.5869  60.8743  17.3353 H              1 RES1               0.0000
     25 H25         41.7744  61.9894  18.6867 H              1 RES1               0.0000
     26 H26         40.3494  62.0874  17.6547 H              1 RES1               0.0000
     27 H27         45.0314  65.7435  13.8906 H              1 RES1               0.0000
     28 H28         41.7880  68.3827  14.7243 H              1 RES1               0.0000
     29 H29         43.8392  67.8582  13.4626 H              1 RES1               0.0000
@<TRIPOS>BOND
    1    1    2 1     
    2    1    3 1     
    3    1    4 1     
    4    1    5 1     
    5    2    6 ar    
    6    2    7 ar    
    7    3    8 1     
    8    3    9 2     
    9    4   10 1     
   10    4   11 2     
   11    5   12 1     
   12    5   18 1     
   13    5   19 1     
   14    6   13 ar    
   15    6   20 1     
   16    7   14 ar    
   17    7   21 1     
   18    8   15 1     
   19    8   22 1     
   20   10   15 1     
   21   10   23 1     
   22   12   24 1     
   23   12   25 1     
   24   12   26 1     
   25   13   16 ar    
   26   13   27 1     
   27   14   16 ar    
   28   14   28 1     
   29   15   17 2     
   30   16   29 1     
@<TRIPOS>SUBSTRUCTURE
      1 RES1           1
@<TRIPOS>SET
DONOR_HYDROGENS      STATIC     ATOMS    <user>   **** ""
2 22 23
ATOM$RED        STATIC     ATOMS    COLORGROUP SYSTEM
2 22 23
@<TRIPOS>COMMENT
> <Gold.Version>
2022.3.0

> <Gold.Id.Protein>
unknown|4r3c_clean|pdb

> <Gold.Protein.RotatedTorsions>
[  649  644  642  639 ] final  171.16 input   60.03 | X-H torsion
[   62   61   59   56 ] final   40.17 input   59.99 | X-H torsion
[  665  660  659  658 ] final  175.73 input   59.98 | X-H torsion

> <Gold.Protein.ActiveResidues>
 PRO6    THR7    PHE8    TYR9    PRO21   GLU22   ARG23   TYR24   GLN25   ASN26  
 PHE42   ASP43   THR44   LYS45   THR46   GLY47  

> <Gold.Protein.RotatedAtoms>
   38.2331   69.9577   13.5703 H   0  0  0  0  0  0  0  0  0  0  0  0  # atno 62   bound_to 61  
   45.3883   63.8815   18.7590 H   0  0  0  0  0  0  0  0  0  0  0  0  # atno 649  bound_to 644 
   48.7748   63.1718    9.2228 H   0  0  0  0  0  0  0  0  0  0  0  0  # atno 665  bound_to 660 
   47.8804   64.1638   10.2047 H   0  0  0  0  0  0  0  0  0  0  0  0  # atno 666  bound_to 660 
   49.5334   64.1508   10.3237 H   0  0  0  0  0  0  0  0  0  0  0  0  # atno 667  bound_to 660 
   46.6716   63.3593   17.9055 LP  0  0  0  0  0  0  0  0  0  0  0  0  # atno 5661 bound_to 644 
   46.8207   64.6389   18.9090 LP  0  0  0  0  0  0  0  0  0  0  0  0  # atno 5662 bound_to 644 
   37.0726   70.9102   14.1982 LP  0  0  0  0  0  0  0  0  0  0  0  0  # atno 5677 bound_to 61  
   37.3463   69.4286   14.8280 LP  0  0  0  0  0  0  0  0  0  0  0  0  # atno 5678 bound_to 61  

> <Gold.Score>
     Fitness  S(hb_ext) S(vdw_ext)  S(hb_int)    S(int)      intcor
     22.67       2.00      15.67       0.00      -0.88      -0.76

> <Gold.Goldscore.Fitness>
22.6727

> <Gold.Goldscore.Internal.Vdw>
-1.1226

> <Gold.Goldscore.Internal.Torsion>
-0.5118

> <Gold.Goldscore.External.Vdw>
15.6718

> <Gold.Goldscore.Internal.HBond>
0.0000

> <Gold.Goldscore.External.HBond>
2.0000

> <Gold.Goldscore.Internal.Correction>
-0.7585

> <Gold.Goldscore.Hbonds>
donor molecule, donor type, donor heavy atom, donor atom, acceptor molecule, acceptor atom, score
      P1  H   644   649       L1     9  1.00

> <Gold.Goldscore.Internal.Vdw.Weighted>
-1.1226

> <Gold.Goldscore.Internal.Torsion.Weighted>
-0.5118

> <Gold.Goldscore.External.Vdw.Weighted>
21.5487

> <Gold.Goldscore.Internal.HBond.Weighted>
0.0000

> <Gold.Goldscore.External.HBond.Weighted>
2.0000

> <Gold.Goldscore.Internal.Correction.Weighted>
-0.7585

> <Gold.Rescore>
     Score     S(PLP)   S(hbond)     S(cho)   S(metal)  DE(clash)   DE(tors)     intcor
     29.74     -28.37       1.00       0.00       0.00       0.01       0.81       ----

> <Gold.PLP.Fitness>
29.7359

> <Gold.PLP.PLP>
-28.3714

> <Gold.PLP.part.hbond>
-1.1622

> <Gold.PLP.part.metal>
0.0000

> <Gold.PLP.part.buried>
-5.0886

> <Gold.PLP.part.nonpolar>
-23.0090

> <Gold.PLP.part.repulsive>
0.3197

> <Gold.PLP.ligand.clash>
0.0082

> <Gold.PLP.ligand.torsion>
0.8137

> <Gold.PLP.Chemscore.Hbond>
1.0000

> <Gold.PLP.Chemscore.CHOScore>
0.0000

> <Gold.PLP.Chemscore.Metal>
0.0000

> <Gold.Chemscore.Hbonds>
donor molecule, donor type, donor heavy atom, donor atom, acceptor molecule, acceptor atom, score
      P1  H   644   649       L1     9  0.84

> <Gold.PLP.Chemscore.Internal.Correction>
   9.000000E+99

