#       Name:                CT1002167954
#       Creating user name   hitesit
#       Creation time:       Sun Apr 16 02:21:57 2023


#       File generated by GOLD software.
#

@<TRIPOS>MOLECULE
CT1002167954|ligand_prepared|mol2|1|dock10
    29    30     1
SMALL
NO_CHARGES


@<TRIPOS>ATOM
      1 C1          44.4593  66.1864  12.6588 C.3            1 RES1               0.0000
      2 C2          45.5772  67.1674  12.2504 C.ar           1 RES1               0.0000
      3 C3          43.7560  66.8138  13.8588 C.2            1 RES1               0.0000
      4 C4          43.5686  66.0202  11.4326 C.2            1 RES1               0.0000
      5 C5          44.9748  64.7870  13.0681 C.3            1 RES1               0.0000
      6 C6          45.6317  68.4465  12.7960 C.ar           1 RES1               0.0000
      7 C7          46.5607  66.8074  11.3330 C.ar           1 RES1               0.0000
      8 N8          42.5188  67.3507  13.6563 N.am           1 RES1               0.0000
      9 O9          44.2953  66.8720  14.9570 O.2            1 RES1               0.0000
     10 N10         42.2812  66.4836  11.5066 N.am           1 RES1               0.0000
     11 O11         43.9751  65.5071  10.3973 O.2            1 RES1               0.0000
     12 C12         43.8711  63.8181  13.4619 C.3            1 RES1               0.0000
     13 C13         46.6347  69.3327  12.4396 C.ar           1 RES1               0.0000
     14 C14         47.5628  67.6952  10.9778 C.ar           1 RES1               0.0000
     15 C15         41.7252  67.1690  12.5523 C.2            1 RES1               0.0000
     16 C16         47.6011  68.9575  11.5308 C.ar           1 RES1               0.0000
     17 O17         40.5768  67.6018  12.5229 O.2            1 RES1               0.0000
     18 H18         45.5379  64.3590  12.2295 H              1 RES1               0.0000
     19 H19         45.6651  64.8983  13.9134 H              1 RES1               0.0000
     20 H20         44.8784  68.7604  13.5109 H              1 RES1               0.0000
     21 H21         46.5499  65.8198  10.8844 H              1 RES1               0.0000
     22 H22         42.1494  67.9420  14.3941 H              1 RES1               0.0000
     23 H23         41.6816  66.3006  10.7082 H              1 RES1               0.0000
     24 H24         44.2871  62.8519  13.7399 H              1 RES1               0.0000
     25 H25         43.3064  64.2005  14.3097 H              1 RES1               0.0000
     26 H26         43.1799  63.6644  12.6358 H              1 RES1               0.0000
     27 H27         46.6596  70.3255  12.8766 H              1 RES1               0.0000
     28 H28         48.3210  67.3959  10.2617 H              1 RES1               0.0000
     29 H29         48.3870  69.6517  11.2521 H              1 RES1               0.0000
@<TRIPOS>BOND
    1    1    2 1     
    2    1    3 1     
    3    1    4 1     
    4    1    5 1     
    5    2    6 ar    
    6    2    7 ar    
    7    3    8 1     
    8    3    9 2     
    9    4   10 1     
   10    4   11 2     
   11    5   12 1     
   12    5   18 1     
   13    5   19 1     
   14    6   13 ar    
   15    6   20 1     
   16    7   14 ar    
   17    7   21 1     
   18    8   15 1     
   19    8   22 1     
   20   10   15 1     
   21   10   23 1     
   22   12   24 1     
   23   12   25 1     
   24   12   26 1     
   25   13   16 ar    
   26   13   27 1     
   27   14   16 ar    
   28   14   28 1     
   29   15   17 2     
   30   16   29 1     
@<TRIPOS>SUBSTRUCTURE
      1 RES1           1
@<TRIPOS>SET
DONOR_HYDROGENS      STATIC     ATOMS    <user>   **** ""
2 22 23
ATOM$RED        STATIC     ATOMS    COLORGROUP SYSTEM
2 22 23
@<TRIPOS>COMMENT
> <Gold.Version>
2022.3.0

> <Gold.Id.Protein>
unknown|4r3c_clean|pdb

> <Gold.Protein.RotatedTorsions>
[  649  644  642  639 ] final  145.50 input   60.03 | X-H torsion
[   62   61   59   56 ] final   52.15 input   59.99 | X-H torsion
[  665  660  659  658 ] final   24.92 input   59.98 | X-H torsion

> <Gold.Protein.ActiveResidues>
 PRO6    THR7    PHE8    TYR9    PRO21   GLU22   ARG23   TYR24   GLN25   ASN26  
 PHE42   ASP43   THR44   LYS45   THR46   GLY47  

> <Gold.Protein.RotatedAtoms>
   38.2508   69.7845   13.6589 H   0  0  0  0  0  0  0  0  0  0  0  0  # atno 62   bound_to 61  
   45.4405   63.5713   18.4868 H   0  0  0  0  0  0  0  0  0  0  0  0  # atno 649  bound_to 644 
   49.1560   64.3994   10.5570 H   0  0  0  0  0  0  0  0  0  0  0  0  # atno 665  bound_to 660 
   49.2574   63.2606    9.3566 H   0  0  0  0  0  0  0  0  0  0  0  0  # atno 666  bound_to 660 
   47.7765   63.8274    9.8388 H   0  0  0  0  0  0  0  0  0  0  0  0  # atno 667  bound_to 660 
   46.9941   63.6077   18.0042 LP  0  0  0  0  0  0  0  0  0  0  0  0  # atno 5661 bound_to 644 
   46.4457   64.7028   19.0843 LP  0  0  0  0  0  0  0  0  0  0  0  0  # atno 5662 bound_to 644 
   37.1896   70.9556   14.0468 LP  0  0  0  0  0  0  0  0  0  0  0  0  # atno 5677 bound_to 61  
   37.2113   69.5575   14.8902 LP  0  0  0  0  0  0  0  0  0  0  0  0  # atno 5678 bound_to 61  

> <Gold.Score>
     Fitness  S(hb_ext) S(vdw_ext)  S(hb_int)    S(int)      intcor
     25.20       0.03      19.89       0.00      -2.18      -0.76

> <Gold.Goldscore.Fitness>
25.2006

> <Gold.Goldscore.Internal.Vdw>
-2.5691

> <Gold.Goldscore.Internal.Torsion>
-0.3666

> <Gold.Goldscore.External.Vdw>
19.8906

> <Gold.Goldscore.Internal.HBond>
0.0000

> <Gold.Goldscore.External.HBond>
0.0282

> <Gold.Goldscore.Internal.Correction>
-0.7585

> <Gold.Goldscore.Hbonds>
donor molecule, donor type, donor heavy atom, donor atom, acceptor molecule, acceptor atom, score
      P1  H    55    67       L1    17  0.01

> <Gold.Goldscore.Internal.Vdw.Weighted>
-2.5691

> <Gold.Goldscore.Internal.Torsion.Weighted>
-0.3666

> <Gold.Goldscore.External.Vdw.Weighted>
27.3496

> <Gold.Goldscore.Internal.HBond.Weighted>
0.0000

> <Gold.Goldscore.External.HBond.Weighted>
0.0282

> <Gold.Goldscore.Internal.Correction.Weighted>
-0.7585

> <Gold.Rescore>
     Score     S(PLP)   S(hbond)     S(cho)   S(metal)  DE(clash)   DE(tors)     intcor
     29.89     -29.05       1.00       0.00       0.00       0.00       1.08       ----

> <Gold.PLP.Fitness>
29.8915

> <Gold.PLP.PLP>
-29.0483

> <Gold.PLP.part.hbond>
-1.0000

> <Gold.PLP.part.metal>
0.0000

> <Gold.PLP.part.buried>
-3.4055

> <Gold.PLP.part.nonpolar>
-25.0503

> <Gold.PLP.part.repulsive>
0.0004

> <Gold.PLP.ligand.clash>
0.0000

> <Gold.PLP.ligand.torsion>
1.0784

> <Gold.PLP.Chemscore.Hbond>
1.0000

> <Gold.PLP.Chemscore.CHOScore>
0.0000

> <Gold.PLP.Chemscore.Metal>
0.0000

> <Gold.Chemscore.Hbonds>
donor molecule, donor type, donor heavy atom, donor atom, acceptor molecule, acceptor atom, score
      P1  H   338   353       L1     9  0.04

> <Gold.PLP.Chemscore.Internal.Correction>
   9.000000E+99

