#       Name:                CT1002167954
#       Creating user name   hitesit
#       Creation time:       Sun Apr 16 02:21:53 2023


#       File generated by GOLD software.
#

@<TRIPOS>MOLECULE
CT1002167954|ligand_prepared|mol2|1|dock5
    29    30     1
SMALL
NO_CHARGES


@<TRIPOS>ATOM
      1 C1          47.6306  69.6147  10.8005 C.3            1 RES1               0.0000
      2 C2          46.7176  68.6308  11.5601 C.ar           1 RES1               0.0000
      3 C3          46.7224  70.4058   9.8637 C.2            1 RES1               0.0000
      4 C4          48.3199  70.4639  11.8627 C.2            1 RES1               0.0000
      5 C5          48.7265  68.9247   9.9553 C.3            1 RES1               0.0000
      6 C6          46.4213  68.8331  12.9048 C.ar           1 RES1               0.0000
      7 C7          46.1631  67.5197  10.9303 C.ar           1 RES1               0.0000
      8 N8          46.4487  71.7006  10.1933 N.am           1 RES1               0.0000
      9 O9          46.2221  69.8896   8.8720 O.2            1 RES1               0.0000
     10 N10         48.0257  71.8016  11.9058 N.am           1 RES1               0.0000
     11 O11         49.1025  69.9837  12.6734 O.2            1 RES1               0.0000
     12 C12         49.4985  69.8776   9.0563 C.3            1 RES1               0.0000
     13 C13         45.5982  67.9581  13.5940 C.ar           1 RES1               0.0000
     14 C14         45.3403  66.6458  11.6215 C.ar           1 RES1               0.0000
     15 C15         47.0981  72.4526  11.1390 C.2            1 RES1               0.0000
     16 C16         45.0568  66.8643  12.9529 C.ar           1 RES1               0.0000
     17 O17         46.8504  73.6475  11.2737 O.2            1 RES1               0.0000
     18 H18         49.4327  68.4269  10.6313 H              1 RES1               0.0000
     19 H19         48.2582  68.1528   9.3321 H              1 RES1               0.0000
     20 H20         46.8402  69.6870  13.4267 H              1 RES1               0.0000
     21 H21         46.3733  67.3274   9.8836 H              1 RES1               0.0000
     22 H22         45.6911  72.1513   9.6901 H              1 RES1               0.0000
     23 H23         48.5465  72.3642  12.5711 H              1 RES1               0.0000
     24 H24         50.2545  69.3424   8.4857 H              1 RES1               0.0000
     25 H25         48.8304  70.3717   8.3539 H              1 RES1               0.0000
     26 H26         49.9979  70.6441   9.6453 H              1 RES1               0.0000
     27 H27         45.3792  68.1337  14.6421 H              1 RES1               0.0000
     28 H28         44.9170  65.7859  11.1130 H              1 RES1               0.0000
     29 H29         44.4116  66.1792  13.4929 H              1 RES1               0.0000
@<TRIPOS>BOND
    1    1    2 1     
    2    1    3 1     
    3    1    4 1     
    4    1    5 1     
    5    2    6 ar    
    6    2    7 ar    
    7    3    8 1     
    8    3    9 2     
    9    4   10 1     
   10    4   11 2     
   11    5   12 1     
   12    5   18 1     
   13    5   19 1     
   14    6   13 ar    
   15    6   20 1     
   16    7   14 ar    
   17    7   21 1     
   18    8   15 1     
   19    8   22 1     
   20   10   15 1     
   21   10   23 1     
   22   12   24 1     
   23   12   25 1     
   24   12   26 1     
   25   13   16 ar    
   26   13   27 1     
   27   14   16 ar    
   28   14   28 1     
   29   15   17 2     
   30   16   29 1     
@<TRIPOS>SUBSTRUCTURE
      1 RES1           1
@<TRIPOS>SET
DONOR_HYDROGENS      STATIC     ATOMS    <user>   **** ""
2 22 23
ATOM$RED        STATIC     ATOMS    COLORGROUP SYSTEM
2 22 23
@<TRIPOS>COMMENT
> <Gold.Version>
2022.3.0

> <Gold.Id.Protein>
unknown|4r3c_clean|pdb

> <Gold.Protein.RotatedTorsions>
[  649  644  642  639 ] final -118.92 input   60.03 | X-H torsion
[   62   61   59   56 ] final   44.74 input   59.99 | X-H torsion
[  665  660  659  658 ] final  -16.39 input   59.98 | X-H torsion

> <Gold.Protein.ActiveResidues>
 PRO6    THR7    PHE8    TYR9    PRO21   GLU22   ARG23   TYR24   GLN25   ASN26  
 PHE42   ASP43   THR44   LYS45   THR46   GLY47  

> <Gold.Protein.RotatedAtoms>
   38.2434   69.8905   13.6011 H   0  0  0  0  0  0  0  0  0  0  0  0  # atno 62   bound_to 61  
   46.0619   64.6211   19.1467 H   0  0  0  0  0  0  0  0  0  0  0  0  # atno 649  bound_to 644 
   48.4852   64.4734   10.5816 H   0  0  0  0  0  0  0  0  0  0  0  0  # atno 665  bound_to 660 
   49.6520   63.6201    9.7701 H   0  0  0  0  0  0  0  0  0  0  0  0  # atno 666  bound_to 660 
   48.0521   63.3942    9.4010 H   0  0  0  0  0  0  0  0  0  0  0  0  # atno 667  bound_to 660 
   45.6413   63.3439   18.2302 LP  0  0  0  0  0  0  0  0  0  0  0  0  # atno 5661 bound_to 644 
   47.1728   63.9096   18.1939 LP  0  0  0  0  0  0  0  0  0  0  0  0  # atno 5662 bound_to 644 
   37.1150   70.9318   14.1400 LP  0  0  0  0  0  0  0  0  0  0  0  0  # atno 5677 bound_to 61  
   37.2934   69.4746   14.8552 LP  0  0  0  0  0  0  0  0  0  0  0  0  # atno 5678 bound_to 61  

> <Gold.Score>
     Fitness  S(hb_ext) S(vdw_ext)  S(hb_int)    S(int)      intcor
     29.61       0.00      23.93       0.00      -3.29      -0.77

> <Gold.Goldscore.Fitness>
29.6136

> <Gold.Goldscore.Internal.Vdw>
-3.5815

> <Gold.Goldscore.Internal.Torsion>
-0.4775

> <Gold.Goldscore.External.Vdw>
23.9325

> <Gold.Goldscore.Internal.HBond>
0.0000

> <Gold.Goldscore.External.HBond>
0.0000

> <Gold.Goldscore.Internal.Correction>
-0.7653

> <Gold.Goldscore.Internal.Vdw.Weighted>
-3.5815

> <Gold.Goldscore.Internal.Torsion.Weighted>
-0.4775

> <Gold.Goldscore.External.Vdw.Weighted>
32.9072

> <Gold.Goldscore.Internal.HBond.Weighted>
0.0000

> <Gold.Goldscore.External.HBond.Weighted>
0.0000

> <Gold.Goldscore.Internal.Correction.Weighted>
-0.7653

> <Gold.Rescore>
     Score     S(PLP)   S(hbond)     S(cho)   S(metal)  DE(clash)   DE(tors)     intcor
     20.60     -23.27       0.00       0.00       0.00       2.13       0.27       ----

> <Gold.PLP.Fitness>
20.5998

> <Gold.PLP.PLP>
-23.2678

> <Gold.PLP.part.hbond>
0.0000

> <Gold.PLP.part.metal>
0.0000

> <Gold.PLP.part.buried>
-4.2675

> <Gold.PLP.part.nonpolar>
-23.5292

> <Gold.PLP.part.repulsive>
3.1756

> <Gold.PLP.ligand.clash>
2.1321

> <Gold.PLP.ligand.torsion>
0.2679

> <Gold.PLP.Chemscore.Hbond>
0.0000

> <Gold.PLP.Chemscore.CHOScore>
0.0000

> <Gold.PLP.Chemscore.Metal>
0.0000

> <Gold.PLP.Chemscore.Internal.Correction>
   9.000000E+99

