#       Name:                CT1002167954
#       Creating user name   hitesit
#       Creation time:       Sun Apr 16 02:21:52 2023


#       File generated by GOLD software.
#

@<TRIPOS>MOLECULE
CT1002167954|ligand_prepared|mol2|1|dock4
    29    30     1
SMALL
NO_CHARGES


@<TRIPOS>ATOM
      1 C1          43.5522  64.3195  14.7979 C.3            1 RES1               0.0000
      2 C2          44.2644  65.4325  14.0025 C.ar           1 RES1               0.0000
      3 C3          44.5935  63.7410  15.7515 C.2            1 RES1               0.0000
      4 C4          42.3702  64.9833  15.4957 C.2            1 RES1               0.0000
      5 C5          43.0041  63.1738  13.9155 C.3            1 RES1               0.0000
      6 C6          44.9988  65.1282  12.8602 C.ar           1 RES1               0.0000
      7 C7          44.1941  66.7661  14.3964 C.ar           1 RES1               0.0000
      8 N8          44.4857  64.0594  17.0733 N.am           1 RES1               0.0000
      9 O9          45.5180  63.0484  15.3444 O.2            1 RES1               0.0000
     10 N10         42.3830  65.0417  16.8647 N.am           1 RES1               0.0000
     11 O11         41.4359  65.4711  14.8717 O.2            1 RES1               0.0000
     12 C12         42.0734  62.2237  14.6526 C.3            1 RES1               0.0000
     13 C13         45.6373  66.1214  12.1362 C.ar           1 RES1               0.0000
     14 C14         44.8336  67.7578  13.6710 C.ar           1 RES1               0.0000
     15 C15         43.4017  64.6372  17.6838 C.2            1 RES1               0.0000
     16 C16         45.5548  67.4367  12.5408 C.ar           1 RES1               0.0000
     17 O17         43.3627  64.7726  18.9033 O.2            1 RES1               0.0000
     18 H18         42.4635  63.6098  13.0664 H              1 RES1               0.0000
     19 H19         43.8497  62.6004  13.5159 H              1 RES1               0.0000
     20 H20         45.0770  64.0984  12.5279 H              1 RES1               0.0000
     21 H21         43.6333  67.0419  15.2830 H              1 RES1               0.0000
     22 H22         45.2851  63.8484  17.6622 H              1 RES1               0.0000
     23 H23         41.5565  65.4218  17.3149 H              1 RES1               0.0000
     24 H24         41.7177  61.4392  13.9880 H              1 RES1               0.0000
     25 H25         42.5861  61.7528  15.4888 H              1 RES1               0.0000
     26 H26         41.2081  62.7562  15.0420 H              1 RES1               0.0000
     27 H27         46.2048  65.8633  11.2481 H              1 RES1               0.0000
     28 H28         44.7665  68.7916  13.9935 H              1 RES1               0.0000
     29 H29         46.0548  68.2146  11.9732 H              1 RES1               0.0000
@<TRIPOS>BOND
    1    1    2 1     
    2    1    3 1     
    3    1    4 1     
    4    1    5 1     
    5    2    6 ar    
    6    2    7 ar    
    7    3    8 1     
    8    3    9 2     
    9    4   10 1     
   10    4   11 2     
   11    5   12 1     
   12    5   18 1     
   13    5   19 1     
   14    6   13 ar    
   15    6   20 1     
   16    7   14 ar    
   17    7   21 1     
   18    8   15 1     
   19    8   22 1     
   20   10   15 1     
   21   10   23 1     
   22   12   24 1     
   23   12   25 1     
   24   12   26 1     
   25   13   16 ar    
   26   13   27 1     
   27   14   16 ar    
   28   14   28 1     
   29   15   17 2     
   30   16   29 1     
@<TRIPOS>SUBSTRUCTURE
      1 RES1           1
@<TRIPOS>SET
DONOR_HYDROGENS      STATIC     ATOMS    <user>   **** ""
2 22 23
ATOM$RED        STATIC     ATOMS    COLORGROUP SYSTEM
2 22 23
@<TRIPOS>COMMENT
> <Gold.Version>
2022.3.0

> <Gold.Id.Protein>
unknown|4r3c_clean|pdb

> <Gold.Protein.RotatedTorsions>
[  649  644  642  639 ] final  -55.42 input   60.03 | X-H torsion
[   62   61   59   56 ] final -160.73 input   59.99 | X-H torsion
[  665  660  659  658 ] final  107.23 input   59.98 | X-H torsion

> <Gold.Protein.ActiveResidues>
 PRO6    THR7    PHE8    TYR9    PRO21   GLU22   ARG23   TYR24   GLN25   ASN26  
 PHE42   ASP43   THR44   LYS45   THR46   GLY47  

> <Gold.Protein.RotatedAtoms>
   36.9743   69.9282   14.9140 H   0  0  0  0  0  0  0  0  0  0  0  0  # atno 62   bound_to 61  
   46.9751   64.5444   18.7845 H   0  0  0  0  0  0  0  0  0  0  0  0  # atno 649  bound_to 644 
   49.6344   63.5813    9.7269 H   0  0  0  0  0  0  0  0  0  0  0  0  # atno 665  bound_to 660 
   48.0107   63.4255    9.4312 H   0  0  0  0  0  0  0  0  0  0  0  0  # atno 666  bound_to 660 
   48.5445   64.4797   10.5934 H   0  0  0  0  0  0  0  0  0  0  0  0  # atno 667  bound_to 660 
   45.4261   64.0563   18.8865 LP  0  0  0  0  0  0  0  0  0  0  0  0  # atno 5661 bound_to 644 
   46.4685   63.2744   17.9023 LP  0  0  0  0  0  0  0  0  0  0  0  0  # atno 5662 bound_to 644 
   38.1825   69.4482   13.9353 LP  0  0  0  0  0  0  0  0  0  0  0  0  # atno 5677 bound_to 61  
   37.5039   70.9203   13.7378 LP  0  0  0  0  0  0  0  0  0  0  0  0  # atno 5678 bound_to 61  

> <Gold.Score>
     Fitness  S(hb_ext) S(vdw_ext)  S(hb_int)    S(int)      intcor
     28.28       2.00      19.68       0.00      -0.78      -0.77

> <Gold.Goldscore.Fitness>
28.2843

> <Gold.Goldscore.Internal.Vdw>
-0.9788

> <Gold.Goldscore.Internal.Torsion>
-0.5646

> <Gold.Goldscore.External.Vdw>
19.6819

> <Gold.Goldscore.Internal.HBond>
0.0000

> <Gold.Goldscore.External.HBond>
1.9998

> <Gold.Goldscore.Internal.Correction>
-0.7653

> <Gold.Goldscore.Hbonds>
donor molecule, donor type, donor heavy atom, donor atom, acceptor molecule, acceptor atom, score
      L1  H     8    22       P1   644  1.00

> <Gold.Goldscore.Internal.Vdw.Weighted>
-0.9788

> <Gold.Goldscore.Internal.Torsion.Weighted>
-0.5646

> <Gold.Goldscore.External.Vdw.Weighted>
27.0626

> <Gold.Goldscore.Internal.HBond.Weighted>
0.0000

> <Gold.Goldscore.External.HBond.Weighted>
1.9998

> <Gold.Goldscore.Internal.Correction.Weighted>
-0.7653

> <Gold.Rescore>
     Score     S(PLP)   S(hbond)     S(cho)   S(metal)  DE(clash)   DE(tors)     intcor
     30.54     -29.55       1.00       0.00       0.00       0.02       1.00       ----

> <Gold.PLP.Fitness>
30.5381

> <Gold.PLP.PLP>
-29.5523

> <Gold.PLP.part.hbond>
-2.0000

> <Gold.PLP.part.metal>
0.0000

> <Gold.PLP.part.buried>
-3.7293

> <Gold.PLP.part.nonpolar>
-24.9272

> <Gold.PLP.part.repulsive>
0.2270

> <Gold.PLP.ligand.clash>
0.0227

> <Gold.PLP.ligand.torsion>
0.9958

> <Gold.PLP.Chemscore.Hbond>
1.0000

> <Gold.PLP.Chemscore.CHOScore>
0.0000

> <Gold.PLP.Chemscore.Metal>
0.0000

> <Gold.Chemscore.Hbonds>
donor molecule, donor type, donor heavy atom, donor atom, acceptor molecule, acceptor atom, score
      L1  H     8    22       P1   644  0.89

> <Gold.PLP.Chemscore.Internal.Correction>
   9.000000E+99

