#       Name:                CT1002167954
#       Creating user name   hitesit
#       Creation time:       Sun Apr 16 02:21:27 2023


#       File generated by GOLD software.
#

@<TRIPOS>MOLECULE
CT1002167954|ligand_prepared|mol2|1|dock8
    29    30     1
SMALL
NO_CHARGES


@<TRIPOS>ATOM
      1 C1          23.8554   9.8147  30.8353 C.3            1 RES1               0.0000
      2 C2          25.0749   9.6957  31.7721 C.ar           1 RES1               0.0000
      3 C3          22.6545   9.3084  31.6289 C.2            1 RES1               0.0000
      4 C4          23.7641  11.2840  30.4385 C.2            1 RES1               0.0000
      5 C5          23.9775   8.9769  29.5412 C.3            1 RES1               0.0000
      6 C6          26.3608   9.5883  31.2510 C.ar           1 RES1               0.0000
      7 C7          24.9302   9.6944  33.1569 C.ar           1 RES1               0.0000
      8 N8          21.7616  10.2338  32.0830 N.am           1 RES1               0.0000
      9 O9          22.5140   8.1192  31.8863 O.2            1 RES1               0.0000
     10 N10         22.6745  11.9976  30.8643 N.am           1 RES1               0.0000
     11 O11         24.6342  11.8344  29.7749 O.2            1 RES1               0.0000
     12 C12         22.6693   8.8301  28.7802 C.3            1 RES1               0.0000
     13 C13         27.4626   9.4865  32.0841 C.ar           1 RES1               0.0000
     14 C14         26.0334   9.5922  33.9882 C.ar           1 RES1               0.0000
     15 C15         21.6845  11.5471  31.6943 C.2            1 RES1               0.0000
     16 C16         27.2997   9.4888  33.4531 C.ar           1 RES1               0.0000
     17 O17         20.7655  12.2653  32.0775 O.2            1 RES1               0.0000
     18 H18         24.7175   9.4492  28.8834 H              1 RES1               0.0000
     19 H19         24.3489   7.9779  29.8010 H              1 RES1               0.0000
     20 H20         26.5084   9.5824  30.1762 H              1 RES1               0.0000
     21 H21         23.9434   9.7736  33.6001 H              1 RES1               0.0000
     22 H22         21.0890   9.9205  32.7756 H              1 RES1               0.0000
     23 H23         22.5940  12.9532  30.5315 H              1 RES1               0.0000
     24 H24         22.8108   8.2338  27.8812 H              1 RES1               0.0000
     25 H25         21.9175   8.3410  29.3962 H              1 RES1               0.0000
     26 H26         22.2839   9.8035  28.4841 H              1 RES1               0.0000
     27 H27         28.4570   9.4039  31.6580 H              1 RES1               0.0000
     28 H28         25.9004   9.5938  35.0650 H              1 RES1               0.0000
     29 H29         28.1630   9.4093  34.1055 H              1 RES1               0.0000
@<TRIPOS>BOND
    1    1    2 1     
    2    1    3 1     
    3    1    4 1     
    4    1    5 1     
    5    2    6 ar    
    6    2    7 ar    
    7    3    8 1     
    8    3    9 2     
    9    4   10 1     
   10    4   11 2     
   11    5   12 1     
   12    5   18 1     
   13    5   19 1     
   14    6   13 ar    
   15    6   20 1     
   16    7   14 ar    
   17    7   21 1     
   18    8   15 1     
   19    8   22 1     
   20   10   15 1     
   21   10   23 1     
   22   12   24 1     
   23   12   25 1     
   24   12   26 1     
   25   13   16 ar    
   26   13   27 1     
   27   14   16 ar    
   28   14   28 1     
   29   15   17 2     
   30   16   29 1     
@<TRIPOS>SUBSTRUCTURE
      1 RES1           1
@<TRIPOS>SET
DONOR_HYDROGENS      STATIC     ATOMS    <user>   **** ""
2 22 23
ATOM$RED        STATIC     ATOMS    COLORGROUP SYSTEM
2 22 23
@<TRIPOS>COMMENT
> <Gold.Version>
2022.3.0

> <Gold.Id.Protein>
unknown|3fmm_clean|pdb

> <Gold.Protein.RotatedTorsions>
[  523  520  519  517 ] final -177.01 input   59.99 | X-H torsion
[ 1700 1693 1691 1688 ] final  -87.55 input   59.98 | X-H torsion
[  491  486  485  482 ] final   96.66 input   59.97 | X-H torsion

> <Gold.Protein.ActiveResidues>
 TRP18   SER28   PRO29   VAL30   GLY31   SER32   GLY33   ALA34   TYR35   GLY36  
 SER37   VAL38   CYS39   ALA40   ARG49   VAL50   ALA51   VAL52   LYS53   LYS54  
 LEU55   GLU71   LEU72   LEU75   ILE84   GLY85   LEU86   LEU87   ASP88   VAL89  
 VAL102  TYR103  LEU104  VAL105  THR106  HIS107  LEU108  MET109  GLY110  ALA111 
 ASP112  LEU113  ASN115  PRO153  SER154  ASN155  LEU156  ALA157  VAL158  ASN159 
 LYS165  ILE166  LEU167  ASP168  PHE169 

> <Gold.Protein.RotatedAtoms>
   30.9695   12.6149   39.3157 H   0  0  0  0  0  0  0  0  0  0  0  0  # atno 491  bound_to 486 
   28.7245   12.3154   30.5625 H   0  0  0  0  0  0  0  0  0  0  0  0  # atno 523  bound_to 520 
   17.2831    6.9273   27.6821 H   0  0  0  0  0  0  0  0  0  0  0  0  # atno 1700 bound_to 1693
   28.5147   11.0137   31.5160 LP  0  0  0  0  0  0  0  0  0  0  0  0  # atno 5584 bound_to 520 
   29.3243   12.3170   32.0750 LP  0  0  0  0  0  0  0  0  0  0  0  0  # atno 5585 bound_to 520 
   16.3180    8.1253   27.1513 LP  0  0  0  0  0  0  0  0  0  0  0  0  # atno 5610 bound_to 1693
   15.6920    6.6529   27.4780 LP  0  0  0  0  0  0  0  0  0  0  0  0  # atno 5611 bound_to 1693

> <Gold.Score>
     Fitness  S(hb_ext) S(vdw_ext)  S(hb_int)    S(int)      intcor
     38.14       0.26      28.23       0.00      -0.94      -0.77

> <Gold.Goldscore.Fitness>
38.1384

> <Gold.Goldscore.Internal.Vdw>
-1.0429

> <Gold.Goldscore.Internal.Torsion>
-0.6575

> <Gold.Goldscore.External.Vdw>
28.2264

> <Gold.Goldscore.Internal.HBond>
0.0000

> <Gold.Goldscore.External.HBond>
0.2622

> <Gold.Goldscore.Internal.Correction>
-0.7653

> <Gold.Goldscore.Hbonds>
donor molecule, donor type, donor heavy atom, donor atom, acceptor molecule, acceptor atom, score
      P1  H  1737  1745       L1     9  0.13

> <Gold.Goldscore.Internal.Vdw.Weighted>
-1.0429

> <Gold.Goldscore.Internal.Torsion.Weighted>
-0.6575

> <Gold.Goldscore.External.Vdw.Weighted>
38.8113

> <Gold.Goldscore.Internal.HBond.Weighted>
0.0000

> <Gold.Goldscore.External.HBond.Weighted>
0.2622

> <Gold.Goldscore.Internal.Correction.Weighted>
-0.7653

> <Gold.Rescore>
     Score     S(PLP)   S(hbond)     S(cho)   S(metal)  DE(clash)   DE(tors)     intcor
     37.88     -39.55       0.00       0.00       0.00       0.63       0.52       ----

> <Gold.PLP.Fitness>
37.8827

> <Gold.PLP.PLP>
-39.5541

> <Gold.PLP.part.hbond>
0.0000

> <Gold.PLP.part.metal>
0.0000

> <Gold.PLP.part.buried>
1.6360

> <Gold.PLP.part.nonpolar>
-41.7390

> <Gold.PLP.part.repulsive>
0.1212

> <Gold.PLP.ligand.clash>
0.6335

> <Gold.PLP.ligand.torsion>
0.5190

> <Gold.PLP.Chemscore.Hbond>
0.0000

> <Gold.PLP.Chemscore.CHOScore>
0.0000

> <Gold.PLP.Chemscore.Metal>
0.0000

> <Gold.PLP.Chemscore.Internal.Correction>
   9.000000E+99

