#       Name:                CT1002167954
#       Creating user name   hitesit
#       Creation time:       Sun Apr 16 02:21:29 2023


#       File generated by GOLD software.
#

@<TRIPOS>MOLECULE
CT1002167954|ligand_prepared|mol2|1|dock9
    29    30     1
SMALL
NO_CHARGES


@<TRIPOS>ATOM
      1 C1          23.1749   9.4444  31.4817 C.3            1 RES1               0.0000
      2 C2          24.3132   9.6941  30.4714 C.ar           1 RES1               0.0000
      3 C3          22.8079  10.8082  32.0593 C.2            1 RES1               0.0000
      4 C4          22.0492   8.7767  30.6996 C.2            1 RES1               0.0000
      5 C5          23.5682   8.5071  32.6471 C.3            1 RES1               0.0000
      6 C6          25.0780   8.6358  29.9899 C.ar           1 RES1               0.0000
      7 C7          24.6081  10.9744  30.0105 C.ar           1 RES1               0.0000
      8 N8          21.6380  11.3750  31.6470 N.am           1 RES1               0.0000
      9 O9          23.5528  11.3953  32.8344 O.2            1 RES1               0.0000
     10 N10         20.8742   9.4660  30.5505 N.am           1 RES1               0.0000
     11 O11         22.1749   7.6669  30.1969 O.2            1 RES1               0.0000
     12 C12         22.4744   8.3315  33.6887 C.3            1 RES1               0.0000
     13 C13         26.0988   8.8493  29.0783 C.ar           1 RES1               0.0000
     14 C14         25.6294  11.1857  29.0991 C.ar           1 RES1               0.0000
     15 C15         20.6284  10.7474  30.9626 C.2            1 RES1               0.0000
     16 C16         26.3749  10.1241  28.6320 C.ar           1 RES1               0.0000
     17 O17         19.5644  11.3194  30.7437 O.2            1 RES1               0.0000
     18 H18         23.8265   7.5230  32.2370 H              1 RES1               0.0000
     19 H19         24.4622   8.9106  33.1385 H              1 RES1               0.0000
     20 H20         24.8770   7.6260  30.3315 H              1 RES1               0.0000
     21 H21         24.0355  11.8247  30.3650 H              1 RES1               0.0000
     22 H22         21.5012  12.3562  31.8680 H              1 RES1               0.0000
     23 H23         20.1123   8.9786  30.0899 H              1 RES1               0.0000
     24 H24         22.8022   7.6650  34.4836 H              1 RES1               0.0000
     25 H25         22.2103   9.2877  34.1356 H              1 RES1               0.0000
     26 H26         21.5784   7.9083  33.2394 H              1 RES1               0.0000
     27 H27         26.6834   8.0107  28.7149 H              1 RES1               0.0000
     28 H28         25.8436  12.1908  28.7510 H              1 RES1               0.0000
     29 H29         27.1743  10.2911  27.9177 H              1 RES1               0.0000
@<TRIPOS>BOND
    1    1    2 1     
    2    1    3 1     
    3    1    4 1     
    4    1    5 1     
    5    2    6 ar    
    6    2    7 ar    
    7    3    8 1     
    8    3    9 2     
    9    4   10 1     
   10    4   11 2     
   11    5   12 1     
   12    5   18 1     
   13    5   19 1     
   14    6   13 ar    
   15    6   20 1     
   16    7   14 ar    
   17    7   21 1     
   18    8   15 1     
   19    8   22 1     
   20   10   15 1     
   21   10   23 1     
   22   12   24 1     
   23   12   25 1     
   24   12   26 1     
   25   13   16 ar    
   26   13   27 1     
   27   14   16 ar    
   28   14   28 1     
   29   15   17 2     
   30   16   29 1     
@<TRIPOS>SUBSTRUCTURE
      1 RES1           1
@<TRIPOS>SET
DONOR_HYDROGENS      STATIC     ATOMS    <user>   **** ""
2 22 23
ATOM$RED        STATIC     ATOMS    COLORGROUP SYSTEM
2 22 23
@<TRIPOS>COMMENT
> <Gold.Version>
2022.3.0

> <Gold.Id.Protein>
unknown|3fmm_clean|pdb

> <Gold.Protein.RotatedTorsions>
[  523  520  519  517 ] final  106.71 input   59.99 | X-H torsion
[ 1700 1693 1691 1688 ] final   53.06 input   59.98 | X-H torsion
[  491  486  485  482 ] final -148.89 input   59.97 | X-H torsion

> <Gold.Protein.ActiveResidues>
 TRP18   SER28   PRO29   VAL30   GLY31   SER32   GLY33   ALA34   TYR35   GLY36  
 SER37   VAL38   CYS39   ALA40   ARG49   VAL50   ALA51   VAL52   LYS53   LYS54  
 LEU55   GLU71   LEU72   LEU75   ILE84   GLY85   LEU86   LEU87   ASP88   VAL89  
 VAL102  TYR103  LEU104  VAL105  THR106  HIS107  LEU108  MET109  GLY110  ALA111 
 ASP112  LEU113  ASN115  PRO153  SER154  ASN155  LEU156  ALA157  VAL158  ASN159 
 LYS165  ILE166  LEU167  ASP168  PHE169 

> <Gold.Protein.RotatedAtoms>
   31.6150   13.4286   40.4992 H   0  0  0  0  0  0  0  0  0  0  0  0  # atno 491  bound_to 486 
   28.3718   11.2603   30.8771 H   0  0  0  0  0  0  0  0  0  0  0  0  # atno 523  bound_to 520 
   15.5481    6.9367   27.3696 H   0  0  0  0  0  0  0  0  0  0  0  0  # atno 1700 bound_to 1693
   29.1102   11.6764   32.2660 LP  0  0  0  0  0  0  0  0  0  0  0  0  # atno 5584 bound_to 520 
   29.0842   12.7173   31.0080 LP  0  0  0  0  0  0  0  0  0  0  0  0  # atno 5585 bound_to 520 
   17.1074    6.6452   27.7330 LP  0  0  0  0  0  0  0  0  0  0  0  0  # atno 5610 bound_to 1693
   16.6502    8.1235   27.2112 LP  0  0  0  0  0  0  0  0  0  0  0  0  # atno 5611 bound_to 1693

> <Gold.Score>
     Fitness  S(hb_ext) S(vdw_ext)  S(hb_int)    S(int)      intcor
     34.30       0.97      25.26       0.00      -1.41      -0.77

> <Gold.Goldscore.Fitness>
34.2972

> <Gold.Goldscore.Internal.Vdw>
-1.7822

> <Gold.Goldscore.Internal.Torsion>
-0.3911

> <Gold.Goldscore.External.Vdw>
25.2615

> <Gold.Goldscore.Internal.HBond>
0.0000

> <Gold.Goldscore.External.HBond>
0.9706

> <Gold.Goldscore.Internal.Correction>
-0.7653

> <Gold.Goldscore.Hbonds>
donor molecule, donor type, donor heavy atom, donor atom, acceptor molecule, acceptor atom, score
      P1  H  1737  1745       L1    11  0.49

> <Gold.Goldscore.Internal.Vdw.Weighted>
-1.7822

> <Gold.Goldscore.Internal.Torsion.Weighted>
-0.3911

> <Gold.Goldscore.External.Vdw.Weighted>
34.7345

> <Gold.Goldscore.Internal.HBond.Weighted>
0.0000

> <Gold.Goldscore.External.HBond.Weighted>
0.9706

> <Gold.Goldscore.Internal.Correction.Weighted>
-0.7653

> <Gold.Rescore>
     Score     S(PLP)   S(hbond)     S(cho)   S(metal)  DE(clash)   DE(tors)     intcor
     33.51     -30.51       1.80       0.00       0.00       0.00       1.20       ----

> <Gold.PLP.Fitness>
33.5128

> <Gold.PLP.PLP>
-30.5091

> <Gold.PLP.part.hbond>
-1.7981

> <Gold.PLP.part.metal>
0.0000

> <Gold.PLP.part.buried>
2.8968

> <Gold.PLP.part.nonpolar>
-32.0986

> <Gold.PLP.part.repulsive>
0.2994

> <Gold.PLP.ligand.clash>
0.0000

> <Gold.PLP.ligand.torsion>
1.2038

> <Gold.PLP.Chemscore.Hbond>
1.8038

> <Gold.PLP.Chemscore.CHOScore>
0.0000

> <Gold.PLP.Chemscore.Metal>
0.0000

> <Gold.Chemscore.Hbonds>
donor molecule, donor type, donor heavy atom, donor atom, acceptor molecule, acceptor atom, score
      P1  H  1737  1745       L1    11  0.99

> <Gold.PLP.Chemscore.Internal.Correction>
   9.000000E+99

