#       Name:                CT1002167954
#       Creating user name   hitesit
#       Creation time:       Sun Apr 16 02:21:24 2023


#       File generated by GOLD software.
#

@<TRIPOS>MOLECULE
CT1002167954|ligand_prepared|mol2|1|dock5
    29    30     1
SMALL
NO_CHARGES


@<TRIPOS>ATOM
      1 C1          23.8434   9.5021  31.5695 C.3            1 RES1               0.0000
      2 C2          22.3702   9.7781  31.2058 C.ar           1 RES1               0.0000
      3 C3          24.2229   8.2036  30.8638 C.2            1 RES1               0.0000
      4 C4          24.6336  10.7189  31.1008 C.2            1 RES1               0.0000
      5 C5          24.0904   9.3273  33.0861 C.3            1 RES1               0.0000
      6 C6          21.6530  10.7743  31.8616 C.ar           1 RES1               0.0000
      7 C7          21.7167   9.0479  30.2167 C.ar           1 RES1               0.0000
      8 N8          25.0344   8.2920  29.7713 N.am           1 RES1               0.0000
      9 O9          23.7848   7.1222  31.2365 O.2            1 RES1               0.0000
     10 N10         25.5399  10.5446  30.0878 N.am           1 RES1               0.0000
     11 O11         24.4677  11.8303  31.5881 O.2            1 RES1               0.0000
     12 C12         25.5388   9.0305  33.4412 C.3            1 RES1               0.0000
     13 C13         20.3314  11.0332  31.5382 C.ar           1 RES1               0.0000
     14 C14         20.3949   9.3083  29.8951 C.ar           1 RES1               0.0000
     15 C15         25.7540   9.3927  29.3810 C.2            1 RES1               0.0000
     16 C16         19.7016  10.3008  30.5546 C.ar           1 RES1               0.0000
     17 O17         26.5477   9.3284  28.4467 O.2            1 RES1               0.0000
     18 H18         23.7811  10.2446  33.6022 H              1 RES1               0.0000
     19 H19         23.4615   8.5072  33.4540 H              1 RES1               0.0000
     20 H20         22.1312  11.3593  32.6401 H              1 RES1               0.0000
     21 H21         22.2420   8.2615  29.6854 H              1 RES1               0.0000
     22 H22         25.1134   7.4631  29.1908 H              1 RES1               0.0000
     23 H23         26.1076  11.3480  29.8376 H              1 RES1               0.0000
     24 H24         25.6567   8.9171  34.5168 H              1 RES1               0.0000
     25 H25         25.8721   8.1109  32.9649 H              1 RES1               0.0000
     26 H26         26.1898   9.8379  33.1122 H              1 RES1               0.0000
     27 H27         19.7898  11.8145  32.0612 H              1 RES1               0.0000
     28 H28         19.9030   8.7289  29.1207 H              1 RES1               0.0000
     29 H29         18.6664  10.5041  30.3013 H              1 RES1               0.0000
@<TRIPOS>BOND
    1    1    2 1     
    2    1    3 1     
    3    1    4 1     
    4    1    5 1     
    5    2    6 ar    
    6    2    7 ar    
    7    3    8 1     
    8    3    9 2     
    9    4   10 1     
   10    4   11 2     
   11    5   12 1     
   12    5   18 1     
   13    5   19 1     
   14    6   13 ar    
   15    6   20 1     
   16    7   14 ar    
   17    7   21 1     
   18    8   15 1     
   19    8   22 1     
   20   10   15 1     
   21   10   23 1     
   22   12   24 1     
   23   12   25 1     
   24   12   26 1     
   25   13   16 ar    
   26   13   27 1     
   27   14   16 ar    
   28   14   28 1     
   29   15   17 2     
   30   16   29 1     
@<TRIPOS>SUBSTRUCTURE
      1 RES1           1
@<TRIPOS>SET
DONOR_HYDROGENS      STATIC     ATOMS    <user>   **** ""
2 22 23
ATOM$RED        STATIC     ATOMS    COLORGROUP SYSTEM
2 22 23
@<TRIPOS>COMMENT
> <Gold.Version>
2022.3.0

> <Gold.Id.Protein>
unknown|3fmm_clean|pdb

> <Gold.Protein.RotatedTorsions>
[  523  520  519  517 ] final   23.86 input   59.99 | X-H torsion
[ 1700 1693 1691 1688 ] final  -55.61 input   59.98 | X-H torsion
[  491  486  485  482 ] final   -4.21 input   59.97 | X-H torsion

> <Gold.Protein.ActiveResidues>
 TRP18   SER28   PRO29   VAL30   GLY31   SER32   GLY33   ALA34   TYR35   GLY36  
 SER37   VAL38   CYS39   ALA40   ARG49   VAL50   ALA51   VAL52   LYS53   LYS54  
 LEU55   GLU71   LEU72   LEU75   ILE84   GLY85   LEU86   LEU87   ASP88   VAL89  
 VAL102  TYR103  LEU104  VAL105  THR106  HIS107  LEU108  MET109  GLY110  ALA111 
 ASP112  LEU113  ASN115  PRO153  SER154  ASN155  LEU156  ALA157  VAL158  ASN159 
 LYS165  ILE166  LEU167  ASP168  PHE169 

> <Gold.Protein.RotatedAtoms>
   30.0591   12.5570   40.4347 H   0  0  0  0  0  0  0  0  0  0  0  0  # atno 491  bound_to 486 
   28.8080   11.2141   32.0353 H   0  0  0  0  0  0  0  0  0  0  0  0  # atno 523  bound_to 520 
   16.9644    6.5272   27.7443 H   0  0  0  0  0  0  0  0  0  0  0  0  # atno 1700 bound_to 1693
   29.2957   12.6949   31.5696 LP  0  0  0  0  0  0  0  0  0  0  0  0  # atno 5584 bound_to 520 
   28.4593   11.7453   30.5375 LP  0  0  0  0  0  0  0  0  0  0  0  0  # atno 5585 bound_to 520 
   16.8234    8.0735   27.2570 LP  0  0  0  0  0  0  0  0  0  0  0  0  # atno 5610 bound_to 1693
   15.5076    7.1078   27.3097 LP  0  0  0  0  0  0  0  0  0  0  0  0  # atno 5611 bound_to 1693

> <Gold.Score>
     Fitness  S(hb_ext) S(vdw_ext)  S(hb_int)    S(int)      intcor
     32.74       0.50      24.65       0.00      -1.65      -0.79

> <Gold.Goldscore.Fitness>
32.7422

> <Gold.Goldscore.Internal.Vdw>
-2.0704

> <Gold.Goldscore.Internal.Torsion>
-0.3700

> <Gold.Goldscore.External.Vdw>
24.6495

> <Gold.Goldscore.Internal.HBond>
0.0000

> <Gold.Goldscore.External.HBond>
0.4982

> <Gold.Goldscore.Internal.Correction>
-0.7912

> <Gold.Goldscore.Hbonds>
donor molecule, donor type, donor heavy atom, donor atom, acceptor molecule, acceptor atom, score
      P1  H  1737  1745       L1     9  0.25

> <Gold.Goldscore.Internal.Vdw.Weighted>
-2.0704

> <Gold.Goldscore.Internal.Torsion.Weighted>
-0.3700

> <Gold.Goldscore.External.Vdw.Weighted>
33.8931

> <Gold.Goldscore.Internal.HBond.Weighted>
0.0000

> <Gold.Goldscore.External.HBond.Weighted>
0.4982

> <Gold.Goldscore.Internal.Correction.Weighted>
-0.7912

> <Gold.Rescore>
     Score     S(PLP)   S(hbond)     S(cho)   S(metal)  DE(clash)   DE(tors)     intcor
     16.75     -15.51       0.98       0.00       0.00       0.71       0.49       ----

> <Gold.PLP.Fitness>
16.7476

> <Gold.PLP.PLP>
-15.5087

> <Gold.PLP.part.hbond>
-1.4425

> <Gold.PLP.part.metal>
0.0000

> <Gold.PLP.part.buried>
11.8529

> <Gold.PLP.part.nonpolar>
-27.7888

> <Gold.PLP.part.repulsive>
1.0670

> <Gold.PLP.ligand.clash>
0.7071

> <Gold.PLP.ligand.torsion>
0.4910

> <Gold.PLP.Chemscore.Hbond>
0.9760

> <Gold.PLP.Chemscore.CHOScore>
0.0000

> <Gold.PLP.Chemscore.Metal>
0.0000

> <Gold.Chemscore.Hbonds>
donor molecule, donor type, donor heavy atom, donor atom, acceptor molecule, acceptor atom, score
      L1  H     8    22       P1  1740  0.01
      P1  H  1737  1745       L1     9  0.82

> <Gold.PLP.Chemscore.Internal.Correction>
   9.000000E+99

