#       Name:                CT1002167954
#       Creating user name   hitesit
#       Creation time:       Sun Apr 16 20:27:18 2023


#       File generated by GOLD software.
#

@<TRIPOS>MOLECULE
CT1002167954|ligand_prepared|mol2|1|dock7
    29    30     1
SMALL
NO_CHARGES


@<TRIPOS>ATOM
      1 C1         227.2890  45.7776  14.7617 C.3            1 RES1               0.0000
      2 C2         226.3084  46.2178  15.8678 C.ar           1 RES1               0.0000
      3 C3         227.7075  44.3505  15.1032 C.2            1 RES1               0.0000
      4 C4         226.5317  45.9055  13.4446 C.2            1 RES1               0.0000
      5 C5         228.5602  46.6533  14.6689 C.3            1 RES1               0.0000
      6 C6         226.7743  46.5526  17.1357 C.ar           1 RES1               0.0000
      7 C7         224.9379  46.2963  15.6349 C.ar           1 RES1               0.0000
      8 N8         227.1893  43.3417  14.3457 N.am           1 RES1               0.0000
      9 O9         228.4497  44.1109  16.0477 O.2            1 RES1               0.0000
     10 N10        226.2624  44.7586  12.7447 N.am           1 RES1               0.0000
     11 O11        226.1513  46.9875  13.0147 O.2            1 RES1               0.0000
     12 C12        229.5317  46.2112  13.5860 C.3            1 RES1               0.0000
     13 C13        225.9021  46.9543  18.1338 C.ar           1 RES1               0.0000
     14 C14        224.0674  46.6980  16.6346 C.ar           1 RES1               0.0000
     15 C15        226.5299  43.4796  13.1508 C.2            1 RES1               0.0000
     16 C16        224.5483  47.0276  17.8839 C.ar           1 RES1               0.0000
     17 O17        226.2080  42.4956  12.4910 O.2            1 RES1               0.0000
     18 H18        228.2610  47.6904  14.4729 H              1 RES1               0.0000
     19 H19        229.0761  46.6305  15.6368 H              1 RES1               0.0000
     20 H20        227.8361  46.4985  17.3516 H              1 RES1               0.0000
     21 H21        224.5369  46.0407  14.6600 H              1 RES1               0.0000
     22 H22        227.3024  42.3975  14.7006 H              1 RES1               0.0000
     23 H23        225.8218  44.8684  11.8369 H              1 RES1               0.0000
     24 H24        230.4056  46.8589  13.5638 H              1 RES1               0.0000
     25 H25        229.8695  45.1923  13.7634 H              1 RES1               0.0000
     26 H26        229.0592  46.2459  12.6065 H              1 RES1               0.0000
     27 H27        226.2855  47.2113  19.1157 H              1 RES1               0.0000
     28 H28        223.0026  46.7537  16.4337 H              1 RES1               0.0000
     29 H29        223.8653  47.3427  18.6659 H              1 RES1               0.0000
@<TRIPOS>BOND
    1    1    2 1     
    2    1    3 1     
    3    1    4 1     
    4    1    5 1     
    5    2    6 ar    
    6    2    7 ar    
    7    3    8 1     
    8    3    9 2     
    9    4   10 1     
   10    4   11 2     
   11    5   12 1     
   12    5   18 1     
   13    5   19 1     
   14    6   13 ar    
   15    6   20 1     
   16    7   14 ar    
   17    7   21 1     
   18    8   15 1     
   19    8   22 1     
   20   10   15 1     
   21   10   23 1     
   22   12   24 1     
   23   12   25 1     
   24   12   26 1     
   25   13   16 ar    
   26   13   27 1     
   27   14   16 ar    
   28   14   28 1     
   29   15   17 2     
   30   16   29 1     
@<TRIPOS>SUBSTRUCTURE
      1 RES1           1
@<TRIPOS>SET
DONOR_HYDROGENS      STATIC     ATOMS    <user>   **** ""
2 22 23
ATOM$RED        STATIC     ATOMS    COLORGROUP SYSTEM
2 22 23
@<TRIPOS>COMMENT
> <Gold.Version>
2022.3.0

> <Gold.Id.Protein>
unknown|4v3u_clean|pdb

> <Gold.Protein.RotatedTorsions>
[ 6579 6563 6564 6565 ] final  -98.60 input  113.83 | X-H torsion
[ 6671 6647 6648 6649 ] final   75.36 input  129.80 | X-H torsion
[ 8031 8015 8016 8017 ] final -170.96 input   49.80 | X-H torsion
[ 8111 8093 8094 8095 ] final   86.23 input   98.11 | X-H torsion
[ 8171 8157 8158 8159 ] final -141.57 input   64.44 | X-H torsion
[ 8251 8229 8230 8231 ] final -174.16 input   84.12 | X-H torsion
[ 9544 9530 9529 9527 ] final   99.33 input   60.01 | X-H torsion
[ 8327 8303 8304 8305 ] final  152.89 input  100.38 | X-H torsion
[ 10191 10175 10176 10177 ] final  -28.45 input   40.16 | X-H torsion
[ 7947 7929 7930 7931 ] final -108.96 input   72.92 | X-H torsion
[ 7891 7879 7880 7881 ] final -159.53 input   93.72 | X-H torsion
[ 7895 7884 7883 7880 ] final  -62.40 input   60.02 | X-H torsion
[ 6811 6793 6794 6795 ] final    6.42 input  121.38 | X-H torsion
[ 27200 6326 6325 6324 ] final   -9.41 input    0.00 | X-H torsion
[ 27203 6566 6565 6564 ] final   16.15 input   -0.00 | X-H torsion
[ 27206 7882 7881 7880 ] final  -88.95 input   -0.00 | X-H torsion
[ 27208 7932 7931 7930 ] final   93.80 input    0.00 | X-H torsion
[ 27211 8018 8017 8016 ] final -117.38 input    0.00 | X-H torsion
[ 27214 8096 8095 8094 ] final  -34.28 input   -0.00 | X-H torsion
[ 27217 8160 8159 8158 ] final   71.56 input    0.00 | X-H torsion
[ 27222 10090 10089 10088 ] final   42.65 input    0.00 | X-H torsion
[ 27224 10178 10177 10176 ] final -136.96 input   -0.00 | X-H torsion
[ 27229 7724 7723 7722 ] final    4.80 input    0.00 | X-H torsion
[ 27231 7802 7801 7800 ] final  -85.14 input    0.00 | X-H torsion

> <Gold.Protein.ActiveResidues>
 ASP403  THR404  ILE407  TYR408  ALA410  LYS411  TRP414  GLN425  TRP426  SER427 
 LYS428  LEU429  GLN430  VAL431  PHE432  ASP433  TYR453  SER462  ALA463  ILE464 

> <Gold.Protein.RotatedAtoms>
  217.3882   41.0405   18.3440 H   0  0  0  0  0  0  0  0  0  0  0  0  # atno 6579 bound_to 6563
  218.8940   42.3072   20.5006 H   0  0  0  0  0  0  0  0  0  0  0  0  # atno 6671 bound_to 6647
  221.7201   37.5200   20.6791 H   0  0  0  0  0  0  0  0  0  0  0  0  # atno 6811 bound_to 6793
  229.5809   39.1010   20.5445 H   0  0  0  0  0  0  0  0  0  0  0  0  # atno 7891 bound_to 7879
  231.5287   41.5751   20.1341 H   0  0  0  0  0  0  0  0  0  0  0  0  # atno 7895 bound_to 7884
  229.2400   41.3460   17.8684 H   0  0  0  0  0  0  0  0  0  0  0  0  # atno 7947 bound_to 7929
  228.3853   39.8913   15.5738 H   0  0  0  0  0  0  0  0  0  0  0  0  # atno 8031 bound_to 8015
  225.9879   38.9503   12.0713 H   0  0  0  0  0  0  0  0  0  0  0  0  # atno 8111 bound_to 8093
  222.9559   39.9412   12.3041 H   0  0  0  0  0  0  0  0  0  0  0  0  # atno 8171 bound_to 8157
  220.2535   39.5930   10.4640 H   0  0  0  0  0  0  0  0  0  0  0  0  # atno 8251 bound_to 8229
  216.7497   40.8722   11.0412 H   0  0  0  0  0  0  0  0  0  0  0  0  # atno 8327 bound_to 8303
  226.8026   42.0130    8.4535 H   0  0  0  0  0  0  0  0  0  0  0  0  # atno 9544 bound_to 9530
  222.6649   36.1156   10.5735 H   0  0  0  0  0  0  0  0  0  0  0  0  # atno 10191 bound_to 10175
  215.8399   43.3910   17.4472 LP  0  0  0  0  0  0  0  0  0  0  0  0  # atno 27200 bound_to 6326
  217.0230   44.2469   18.3788 LP  0  0  0  0  0  0  0  0  0  0  0  0  # atno 27201 bound_to 6326
  217.5409   42.6662   18.9688 LP  0  0  0  0  0  0  0  0  0  0  0  0  # atno 27202 bound_to 6563
  221.3557   40.1957   18.6560 LP  0  0  0  0  0  0  0  0  0  0  0  0  # atno 27203 bound_to 6566
  221.3528   40.2025   20.3880 LP  0  0  0  0  0  0  0  0  0  0  0  0  # atno 27204 bound_to 6566
  220.4927   42.3671   19.7972 LP  0  0  0  0  0  0  0  0  0  0  0  0  # atno 27205 bound_to 6647
  227.5126   42.4727   17.5478 LP  0  0  0  0  0  0  0  0  0  0  0  0  # atno 27206 bound_to 7882
  228.9534   43.3867   17.8458 LP  0  0  0  0  0  0  0  0  0  0  0  0  # atno 27207 bound_to 7882
  229.5140   38.2743   14.8219 LP  0  0  0  0  0  0  0  0  0  0  0  0  # atno 27208 bound_to 7932
  229.6915   39.3150   13.4488 LP  0  0  0  0  0  0  0  0  0  0  0  0  # atno 27209 bound_to 7932
  227.4050   41.2417   15.0451 LP  0  0  0  0  0  0  0  0  0  0  0  0  # atno 27210 bound_to 8015
  223.9937   40.9891   14.2487 LP  0  0  0  0  0  0  0  0  0  0  0  0  # atno 27211 bound_to 8018
  225.4717   41.8382   14.5557 LP  0  0  0  0  0  0  0  0  0  0  0  0  # atno 27212 bound_to 8018
  225.7184   40.1470   13.3117 LP  0  0  0  0  0  0  0  0  0  0  0  0  # atno 27213 bound_to 8093
  223.6062   37.9413   11.1674 LP  0  0  0  0  0  0  0  0  0  0  0  0  # atno 27214 bound_to 8096
  222.4162   37.9962   12.4247 LP  0  0  0  0  0  0  0  0  0  0  0  0  # atno 27215 bound_to 8096
  222.1945   41.4125   11.7484 LP  0  0  0  0  0  0  0  0  0  0  0  0  # atno 27216 bound_to 8157
  220.0327   42.1655   10.8693 LP  0  0  0  0  0  0  0  0  0  0  0  0  # atno 27217 bound_to 8160
  218.5022   41.7786   11.5819 LP  0  0  0  0  0  0  0  0  0  0  0  0  # atno 27218 bound_to 8160
  219.1160   38.9086   11.5992 LP  0  0  0  0  0  0  0  0  0  0  0  0  # atno 27219 bound_to 8229
  227.9486   42.3918    7.3621 LP  0  0  0  0  0  0  0  0  0  0  0  0  # atno 27220 bound_to 9530
  228.0872   41.0335    8.2578 LP  0  0  0  0  0  0  0  0  0  0  0  0  # atno 27221 bound_to 9530
  227.7124   38.2457   10.3315 LP  0  0  0  0  0  0  0  0  0  0  0  0  # atno 27222 bound_to 10090
  226.3270   38.0937   11.3598 LP  0  0  0  0  0  0  0  0  0  0  0  0  # atno 27223 bound_to 10090
  219.3263   37.1220   11.2857 LP  0  0  0  0  0  0  0  0  0  0  0  0  # atno 27224 bound_to 10178
  220.9730   37.2033   10.7549 LP  0  0  0  0  0  0  0  0  0  0  0  0  # atno 27225 bound_to 10178
  216.3549   39.6426    9.8574 LP  0  0  0  0  0  0  0  0  0  0  0  0  # atno 27226 bound_to 8303
  223.5003   35.7073   12.0570 LP  0  0  0  0  0  0  0  0  0  0  0  0  # atno 27227 bound_to 10175
  230.2313   39.9425   17.5414 LP  0  0  0  0  0  0  0  0  0  0  0  0  # atno 27228 bound_to 7929
  231.3634   38.1983   16.5047 LP  0  0  0  0  0  0  0  0  0  0  0  0  # atno 27229 bound_to 7724
  230.0883   38.3634   17.6653 LP  0  0  0  0  0  0  0  0  0  0  0  0  # atno 27230 bound_to 7724
  227.7516   38.4389   18.1734 LP  0  0  0  0  0  0  0  0  0  0  0  0  # atno 27231 bound_to 7802
  227.2040   38.6284   19.8056 LP  0  0  0  0  0  0  0  0  0  0  0  0  # atno 27232 bound_to 7802
  230.4377   39.3909   19.0545 LP  0  0  0  0  0  0  0  0  0  0  0  0  # atno 27233 bound_to 7879
  231.2934   43.0917   20.6749 LP  0  0  0  0  0  0  0  0  0  0  0  0  # atno 27234 bound_to 7884
  230.9029   42.6997   19.1385 LP  0  0  0  0  0  0  0  0  0  0  0  0  # atno 27235 bound_to 7884

> <Gold.Score>
     Fitness  S(hb_ext) S(vdw_ext)  S(hb_int)    S(int)      intcor
     19.96       6.00      11.53       0.00      -1.90      -0.76

> <Gold.Goldscore.Fitness>
19.9592

> <Gold.Goldscore.Internal.Vdw>
-2.2908

> <Gold.Goldscore.Internal.Torsion>
-0.3669

> <Gold.Goldscore.External.Vdw>
11.5334

> <Gold.Goldscore.Internal.HBond>
0.0000

> <Gold.Goldscore.External.HBond>
6.0000

> <Gold.Goldscore.Internal.Correction>
-0.7585

> <Gold.Goldscore.Hbonds>
donor molecule, donor type, donor heavy atom, donor atom, acceptor molecule, acceptor atom, score
      L1  H     8    22       P1  8015  1.00

> <Gold.Goldscore.Internal.Vdw.Weighted>
-2.2908

> <Gold.Goldscore.Internal.Torsion.Weighted>
-0.3669

> <Gold.Goldscore.External.Vdw.Weighted>
15.8585

> <Gold.Goldscore.Internal.HBond.Weighted>
0.0000

> <Gold.Goldscore.External.HBond.Weighted>
6.0000

> <Gold.Goldscore.Internal.Correction.Weighted>
-0.7585

> <Gold.Rescore>
     Score     S(PLP)   S(hbond)     S(cho)   S(metal)  DE(clash)   DE(tors)     intcor
     23.40     -22.41       1.00       0.00       0.00       0.00       1.00       ----

> <Gold.PLP.Fitness>
23.3952

> <Gold.PLP.PLP>
-22.4108

> <Gold.PLP.part.hbond>
-3.1927

> <Gold.PLP.part.metal>
0.0000

> <Gold.PLP.part.buried>
-3.3308

> <Gold.PLP.part.nonpolar>
-18.8556

> <Gold.PLP.part.repulsive>
2.6956

> <Gold.PLP.ligand.clash>
0.0000

> <Gold.PLP.ligand.torsion>
1.0034

> <Gold.PLP.Chemscore.Hbond>
0.9971

> <Gold.PLP.Chemscore.CHOScore>
0.0000

> <Gold.PLP.Chemscore.Metal>
0.0000

> <Gold.Chemscore.Hbonds>
donor molecule, donor type, donor heavy atom, donor atom, acceptor molecule, acceptor atom, score
      L1  H     8    22       P1  8015  0.76
      P1  H  6801  6821       L1     9  0.05

> <Gold.PLP.Chemscore.Internal.Correction>
   9.000000E+99

