#       Name:                CT1002167954
#       Creating user name   hitesit
#       Creation time:       Sun Apr 16 20:29:12 2023


#       File generated by GOLD software.
#

@<TRIPOS>MOLECULE
CT1002167954|ligand_prepared|mol2|1|dock3
    29    30     1
SMALL
NO_CHARGES


@<TRIPOS>ATOM
      1 C1         208.3145  42.8427  12.5799 C.3            1 RES1               0.0000
      2 C2         209.3539  42.5893  11.4689 C.ar           1 RES1               0.0000
      3 C3         208.8759  43.9688  13.4431 C.2            1 RES1               0.0000
      4 C4         207.0102  43.1924  11.8721 C.2            1 RES1               0.0000
      5 C5         208.0536  41.6149  13.4832 C.3            1 RES1               0.0000
      6 C6         210.2534  43.5849  11.0996 C.ar           1 RES1               0.0000
      7 C7         209.4270  41.3664  10.8073 C.ar           1 RES1               0.0000
      8 N8         208.3044  45.2013  13.3237 N.am           1 RES1               0.0000
      9 O9         209.8312  43.7875  14.1879 O.2            1 RES1               0.0000
     10 N10        206.5129  44.4594  12.0314 N.am           1 RES1               0.0000
     11 O11        206.4172  42.3875  11.1645 O.2            1 RES1               0.0000
     12 C12        207.1898  41.9192  14.6971 C.3            1 RES1               0.0000
     13 C13        211.1939  43.3651  10.1070 C.ar           1 RES1               0.0000
     14 C14        210.3682  41.1487   9.8147 C.ar           1 RES1               0.0000
     15 C15        207.1169  45.4890  12.7002 C.2            1 RES1               0.0000
     16 C16        211.2523  42.1469   9.4642 C.ar           1 RES1               0.0000
     17 O17        206.6336  46.6163  12.7535 O.2            1 RES1               0.0000
     18 H18        207.5628  40.8358  12.8870 H              1 RES1               0.0000
     19 H19        209.0169  41.2176  13.8261 H              1 RES1               0.0000
     20 H20        210.2209  44.5508  11.5926 H              1 RES1               0.0000
     21 H21        208.7409  40.5670  11.0658 H              1 RES1               0.0000
     22 H22        208.8064  45.9811  13.7362 H              1 RES1               0.0000
     23 H23        205.6087  44.6528  11.6127 H              1 RES1               0.0000
     24 H24        207.0378  41.0241  15.2965 H              1 RES1               0.0000
     25 H25        207.6599  42.6724  15.3260 H              1 RES1               0.0000
     26 H26        206.2144  42.2928  14.3924 H              1 RES1               0.0000
     27 H27        211.8865  44.1544   9.8339 H              1 RES1               0.0000
     28 H28        210.4102  40.1886   9.3111 H              1 RES1               0.0000
     29 H29        211.9894  41.9748   8.6869 H              1 RES1               0.0000
@<TRIPOS>BOND
    1    1    2 1     
    2    1    3 1     
    3    1    4 1     
    4    1    5 1     
    5    2    6 ar    
    6    2    7 ar    
    7    3    8 1     
    8    3    9 2     
    9    4   10 1     
   10    4   11 2     
   11    5   12 1     
   12    5   18 1     
   13    5   19 1     
   14    6   13 ar    
   15    6   20 1     
   16    7   14 ar    
   17    7   21 1     
   18    8   15 1     
   19    8   22 1     
   20   10   15 1     
   21   10   23 1     
   22   12   24 1     
   23   12   25 1     
   24   12   26 1     
   25   13   16 ar    
   26   13   27 1     
   27   14   16 ar    
   28   14   28 1     
   29   15   17 2     
   30   16   29 1     
@<TRIPOS>SUBSTRUCTURE
      1 RES1           1
@<TRIPOS>SET
DONOR_HYDROGENS      STATIC     ATOMS    <user>   **** ""
2 22 23
ATOM$RED        STATIC     ATOMS    COLORGROUP SYSTEM
2 22 23
@<TRIPOS>COMMENT
> <Gold.Version>
2022.3.0

> <Gold.Id.Protein>
unknown|4v3u_clean|pdb

> <Gold.Protein.RotatedTorsions>
[ 8327 8303 8304 8305 ] final  133.46 input  100.38 | X-H torsion
[ 8365 8345 8346 8347 ] final  -94.68 input   76.03 | X-H torsion
[ 8445 8397 8398 8399 ] final  164.42 input  108.00 | X-H torsion
[ 8511 8487 8488 8489 ] final  -35.12 input   86.22 | X-H torsion
[ 9080 9050 9049 9047 ] final  -31.03 input   59.99 | X-H torsion
[ 8251 8229 8230 8231 ] final -159.87 input   84.12 | X-H torsion
[ 8553 8531 8532 8533 ] final   68.52 input  114.02 | X-H torsion
[ 10323 10307 10308 10309 ] final  171.89 input   62.28 | X-H torsion
[ 27205 8306 8305 8304 ] final  -83.82 input   -0.00 | X-H torsion
[ 27220 8348 8347 8346 ] final  133.94 input    0.00 | X-H torsion
[ 27222 8400 8399 8398 ] final  -59.56 input    0.00 | X-H torsion
[ 27224 8160 8159 8158 ] final   14.08 input    0.00 | X-H torsion
[ 27226 8232 8231 8230 ] final  -53.31 input    0.00 | X-H torsion
[ 27230 10310 10309 10308 ] final   32.05 input   -0.00 | X-H torsion

> <Gold.Protein.ActiveResidues>
 ASP403  LEU406  ILE407  GLN430  VAL431  PHE432  ASP433  ALA434  ARG435  ASP436 
 CYS437  TYR446  ASN449  THR465  ILE466 

> <Gold.Protein.RotatedAtoms>
  220.2002   39.7803   10.5655 H   0  0  0  0  0  0  0  0  0  0  0  0  # atno 8251 bound_to 8229
  216.6290   41.0455   10.8262 H   0  0  0  0  0  0  0  0  0  0  0  0  # atno 8327 bound_to 8303
  213.5923   39.2739   10.3268 H   0  0  0  0  0  0  0  0  0  0  0  0  # atno 8365 bound_to 8345
  211.5725   38.2593   11.4178 H   0  0  0  0  0  0  0  0  0  0  0  0  # atno 8445 bound_to 8397
  208.5141   38.0345    9.7459 H   0  0  0  0  0  0  0  0  0  0  0  0  # atno 8511 bound_to 8487
  207.9545   37.0606    8.5344 H   0  0  0  0  0  0  0  0  0  0  0  0  # atno 8553 bound_to 8531
  212.2256   40.0827    6.9953 H   0  0  0  0  0  0  0  0  0  0  0  0  # atno 9080 bound_to 9050
  217.0811   35.3968   11.8558 H   0  0  0  0  0  0  0  0  0  0  0  0  # atno 10323 bound_to 10307
  216.4710   39.4759   10.0643 LP  0  0  0  0  0  0  0  0  0  0  0  0  # atno 27204 bound_to 8303
  212.4788   40.8944    9.6705 LP  0  0  0  0  0  0  0  0  0  0  0  0  # atno 27205 bound_to 8306
  213.6642   40.4278    8.4970 LP  0  0  0  0  0  0  0  0  0  0  0  0  # atno 27206 bound_to 8306
  213.9829   37.6564   10.8521 LP  0  0  0  0  0  0  0  0  0  0  0  0  # atno 27211 bound_to 8345
  210.7779   38.3838    9.8687 LP  0  0  0  0  0  0  0  0  0  0  0  0  # atno 27212 bound_to 8397
  208.9232   39.7286    9.8746 LP  0  0  0  0  0  0  0  0  0  0  0  0  # atno 27213 bound_to 8487
  210.8370   39.4102    6.4792 LP  0  0  0  0  0  0  0  0  0  0  0  0  # atno 27218 bound_to 9050
  211.7164   40.3492    5.4734 LP  0  0  0  0  0  0  0  0  0  0  0  0  # atno 27219 bound_to 9050
  209.9804   35.9152   10.0325 LP  0  0  0  0  0  0  0  0  0  0  0  0  # atno 27220 bound_to 8348
  210.3433   36.4442    8.4236 LP  0  0  0  0  0  0  0  0  0  0  0  0  # atno 27221 bound_to 8348
  206.8558   37.0339   11.2444 LP  0  0  0  0  0  0  0  0  0  0  0  0  # atno 27222 bound_to 8400
  206.3530   38.6911   11.2748 LP  0  0  0  0  0  0  0  0  0  0  0  0  # atno 27223 bound_to 8400
  219.9444   42.2413   11.6939 LP  0  0  0  0  0  0  0  0  0  0  0  0  # atno 27224 bound_to 8160
  218.5906   41.7027   10.7573 LP  0  0  0  0  0  0  0  0  0  0  0  0  # atno 27225 bound_to 8160
  216.7376   37.2726   10.0963 LP  0  0  0  0  0  0  0  0  0  0  0  0  # atno 27226 bound_to 8232
  216.3817   37.8176   11.7014 LP  0  0  0  0  0  0  0  0  0  0  0  0  # atno 27227 bound_to 8232
  219.1682   38.7252   11.4998 LP  0  0  0  0  0  0  0  0  0  0  0  0  # atno 27228 bound_to 8229
  207.6882   38.2199    7.2464 LP  0  0  0  0  0  0  0  0  0  0  0  0  # atno 27229 bound_to 8531
  213.7761   36.7784   11.5201 LP  0  0  0  0  0  0  0  0  0  0  0  0  # atno 27230 bound_to 10310
  212.2292   36.1704   12.0073 LP  0  0  0  0  0  0  0  0  0  0  0  0  # atno 27231 bound_to 10310

> <Gold.Score>
     Fitness  S(hb_ext) S(vdw_ext)  S(hb_int)    S(int)      intcor
     28.41       0.00      21.38       0.00      -0.99      -0.78

> <Gold.Goldscore.Fitness>
28.4128

> <Gold.Goldscore.Internal.Vdw>
-1.2843

> <Gold.Goldscore.Internal.Torsion>
-0.4856

> <Gold.Goldscore.External.Vdw>
21.3810

> <Gold.Goldscore.Internal.HBond>
0.0000

> <Gold.Goldscore.External.HBond>
0.0000

> <Gold.Goldscore.Internal.Correction>
-0.7838

> <Gold.Goldscore.Internal.Vdw.Weighted>
-1.2843

> <Gold.Goldscore.Internal.Torsion.Weighted>
-0.4856

> <Gold.Goldscore.External.Vdw.Weighted>
29.3988

> <Gold.Goldscore.Internal.HBond.Weighted>
0.0000

> <Gold.Goldscore.External.HBond.Weighted>
0.0000

> <Gold.Goldscore.Internal.Correction.Weighted>
-0.7838

> <Gold.Rescore>
     Score     S(PLP)   S(hbond)     S(cho)   S(metal)  DE(clash)   DE(tors)     intcor
     24.76     -27.00       0.00       0.00       0.00       0.00       1.12       ----

> <Gold.PLP.Fitness>
24.7631

> <Gold.PLP.PLP>
-27.0023

> <Gold.PLP.part.hbond>
-1.0000

> <Gold.PLP.part.metal>
0.0000

> <Gold.PLP.part.buried>
-4.6124

> <Gold.PLP.part.nonpolar>
-21.8558

> <Gold.PLP.part.repulsive>
0.2125

> <Gold.PLP.ligand.clash>
0.0000

> <Gold.PLP.ligand.torsion>
1.1196

> <Gold.PLP.Chemscore.Hbond>
0.0000

> <Gold.PLP.Chemscore.CHOScore>
0.0000

> <Gold.PLP.Chemscore.Metal>
0.0000

> <Gold.PLP.Chemscore.Internal.Correction>
   9.000000E+99

