#       Name:                CT1002167954
#       Creating user name   hitesit
#       Creation time:       Sun Apr 16 20:29:11 2023


#       File generated by GOLD software.
#

@<TRIPOS>MOLECULE
CT1002167954|ligand_prepared|mol2|1|dock2
    29    30     1
SMALL
NO_CHARGES


@<TRIPOS>ATOM
      1 C1         208.4014  42.9252  12.5035 C.3            1 RES1               0.0000
      2 C2         209.4537  42.6576  11.4081 C.ar           1 RES1               0.0000
      3 C3         208.9194  44.1090  13.3151 C.2            1 RES1               0.0000
      4 C4         207.0886  43.1958  11.7769 C.2            1 RES1               0.0000
      5 C5         208.1798  41.7319  13.4619 C.3            1 RES1               0.0000
      6 C6         209.5320  41.4133  10.7896 C.ar           1 RES1               0.0000
      7 C7         210.3495  43.6440  11.0043 C.ar           1 RES1               0.0000
      8 N8         208.3055  45.3138  13.1374 N.am           1 RES1               0.0000
      9 O9         209.8773  43.9960  14.0699 O.2            1 RES1               0.0000
     10 N10        206.5466  44.4505  11.8761 N.am           1 RES1               0.0000
     11 O11        206.5272  42.3387  11.1057 O.2            1 RES1               0.0000
     12 C12        207.3574  42.0788  14.6929 C.3            1 RES1               0.0000
     13 C13        210.4699  41.1651   9.8011 C.ar           1 RES1               0.0000
     14 C14        211.2868  43.3935  10.0158 C.ar           1 RES1               0.0000
     15 C15        207.1113  45.5305  12.4982 C.2            1 RES1               0.0000
     16 C16        211.3475  42.1550   9.4132 C.ar           1 RES1               0.0000
     17 O17        206.5886  46.6413  12.4981 O.2            1 RES1               0.0000
     18 H18        207.6731  40.9281  12.9137 H              1 RES1               0.0000
     19 H19        209.1570  41.3528  13.7855 H              1 RES1               0.0000
     20 H20        208.8512  40.6213  11.0834 H              1 RES1               0.0000
     21 H21        210.3208  44.6255  11.4652 H              1 RES1               0.0000
     22 H22        208.7782  46.1290  13.5146 H              1 RES1               0.0000
     23 H23        205.6379  44.5925  11.4466 H              1 RES1               0.0000
     24 H24        207.2319  41.2068  15.3313 H              1 RES1               0.0000
     25 H25        207.8447  42.8579  15.2755 H              1 RES1               0.0000
     26 H26        206.3696  42.4358  14.4088 H              1 RES1               0.0000
     27 H27        210.5144  40.1882   9.3310 H              1 RES1               0.0000
     28 H28        211.9760  44.1754   9.7141 H              1 RES1               0.0000
     29 H29        212.0819  41.9604   8.6386 H              1 RES1               0.0000
@<TRIPOS>BOND
    1    1    2 1     
    2    1    3 1     
    3    1    4 1     
    4    1    5 1     
    5    2    6 ar    
    6    2    7 ar    
    7    3    8 1     
    8    3    9 2     
    9    4   10 1     
   10    4   11 2     
   11    5   12 1     
   12    5   18 1     
   13    5   19 1     
   14    6   13 ar    
   15    6   20 1     
   16    7   14 ar    
   17    7   21 1     
   18    8   15 1     
   19    8   22 1     
   20   10   15 1     
   21   10   23 1     
   22   12   24 1     
   23   12   25 1     
   24   12   26 1     
   25   13   16 ar    
   26   13   27 1     
   27   14   16 ar    
   28   14   28 1     
   29   15   17 2     
   30   16   29 1     
@<TRIPOS>SUBSTRUCTURE
      1 RES1           1
@<TRIPOS>SET
DONOR_HYDROGENS      STATIC     ATOMS    <user>   **** ""
2 22 23
ATOM$RED        STATIC     ATOMS    COLORGROUP SYSTEM
2 22 23
@<TRIPOS>COMMENT
> <Gold.Version>
2022.3.0

> <Gold.Id.Protein>
unknown|4v3u_clean|pdb

> <Gold.Protein.RotatedTorsions>
[ 8327 8303 8304 8305 ] final -159.23 input  100.38 | X-H torsion
[ 8365 8345 8346 8347 ] final   70.84 input   76.03 | X-H torsion
[ 8445 8397 8398 8399 ] final  -78.40 input  108.00 | X-H torsion
[ 8511 8487 8488 8489 ] final    0.34 input   86.22 | X-H torsion
[ 9080 9050 9049 9047 ] final -146.82 input   59.99 | X-H torsion
[ 8251 8229 8230 8231 ] final  -43.47 input   84.12 | X-H torsion
[ 8553 8531 8532 8533 ] final   68.84 input  114.02 | X-H torsion
[ 10323 10307 10308 10309 ] final   67.23 input   62.28 | X-H torsion
[ 27205 8306 8305 8304 ] final  103.95 input   -0.00 | X-H torsion
[ 27220 8348 8347 8346 ] final  -15.29 input    0.00 | X-H torsion
[ 27222 8400 8399 8398 ] final -129.76 input    0.00 | X-H torsion
[ 27224 8160 8159 8158 ] final  -42.26 input    0.00 | X-H torsion
[ 27226 8232 8231 8230 ] final   70.53 input    0.00 | X-H torsion
[ 27230 10310 10309 10308 ] final   32.24 input   -0.00 | X-H torsion

> <Gold.Protein.ActiveResidues>
 ASP403  LEU406  ILE407  GLN430  VAL431  PHE432  ASP433  ALA434  ARG435  ASP436 
 CYS437  TYR446  ASN449  THR465  ILE466 

> <Gold.Protein.RotatedAtoms>
  219.1939   39.6300   11.6677 H   0  0  0  0  0  0  0  0  0  0  0  0  # atno 8251 bound_to 8229
  216.9208   40.1992   11.2482 H   0  0  0  0  0  0  0  0  0  0  0  0  # atno 8327 bound_to 8303
  213.8224   37.6816   11.0010 H   0  0  0  0  0  0  0  0  0  0  0  0  # atno 8365 bound_to 8345
  211.0805   37.5809   10.1712 H   0  0  0  0  0  0  0  0  0  0  0  0  # atno 8445 bound_to 8397
  208.8514   38.1529    9.3430 H   0  0  0  0  0  0  0  0  0  0  0  0  # atno 8511 bound_to 8487
  207.9594   37.0609    8.5337 H   0  0  0  0  0  0  0  0  0  0  0  0  # atno 8553 bound_to 8531
  210.8675   39.4028    6.5411 H   0  0  0  0  0  0  0  0  0  0  0  0  # atno 9080 bound_to 9050
  216.1210   36.2511   11.3083 H   0  0  0  0  0  0  0  0  0  0  0  0  # atno 10323 bound_to 10307
  216.1903   40.2900    9.6583 LP  0  0  0  0  0  0  0  0  0  0  0  0  # atno 27204 bound_to 8303
  213.5877   40.3449    8.4645 LP  0  0  0  0  0  0  0  0  0  0  0  0  # atno 27205 bound_to 8306
  212.5552   40.9773    9.7030 LP  0  0  0  0  0  0  0  0  0  0  0  0  # atno 27206 bound_to 8306
  213.7563   39.2242   10.1882 LP  0  0  0  0  0  0  0  0  0  0  0  0  # atno 27211 bound_to 8345
  211.2617   39.0509   11.0947 LP  0  0  0  0  0  0  0  0  0  0  0  0  # atno 27212 bound_to 8397
  208.5940   39.6131   10.2679 LP  0  0  0  0  0  0  0  0  0  0  0  0  # atno 27213 bound_to 8487
  211.6571   40.3196    5.4536 LP  0  0  0  0  0  0  0  0  0  0  0  0  # atno 27218 bound_to 9050
  212.2648   40.1250    6.9568 LP  0  0  0  0  0  0  0  0  0  0  0  0  # atno 27219 bound_to 9050
  210.6710   36.1396    8.5286 LP  0  0  0  0  0  0  0  0  0  0  0  0  # atno 27220 bound_to 8348
  209.6528   36.2199    9.9275 LP  0  0  0  0  0  0  0  0  0  0  0  0  # atno 27221 bound_to 8348
  206.4227   37.5150   10.4875 LP  0  0  0  0  0  0  0  0  0  0  0  0  # atno 27222 bound_to 8400
  206.7862   38.2100   12.0317 LP  0  0  0  0  0  0  0  0  0  0  0  0  # atno 27223 bound_to 8400
  219.2465   42.0733   12.0854 LP  0  0  0  0  0  0  0  0  0  0  0  0  # atno 27224 bound_to 8160
  219.2885   41.8708   10.3658 LP  0  0  0  0  0  0  0  0  0  0  0  0  # atno 27225 bound_to 8160
  217.1490   37.6009   11.5310 LP  0  0  0  0  0  0  0  0  0  0  0  0  # atno 27226 bound_to 8232
  215.9704   37.4893   10.2667 LP  0  0  0  0  0  0  0  0  0  0  0  0  # atno 27227 bound_to 8232
  220.1537   38.8724   10.4204 LP  0  0  0  0  0  0  0  0  0  0  0  0  # atno 27228 bound_to 8229
  207.6835   38.2196    7.2471 LP  0  0  0  0  0  0  0  0  0  0  0  0  # atno 27229 bound_to 8531
  213.7756   36.7774   11.5173 LP  0  0  0  0  0  0  0  0  0  0  0  0  # atno 27230 bound_to 10310
  212.2297   36.1713   12.0101 LP  0  0  0  0  0  0  0  0  0  0  0  0  # atno 27231 bound_to 10310

> <Gold.Score>
     Fitness  S(hb_ext) S(vdw_ext)  S(hb_int)    S(int)      intcor
     28.13       0.00      21.16       0.00      -0.96      -0.78

> <Gold.Goldscore.Fitness>
28.1340

> <Gold.Goldscore.Internal.Vdw>
-1.1675

> <Gold.Goldscore.Internal.Torsion>
-0.5757

> <Gold.Goldscore.External.Vdw>
21.1588

> <Gold.Goldscore.Internal.HBond>
0.0000

> <Gold.Goldscore.External.HBond>
0.0000

> <Gold.Goldscore.Internal.Correction>
-0.7838

> <Gold.Goldscore.Internal.Vdw.Weighted>
-1.1675

> <Gold.Goldscore.Internal.Torsion.Weighted>
-0.5757

> <Gold.Goldscore.External.Vdw.Weighted>
29.0934

> <Gold.Goldscore.Internal.HBond.Weighted>
0.0000

> <Gold.Goldscore.External.HBond.Weighted>
0.0000

> <Gold.Goldscore.Internal.Correction.Weighted>
-0.7838

> <Gold.Rescore>
     Score     S(PLP)   S(hbond)     S(cho)   S(metal)  DE(clash)   DE(tors)     intcor
     24.40     -26.00       0.00       0.00       0.00       0.00       0.80       ----

> <Gold.PLP.Fitness>
24.3992

> <Gold.PLP.PLP>
-26.0047

> <Gold.PLP.part.hbond>
-1.0000

> <Gold.PLP.part.metal>
0.0000

> <Gold.PLP.part.buried>
-4.8060

> <Gold.PLP.part.nonpolar>
-20.9293

> <Gold.PLP.part.repulsive>
0.2076

> <Gold.PLP.ligand.clash>
0.0000

> <Gold.PLP.ligand.torsion>
0.8027

> <Gold.PLP.Chemscore.Hbond>
0.0000

> <Gold.PLP.Chemscore.CHOScore>
0.0000

> <Gold.PLP.Chemscore.Metal>
0.0000

> <Gold.PLP.Chemscore.Internal.Correction>
   9.000000E+99

