#       Name:                CT1002167954
#       Creating user name   hitesit
#       Creation time:       Sun Apr 16 20:29:13 2023


#       File generated by GOLD software.
#

@<TRIPOS>MOLECULE
CT1002167954|ligand_prepared|mol2|1|dock6
    29    30     1
SMALL
NO_CHARGES


@<TRIPOS>ATOM
      1 C1         213.2565  43.6896   8.3671 C.3            1 RES1               0.0000
      2 C2         212.1121  43.0085   9.1450 C.ar           1 RES1               0.0000
      3 C3         213.8275  44.7589   9.2939 C.2            1 RES1               0.0000
      4 C4         214.2446  42.5853   8.0081 C.2            1 RES1               0.0000
      5 C5         212.8018  44.3692   7.0545 C.3            1 RES1               0.0000
      6 C6         211.3849  41.9700   8.5710 C.ar           1 RES1               0.0000
      7 C7         211.7742  43.4051  10.4362 C.ar           1 RES1               0.0000
      8 N8         215.0398  44.5148   9.8689 N.am           1 RES1               0.0000
      9 O9         213.2055  45.7831   9.5474 O.2            1 RES1               0.0000
     10 N10        215.4910  42.6295   8.5758 N.am           1 RES1               0.0000
     11 O11        213.9495  41.6683   7.2517 O.2            1 RES1               0.0000
     12 C12        213.9226  45.0790   6.3114 C.3            1 RES1               0.0000
     13 C13        210.3591  41.3485   9.2636 C.ar           1 RES1               0.0000
     14 C14        210.7478  42.7824  11.1270 C.ar           1 RES1               0.0000
     15 C15        215.9231  43.5272   9.5138 C.2            1 RES1               0.0000
     16 C16        210.0401  41.7539  10.5421 C.ar           1 RES1               0.0000
     17 O17        217.0407  43.4694  10.0184 O.2            1 RES1               0.0000
     18 H18        212.3675  43.6079   6.3948 H              1 RES1               0.0000
     19 H19        212.0160  45.0981   7.2880 H              1 RES1               0.0000
     20 H20        211.6199  41.6390   7.5649 H              1 RES1               0.0000
     21 H21        212.3166  44.2128  10.9159 H              1 RES1               0.0000
     22 H22        215.3150  45.1227  10.6338 H              1 RES1               0.0000
     23 H23        216.1586  41.9283   8.2709 H              1 RES1               0.0000
     24 H24        213.5496  45.5384   5.3984 H              1 RES1               0.0000
     25 H25        214.3608  45.8601   6.9292 H              1 RES1               0.0000
     26 H26        214.7102  44.3787   6.0412 H              1 RES1               0.0000
     27 H27        209.8043  40.5405   8.7983 H              1 RES1               0.0000
     28 H28        210.4998  43.1052  12.1328 H              1 RES1               0.0000
     29 H29        209.2368  41.2666  11.0846 H              1 RES1               0.0000
@<TRIPOS>BOND
    1    1    2 1     
    2    1    3 1     
    3    1    4 1     
    4    1    5 1     
    5    2    6 ar    
    6    2    7 ar    
    7    3    8 1     
    8    3    9 2     
    9    4   10 1     
   10    4   11 2     
   11    5   12 1     
   12    5   18 1     
   13    5   19 1     
   14    6   13 ar    
   15    6   20 1     
   16    7   14 ar    
   17    7   21 1     
   18    8   15 1     
   19    8   22 1     
   20   10   15 1     
   21   10   23 1     
   22   12   24 1     
   23   12   25 1     
   24   12   26 1     
   25   13   16 ar    
   26   13   27 1     
   27   14   16 ar    
   28   14   28 1     
   29   15   17 2     
   30   16   29 1     
@<TRIPOS>SUBSTRUCTURE
      1 RES1           1
@<TRIPOS>SET
DONOR_HYDROGENS      STATIC     ATOMS    <user>   **** ""
2 22 23
ATOM$RED        STATIC     ATOMS    COLORGROUP SYSTEM
2 22 23
@<TRIPOS>COMMENT
> <Gold.Version>
2022.3.0

> <Gold.Id.Protein>
unknown|4v3u_clean|pdb

> <Gold.Protein.RotatedTorsions>
[ 8327 8303 8304 8305 ] final   95.40 input  100.38 | X-H torsion
[ 8365 8345 8346 8347 ] final -138.93 input   76.03 | X-H torsion
[ 8445 8397 8398 8399 ] final  -81.12 input  108.00 | X-H torsion
[ 8511 8487 8488 8489 ] final -113.52 input   86.22 | X-H torsion
[ 9080 9050 9049 9047 ] final   -4.20 input   59.99 | X-H torsion
[ 8251 8229 8230 8231 ] final   61.93 input   84.12 | X-H torsion
[ 8553 8531 8532 8533 ] final   95.18 input  114.02 | X-H torsion
[ 10323 10307 10308 10309 ] final  -81.56 input   62.28 | X-H torsion
[ 27205 8306 8305 8304 ] final  -16.93 input   -0.00 | X-H torsion
[ 27220 8348 8347 8346 ] final -100.62 input    0.00 | X-H torsion
[ 27222 8400 8399 8398 ] final   90.35 input    0.00 | X-H torsion
[ 27224 8160 8159 8158 ] final  -71.57 input    0.00 | X-H torsion
[ 27226 8232 8231 8230 ] final -160.83 input    0.00 | X-H torsion
[ 27230 10310 10309 10308 ] final    2.91 input   -0.00 | X-H torsion

> <Gold.Protein.ActiveResidues>
 ASP403  LEU406  ILE407  GLN430  VAL431  PHE432  ASP433  ALA434  ARG435  ASP436 
 CYS437  TYR446  ASN449  THR465  ILE466 

> <Gold.Protein.RotatedAtoms>
  219.4764   38.3890   11.0749 H   0  0  0  0  0  0  0  0  0  0  0  0  # atno 8251 bound_to 8229
  216.3754   41.1116   10.3064 H   0  0  0  0  0  0  0  0  0  0  0  0  # atno 8327 bound_to 8303
  214.0971   39.0155    9.9846 H   0  0  0  0  0  0  0  0  0  0  0  0  # atno 8365 bound_to 8345
  211.0996   37.5603   10.2021 H   0  0  0  0  0  0  0  0  0  0  0  0  # atno 8445 bound_to 8397
  208.1714   38.7891   10.4961 H   0  0  0  0  0  0  0  0  0  0  0  0  # atno 8511 bound_to 8487
  208.3365   37.1488    8.4053 H   0  0  0  0  0  0  0  0  0  0  0  0  # atno 8553 bound_to 8531
  212.3852   40.3108    6.6622 H   0  0  0  0  0  0  0  0  0  0  0  0  # atno 9080 bound_to 9050
  216.3871   34.6238   10.8956 H   0  0  0  0  0  0  0  0  0  0  0  0  # atno 10323 bound_to 10307
  216.7150   39.4123   10.5644 LP  0  0  0  0  0  0  0  0  0  0  0  0  # atno 27204 bound_to 8303
  213.3218   41.3313    9.5718 LP  0  0  0  0  0  0  0  0  0  0  0  0  # atno 27205 bound_to 8306
  212.8212   39.9909    8.5957 LP  0  0  0  0  0  0  0  0  0  0  0  0  # atno 27206 bound_to 8306
  213.4859   37.9108   11.1890 LP  0  0  0  0  0  0  0  0  0  0  0  0  # atno 27211 bound_to 8345
  211.2429   39.0712   11.0643 LP  0  0  0  0  0  0  0  0  0  0  0  0  # atno 27212 bound_to 8397
  209.2577   38.9921    9.1423 LP  0  0  0  0  0  0  0  0  0  0  0  0  # atno 27213 bound_to 8487
  211.0522   39.3994    6.8600 LP  0  0  0  0  0  0  0  0  0  0  0  0  # atno 27218 bound_to 9050
  211.3404   40.1301    5.4283 LP  0  0  0  0  0  0  0  0  0  0  0  0  # atno 27219 bound_to 9050
  209.7047   36.7589    8.7746 LP  0  0  0  0  0  0  0  0  0  0  0  0  # atno 27220 bound_to 8348
  210.6190   35.6006    9.6815 LP  0  0  0  0  0  0  0  0  0  0  0  0  # atno 27221 bound_to 8348
  206.5291   38.6151   11.6814 LP  0  0  0  0  0  0  0  0  0  0  0  0  # atno 27222 bound_to 8400
  206.6797   37.1099   10.8378 LP  0  0  0  0  0  0  0  0  0  0  0  0  # atno 27223 bound_to 8400
  218.8442   41.9349   11.9802 LP  0  0  0  0  0  0  0  0  0  0  0  0  # atno 27224 bound_to 8160
  219.6908   42.0092   10.4710 LP  0  0  0  0  0  0  0  0  0  0  0  0  # atno 27225 bound_to 8160
  215.7157   37.7374   10.9278 LP  0  0  0  0  0  0  0  0  0  0  0  0  # atno 27226 bound_to 8232
  217.4036   37.3529   10.8699 LP  0  0  0  0  0  0  0  0  0  0  0  0  # atno 27227 bound_to 8232
  219.8770   40.0876   11.0010 LP  0  0  0  0  0  0  0  0  0  0  0  0  # atno 27228 bound_to 8229
  207.3223   38.1355    7.3700 LP  0  0  0  0  0  0  0  0  0  0  0  0  # atno 27229 bound_to 8531
  213.7517   36.8692   11.9455 LP  0  0  0  0  0  0  0  0  0  0  0  0  # atno 27230 bound_to 10310
  212.2536   36.0796   11.5819 LP  0  0  0  0  0  0  0  0  0  0  0  0  # atno 27231 bound_to 10310

> <Gold.Score>
     Fitness  S(hb_ext) S(vdw_ext)  S(hb_int)    S(int)      intcor
     25.65       2.65      19.06       0.00      -3.21      -0.77

> <Gold.Goldscore.Fitness>
25.6478

> <Gold.Goldscore.Internal.Vdw>
-3.6021

> <Gold.Goldscore.Internal.Torsion>
-0.3737

> <Gold.Goldscore.External.Vdw>
19.0602

> <Gold.Goldscore.Internal.HBond>
0.0000

> <Gold.Goldscore.External.HBond>
2.6464

> <Gold.Goldscore.Internal.Correction>
-0.7693

> <Gold.Goldscore.Hbonds>
donor molecule, donor type, donor heavy atom, donor atom, acceptor molecule, acceptor atom, score
      P1  H  8303  8327       L1    17  0.32
      P1  H  9050  9080       L1    11  1.00

> <Gold.Goldscore.Internal.Vdw.Weighted>
-3.6021

> <Gold.Goldscore.Internal.Torsion.Weighted>
-0.3737

> <Gold.Goldscore.External.Vdw.Weighted>
26.2078

> <Gold.Goldscore.Internal.HBond.Weighted>
0.0000

> <Gold.Goldscore.External.HBond.Weighted>
2.6464

> <Gold.Goldscore.Internal.Correction.Weighted>
-0.7693

> <Gold.Rescore>
     Score     S(PLP)   S(hbond)     S(cho)   S(metal)  DE(clash)   DE(tors)     intcor
     21.96     -19.95       1.80       0.00       0.00       1.25       1.07       ----

> <Gold.PLP.Fitness>
21.9628

> <Gold.PLP.PLP>
-19.9452

> <Gold.PLP.part.hbond>
-3.0000

> <Gold.PLP.part.metal>
0.0000

> <Gold.PLP.part.buried>
-1.3949

> <Gold.PLP.part.nonpolar>
-18.7722

> <Gold.PLP.part.repulsive>
3.4415

> <Gold.PLP.ligand.clash>
1.2514

> <Gold.PLP.ligand.torsion>
1.0657

> <Gold.PLP.Chemscore.Hbond>
1.8001

> <Gold.PLP.Chemscore.CHOScore>
0.0000

> <Gold.PLP.Chemscore.Metal>
0.0000

> <Gold.Chemscore.Hbonds>
donor molecule, donor type, donor heavy atom, donor atom, acceptor molecule, acceptor atom, score
      P1  H  9050  9080       L1    11  0.86

> <Gold.PLP.Chemscore.Internal.Correction>
   9.000000E+99

