#       Name:                GA Fitting Points
#       Creating user name   hitesit
#       Creation time:       Sun Apr 16 02:22:26 2023


#       Fitting Points Used by GA Software.
#

@<TRIPOS>MOLECULE
GA Fitting Points
   937    0    0
SMALL
NO_CHARGES


@<TRIPOS>ATOM
      1 ****        -1.0000 -26.2500 -45.0000 Du        
      2 ****        -1.0000 -26.0000 -45.2500 Du        
      3 ****        -1.0000 -26.0000 -45.0000 Du        
      4 ****        -1.0000 -26.0000 -44.7500 Du        
      5 ****        -1.0000 -26.0000 -44.5000 Du        
      6 ****        -1.0000 -25.7500 -45.2500 Du        
      7 ****        -1.0000 -25.7500 -45.0000 Du        
      8 ****        -1.0000 -25.7500 -44.7500 Du        
      9 ****        -1.0000 -25.7500 -44.5000 Du        
     10 ****        -1.0000 -25.7500 -44.2500 Du        
     11 ****        -1.0000 -25.7500 -44.0000 Du        
     12 ****        -1.0000 -25.7500 -43.7500 Du        
     13 ****        -1.0000 -25.5000 -45.2500 Du        
     14 ****        -1.0000 -25.5000 -45.0000 Du        
     15 ****        -1.0000 -25.5000 -44.7500 Du        
     16 ****        -1.0000 -25.5000 -44.5000 Du        
     17 ****        -1.0000 -25.5000 -44.2500 Du        
     18 ****        -1.0000 -25.5000 -44.0000 Du        
     19 ****        -1.0000 -25.5000 -43.7500 Du        
     20 ****        -1.0000 -25.5000 -43.5000 Du        
     21 ****        -1.0000 -25.5000 -43.2500 Du        
     22 ****        -1.0000 -25.2500 -45.2500 Du        
     23 ****        -1.0000 -25.2500 -45.0000 Du        
     24 ****        -1.0000 -25.2500 -44.7500 Du        
     25 ****        -1.0000 -25.2500 -44.5000 Du        
     26 ****        -1.0000 -25.2500 -44.2500 Du        
     27 ****        -1.0000 -25.2500 -44.0000 Du        
     28 ****        -1.0000 -25.2500 -43.7500 Du        
     29 ****        -1.0000 -25.2500 -43.5000 Du        
     30 ****        -1.0000 -25.2500 -43.2500 Du        
     31 ****        -1.0000 -25.2500 -43.0000 Du        
     32 ****        -1.0000 -25.0000 -45.0000 Du        
     33 ****        -1.0000 -25.0000 -44.7500 Du        
     34 ****        -1.0000 -25.0000 -44.5000 Du        
     35 ****        -1.0000 -25.0000 -44.2500 Du        
     36 ****        -1.0000 -25.0000 -44.0000 Du        
     37 ****        -1.0000 -25.0000 -43.7500 Du        
     38 ****        -1.0000 -25.0000 -43.5000 Du        
     39 ****        -1.0000 -25.0000 -43.2500 Du        
     40 ****        -0.7500 -26.2500 -45.2500 Du        
     41 ****        -0.7500 -26.2500 -45.0000 Du        
     42 ****        -0.7500 -26.2500 -44.7500 Du        
     43 ****        -0.7500 -26.0000 -45.2500 Du        
     44 ****        -0.7500 -26.0000 -45.0000 Du        
     45 ****        -0.7500 -26.0000 -44.7500 Du        
     46 ****        -0.7500 -26.0000 -44.5000 Du        
     47 ****        -0.7500 -26.0000 -44.2500 Du        
     48 ****        -0.7500 -26.0000 -44.0000 Du        
     49 ****        -0.7500 -25.7500 -45.2500 Du        
     50 ****        -0.7500 -25.7500 -45.0000 Du        
     51 ****        -0.7500 -25.7500 -44.7500 Du        
     52 ****        -0.7500 -25.7500 -44.5000 Du        
     53 ****        -0.7500 -25.7500 -44.2500 Du        
     54 ****        -0.7500 -25.7500 -44.0000 Du        
     55 ****        -0.7500 -25.7500 -43.7500 Du        
     56 ****        -0.7500 -25.7500 -43.5000 Du        
     57 ****        -0.7500 -25.7500 -43.2500 Du        
     58 ****        -0.7500 -25.5000 -45.5000 Du        
     59 ****        -0.7500 -25.5000 -45.2500 Du        
     60 ****        -0.7500 -25.5000 -45.0000 Du        
     61 ****        -0.7500 -25.5000 -44.7500 Du        
     62 ****        -0.7500 -25.5000 -44.5000 Du        
     63 ****        -0.7500 -25.5000 -44.2500 Du        
     64 ****        -0.7500 -25.5000 -44.0000 Du        
     65 ****        -0.7500 -25.5000 -43.7500 Du        
     66 ****        -0.7500 -25.5000 -43.5000 Du        
     67 ****        -0.7500 -25.5000 -43.2500 Du        
     68 ****        -0.7500 -25.5000 -43.0000 Du        
     69 ****        -0.7500 -25.2500 -45.5000 Du        
     70 ****        -0.7500 -25.2500 -45.2500 Du        
     71 ****        -0.7500 -25.2500 -45.0000 Du        
     72 ****        -0.7500 -25.2500 -44.7500 Du        
     73 ****        -0.7500 -25.2500 -44.5000 Du        
     74 ****        -0.7500 -25.2500 -44.2500 Du        
     75 ****        -0.7500 -25.2500 -44.0000 Du        
     76 ****        -0.7500 -25.2500 -43.7500 Du        
     77 ****        -0.7500 -25.2500 -43.5000 Du        
     78 ****        -0.7500 -25.2500 -43.2500 Du        
     79 ****        -0.7500 -25.2500 -43.0000 Du        
     80 ****        -0.7500 -25.2500 -42.7500 Du        
     81 ****        -0.7500 -25.0000 -45.2500 Du        
     82 ****        -0.7500 -25.0000 -45.0000 Du        
     83 ****        -0.7500 -25.0000 -44.7500 Du        
     84 ****        -0.7500 -25.0000 -44.5000 Du        
     85 ****        -0.7500 -25.0000 -44.2500 Du        
     86 ****        -0.7500 -25.0000 -44.0000 Du        
     87 ****        -0.7500 -25.0000 -43.7500 Du        
     88 ****        -0.7500 -25.0000 -43.5000 Du        
     89 ****        -0.7500 -25.0000 -43.2500 Du        
     90 ****        -0.7500 -25.0000 -43.0000 Du        
     91 ****        -0.7500 -25.0000 -42.7500 Du        
     92 ****        -0.5000 -26.2500 -45.2500 Du        
     93 ****        -0.5000 -26.2500 -45.0000 Du        
     94 ****        -0.5000 -26.2500 -44.7500 Du        
     95 ****        -0.5000 -26.2500 -44.5000 Du        
     96 ****        -0.5000 -26.0000 -45.2500 Du        
     97 ****        -0.5000 -26.0000 -45.0000 Du        
     98 ****        -0.5000 -26.0000 -44.7500 Du        
     99 ****        -0.5000 -26.0000 -44.5000 Du        
    100 ****        -0.5000 -26.0000 -44.2500 Du        
    101 ****        -0.5000 -26.0000 -44.0000 Du        
    102 ****        -0.5000 -26.0000 -43.7500 Du        
    103 ****        -0.5000 -26.0000 -43.5000 Du        
    104 ****        -0.5000 -25.7500 -45.5000 Du        
    105 ****        -0.5000 -25.7500 -45.2500 Du        
    106 ****        -0.5000 -25.7500 -45.0000 Du        
    107 ****        -0.5000 -25.7500 -44.7500 Du        
    108 ****        -0.5000 -25.7500 -44.5000 Du        
    109 ****        -0.5000 -25.7500 -44.2500 Du        
    110 ****        -0.5000 -25.7500 -44.0000 Du        
    111 ****        -0.5000 -25.7500 -43.7500 Du        
    112 ****        -0.5000 -25.7500 -43.5000 Du        
    113 ****        -0.5000 -25.7500 -43.2500 Du        
    114 ****        -0.5000 -25.7500 -43.0000 Du        
    115 ****        -0.5000 -25.5000 -45.5000 Du        
    116 ****        -0.5000 -25.5000 -45.2500 Du        
    117 ****        -0.5000 -25.5000 -45.0000 Du        
    118 ****        -0.5000 -25.5000 -44.7500 Du        
    119 ****        -0.5000 -25.5000 -44.5000 Du        
    120 ****        -0.5000 -25.5000 -44.2500 Du        
    121 ****        -0.5000 -25.5000 -44.0000 Du        
    122 ****        -0.5000 -25.5000 -43.7500 Du        
    123 ****        -0.5000 -25.5000 -43.5000 Du        
    124 ****        -0.5000 -25.5000 -43.2500 Du        
    125 ****        -0.5000 -25.5000 -43.0000 Du        
    126 ****        -0.5000 -25.5000 -42.7500 Du        
    127 ****        -0.5000 -25.2500 -45.5000 Du        
    128 ****        -0.5000 -25.2500 -45.2500 Du        
    129 ****        -0.5000 -25.2500 -45.0000 Du        
    130 ****        -0.5000 -25.2500 -44.7500 Du        
    131 ****        -0.5000 -25.2500 -44.5000 Du        
    132 ****        -0.5000 -25.2500 -44.2500 Du        
    133 ****        -0.5000 -25.2500 -44.0000 Du        
    134 ****        -0.5000 -25.2500 -43.7500 Du        
    135 ****        -0.5000 -25.2500 -43.5000 Du        
    136 ****        -0.5000 -25.2500 -43.2500 Du        
    137 ****        -0.5000 -25.2500 -43.0000 Du        
    138 ****        -0.5000 -25.2500 -42.7500 Du        
    139 ****        -0.5000 -25.0000 -45.5000 Du        
    140 ****        -0.5000 -25.0000 -45.2500 Du        
    141 ****        -0.5000 -25.0000 -45.0000 Du        
    142 ****        -0.5000 -25.0000 -44.7500 Du        
    143 ****        -0.5000 -25.0000 -44.5000 Du        
    144 ****        -0.5000 -25.0000 -44.2500 Du        
    145 ****        -0.5000 -25.0000 -44.0000 Du        
    146 ****        -0.5000 -25.0000 -43.7500 Du        
    147 ****        -0.5000 -25.0000 -43.5000 Du        
    148 ****        -0.5000 -25.0000 -43.2500 Du        
    149 ****        -0.5000 -25.0000 -43.0000 Du        
    150 ****        -0.5000 -25.0000 -42.7500 Du        
    151 ****        -0.5000 -24.7500 -43.2500 Du        
    152 ****        -0.5000 -24.7500 -43.0000 Du        
    153 ****        -0.5000 -24.7500 -42.7500 Du        
    154 ****        -0.2500 -26.2500 -45.0000 Du        
    155 ****        -0.2500 -26.2500 -44.7500 Du        
    156 ****        -0.2500 -26.2500 -44.5000 Du        
    157 ****        -0.2500 -26.2500 -44.2500 Du        
    158 ****        -0.2500 -26.2500 -44.0000 Du        
    159 ****        -0.2500 -26.0000 -45.5000 Du        
    160 ****        -0.2500 -26.0000 -45.2500 Du        
    161 ****        -0.2500 -26.0000 -45.0000 Du        
    162 ****        -0.2500 -26.0000 -44.7500 Du        
    163 ****        -0.2500 -26.0000 -44.5000 Du        
    164 ****        -0.2500 -26.0000 -44.2500 Du        
    165 ****        -0.2500 -26.0000 -44.0000 Du        
    166 ****        -0.2500 -26.0000 -43.7500 Du        
    167 ****        -0.2500 -26.0000 -43.5000 Du        
    168 ****        -0.2500 -26.0000 -43.2500 Du        
    169 ****        -0.2500 -26.0000 -43.0000 Du        
    170 ****        -0.2500 -26.0000 -42.7500 Du        
    171 ****        -0.2500 -25.7500 -45.5000 Du        
    172 ****        -0.2500 -25.7500 -45.2500 Du        
    173 ****        -0.2500 -25.7500 -45.0000 Du        
    174 ****        -0.2500 -25.7500 -44.7500 Du        
    175 ****        -0.2500 -25.7500 -44.5000 Du        
    176 ****        -0.2500 -25.7500 -44.2500 Du        
    177 ****        -0.2500 -25.7500 -44.0000 Du        
    178 ****        -0.2500 -25.7500 -43.7500 Du        
    179 ****        -0.2500 -25.7500 -43.5000 Du        
    180 ****        -0.2500 -25.7500 -43.2500 Du        
    181 ****        -0.2500 -25.7500 -43.0000 Du        
    182 ****        -0.2500 -25.7500 -42.7500 Du        
    183 ****        -0.2500 -25.5000 -45.7500 Du        
    184 ****        -0.2500 -25.5000 -45.5000 Du        
    185 ****        -0.2500 -25.5000 -45.2500 Du        
    186 ****        -0.2500 -25.5000 -45.0000 Du        
    187 ****        -0.2500 -25.5000 -44.7500 Du        
    188 ****        -0.2500 -25.5000 -44.5000 Du        
    189 ****        -0.2500 -25.5000 -44.2500 Du        
    190 ****        -0.2500 -25.5000 -44.0000 Du        
    191 ****        -0.2500 -25.5000 -43.7500 Du        
    192 ****        -0.2500 -25.5000 -43.5000 Du        
    193 ****        -0.2500 -25.5000 -43.2500 Du        
    194 ****        -0.2500 -25.5000 -43.0000 Du        
    195 ****        -0.2500 -25.5000 -42.7500 Du        
    196 ****        -0.2500 -25.2500 -45.7500 Du        
    197 ****        -0.2500 -25.2500 -45.5000 Du        
    198 ****        -0.2500 -25.2500 -45.2500 Du        
    199 ****        -0.2500 -25.2500 -45.0000 Du        
    200 ****        -0.2500 -25.2500 -44.7500 Du        
    201 ****        -0.2500 -25.2500 -44.5000 Du        
    202 ****        -0.2500 -25.2500 -44.2500 Du        
    203 ****        -0.2500 -25.2500 -44.0000 Du        
    204 ****        -0.2500 -25.2500 -43.7500 Du        
    205 ****        -0.2500 -25.2500 -43.5000 Du        
    206 ****        -0.2500 -25.2500 -43.2500 Du        
    207 ****        -0.2500 -25.2500 -43.0000 Du        
    208 ****        -0.2500 -25.2500 -42.7500 Du        
    209 ****        -0.2500 -25.2500 -42.5000 Du        
    210 ****        -0.2500 -25.0000 -45.7500 Du        
    211 ****        -0.2500 -25.0000 -45.5000 Du        
    212 ****        -0.2500 -25.0000 -45.2500 Du        
    213 ****        -0.2500 -25.0000 -45.0000 Du        
    214 ****        -0.2500 -25.0000 -44.7500 Du        
    215 ****        -0.2500 -25.0000 -44.5000 Du        
    216 ****        -0.2500 -25.0000 -44.2500 Du        
    217 ****        -0.2500 -25.0000 -44.0000 Du        
    218 ****        -0.2500 -25.0000 -43.7500 Du        
    219 ****        -0.2500 -25.0000 -43.5000 Du        
    220 ****        -0.2500 -25.0000 -43.2500 Du        
    221 ****        -0.2500 -25.0000 -43.0000 Du        
    222 ****        -0.2500 -25.0000 -42.7500 Du        
    223 ****        -0.2500 -25.0000 -42.5000 Du        
    224 ****        -0.2500 -24.7500 -43.0000 Du        
    225 ****        -0.2500 -24.7500 -42.7500 Du        
    226 ****         0.0000 -26.2500 -44.5000 Du        
    227 ****         0.0000 -26.2500 -44.2500 Du        
    228 ****         0.0000 -26.2500 -44.0000 Du        
    229 ****         0.0000 -26.2500 -43.7500 Du        
    230 ****         0.0000 -26.2500 -43.5000 Du        
    231 ****         0.0000 -26.2500 -43.2500 Du        
    232 ****         0.0000 -26.2500 -43.0000 Du        
    233 ****         0.0000 -26.2500 -42.7500 Du        
    234 ****         0.0000 -26.0000 -45.5000 Du        
    235 ****         0.0000 -26.0000 -45.2500 Du        
    236 ****         0.0000 -26.0000 -45.0000 Du        
    237 ****         0.0000 -26.0000 -44.7500 Du        
    238 ****         0.0000 -26.0000 -44.5000 Du        
    239 ****         0.0000 -26.0000 -44.2500 Du        
    240 ****         0.0000 -26.0000 -44.0000 Du        
    241 ****         0.0000 -26.0000 -43.7500 Du        
    242 ****         0.0000 -26.0000 -43.5000 Du        
    243 ****         0.0000 -26.0000 -43.2500 Du        
    244 ****         0.0000 -26.0000 -43.0000 Du        
    245 ****         0.0000 -26.0000 -42.7500 Du        
    246 ****         0.0000 -26.0000 -42.5000 Du        
    247 ****         0.0000 -25.7500 -45.7500 Du        
    248 ****         0.0000 -25.7500 -45.5000 Du        
    249 ****         0.0000 -25.7500 -45.2500 Du        
    250 ****         0.0000 -25.7500 -45.0000 Du        
    251 ****         0.0000 -25.7500 -44.7500 Du        
    252 ****         0.0000 -25.7500 -44.5000 Du        
    253 ****         0.0000 -25.7500 -44.2500 Du        
    254 ****         0.0000 -25.7500 -44.0000 Du        
    255 ****         0.0000 -25.7500 -43.7500 Du        
    256 ****         0.0000 -25.7500 -43.5000 Du        
    257 ****         0.0000 -25.7500 -43.2500 Du        
    258 ****         0.0000 -25.7500 -43.0000 Du        
    259 ****         0.0000 -25.7500 -42.7500 Du        
    260 ****         0.0000 -25.7500 -42.5000 Du        
    261 ****         0.0000 -25.5000 -46.0000 Du        
    262 ****         0.0000 -25.5000 -45.7500 Du        
    263 ****         0.0000 -25.5000 -45.5000 Du        
    264 ****         0.0000 -25.5000 -45.2500 Du        
    265 ****         0.0000 -25.5000 -45.0000 Du        
    266 ****         0.0000 -25.5000 -44.7500 Du        
    267 ****         0.0000 -25.5000 -44.5000 Du        
    268 ****         0.0000 -25.5000 -44.2500 Du        
    269 ****         0.0000 -25.5000 -44.0000 Du        
    270 ****         0.0000 -25.5000 -43.7500 Du        
    271 ****         0.0000 -25.5000 -43.5000 Du        
    272 ****         0.0000 -25.5000 -43.2500 Du        
    273 ****         0.0000 -25.5000 -43.0000 Du        
    274 ****         0.0000 -25.5000 -42.7500 Du        
    275 ****         0.0000 -25.5000 -42.5000 Du        
    276 ****         0.0000 -25.2500 -46.0000 Du        
    277 ****         0.0000 -25.2500 -45.7500 Du        
    278 ****         0.0000 -25.2500 -45.5000 Du        
    279 ****         0.0000 -25.2500 -45.2500 Du        
    280 ****         0.0000 -25.2500 -45.0000 Du        
    281 ****         0.0000 -25.2500 -44.7500 Du        
    282 ****         0.0000 -25.2500 -44.5000 Du        
    283 ****         0.0000 -25.2500 -44.2500 Du        
    284 ****         0.0000 -25.2500 -44.0000 Du        
    285 ****         0.0000 -25.2500 -43.7500 Du        
    286 ****         0.0000 -25.2500 -43.5000 Du        
    287 ****         0.0000 -25.2500 -43.2500 Du        
    288 ****         0.0000 -25.2500 -43.0000 Du        
    289 ****         0.0000 -25.2500 -42.7500 Du        
    290 ****         0.0000 -25.2500 -42.5000 Du        
    291 ****         0.0000 -25.0000 -46.0000 Du        
    292 ****         0.0000 -25.0000 -45.7500 Du        
    293 ****         0.0000 -25.0000 -45.5000 Du        
    294 ****         0.0000 -25.0000 -45.2500 Du        
    295 ****         0.0000 -25.0000 -45.0000 Du        
    296 ****         0.0000 -25.0000 -43.5000 Du        
    297 ****         0.0000 -25.0000 -43.2500 Du        
    298 ****         0.0000 -25.0000 -43.0000 Du        
    299 ****         0.0000 -25.0000 -42.7500 Du        
    300 ****         0.0000 -25.0000 -42.5000 Du        
    301 ****         0.2500 -26.5000 -43.2500 Du        
    302 ****         0.2500 -26.5000 -43.0000 Du        
    303 ****         0.2500 -26.5000 -42.7500 Du        
    304 ****         0.2500 -26.5000 -42.5000 Du        
    305 ****         0.2500 -26.2500 -44.0000 Du        
    306 ****         0.2500 -26.2500 -43.7500 Du        
    307 ****         0.2500 -26.2500 -43.5000 Du        
    308 ****         0.2500 -26.2500 -43.2500 Du        
    309 ****         0.2500 -26.2500 -43.0000 Du        
    310 ****         0.2500 -26.2500 -42.7500 Du        
    311 ****         0.2500 -26.2500 -42.5000 Du        
    312 ****         0.2500 -26.0000 -45.2500 Du        
    313 ****         0.2500 -26.0000 -45.0000 Du        
    314 ****         0.2500 -26.0000 -44.7500 Du        
    315 ****         0.2500 -26.0000 -44.5000 Du        
    316 ****         0.2500 -26.0000 -44.2500 Du        
    317 ****         0.2500 -26.0000 -44.0000 Du        
    318 ****         0.2500 -26.0000 -43.7500 Du        
    319 ****         0.2500 -26.0000 -43.5000 Du        
    320 ****         0.2500 -26.0000 -43.2500 Du        
    321 ****         0.2500 -26.0000 -43.0000 Du        
    322 ****         0.2500 -26.0000 -42.7500 Du        
    323 ****         0.2500 -26.0000 -42.5000 Du        
    324 ****         0.2500 -26.0000 -42.2500 Du        
    325 ****         0.2500 -25.7500 -46.0000 Du        
    326 ****         0.2500 -25.7500 -45.7500 Du        
    327 ****         0.2500 -25.7500 -45.5000 Du        
    328 ****         0.2500 -25.7500 -45.2500 Du        
    329 ****         0.2500 -25.7500 -45.0000 Du        
    330 ****         0.2500 -25.7500 -44.7500 Du        
    331 ****         0.2500 -25.7500 -44.5000 Du        
    332 ****         0.2500 -25.7500 -44.2500 Du        
    333 ****         0.2500 -25.7500 -44.0000 Du        
    334 ****         0.2500 -25.7500 -43.7500 Du        
    335 ****         0.2500 -25.7500 -43.5000 Du        
    336 ****         0.2500 -25.7500 -43.2500 Du        
    337 ****         0.2500 -25.7500 -43.0000 Du        
    338 ****         0.2500 -25.7500 -42.7500 Du        
    339 ****         0.2500 -25.7500 -42.5000 Du        
    340 ****         0.2500 -25.7500 -42.2500 Du        
    341 ****         0.2500 -25.5000 -46.2500 Du        
    342 ****         0.2500 -25.5000 -46.0000 Du        
    343 ****         0.2500 -25.5000 -45.7500 Du        
    344 ****         0.2500 -25.5000 -45.5000 Du        
    345 ****         0.2500 -25.5000 -45.2500 Du        
    346 ****         0.2500 -25.5000 -45.0000 Du        
    347 ****         0.2500 -25.5000 -44.7500 Du        
    348 ****         0.2500 -25.5000 -44.5000 Du        
    349 ****         0.2500 -25.5000 -44.2500 Du        
    350 ****         0.2500 -25.5000 -44.0000 Du        
    351 ****         0.2500 -25.5000 -43.7500 Du        
    352 ****         0.2500 -25.5000 -43.5000 Du        
    353 ****         0.2500 -25.5000 -43.2500 Du        
    354 ****         0.2500 -25.5000 -43.0000 Du        
    355 ****         0.2500 -25.5000 -42.7500 Du        
    356 ****         0.2500 -25.5000 -42.5000 Du        
    357 ****         0.2500 -25.5000 -42.2500 Du        
    358 ****         0.2500 -25.2500 -46.2500 Du        
    359 ****         0.2500 -25.2500 -46.0000 Du        
    360 ****         0.2500 -25.2500 -45.7500 Du        
    361 ****         0.2500 -25.2500 -45.5000 Du        
    362 ****         0.2500 -25.2500 -45.2500 Du        
    363 ****         0.2500 -25.2500 -45.0000 Du        
    364 ****         0.2500 -25.2500 -44.7500 Du        
    365 ****         0.2500 -25.2500 -44.5000 Du        
    366 ****         0.2500 -25.2500 -44.2500 Du        
    367 ****         0.2500 -25.2500 -44.0000 Du        
    368 ****         0.2500 -25.2500 -43.7500 Du        
    369 ****         0.2500 -25.2500 -43.5000 Du        
    370 ****         0.2500 -25.2500 -43.2500 Du        
    371 ****         0.2500 -25.2500 -43.0000 Du        
    372 ****         0.2500 -25.2500 -42.7500 Du        
    373 ****         0.2500 -25.2500 -42.5000 Du        
    374 ****         0.2500 -25.0000 -46.5000 Du        
    375 ****         0.2500 -25.0000 -46.2500 Du        
    376 ****         0.2500 -25.0000 -46.0000 Du        
    377 ****         0.2500 -25.0000 -45.7500 Du        
    378 ****         0.2500 -25.0000 -45.5000 Du        
    379 ****         0.2500 -25.0000 -45.2500 Du        
    380 ****         0.5000 -26.7500 -42.5000 Du        
    381 ****         0.5000 -26.5000 -43.2500 Du        
    382 ****         0.5000 -26.5000 -43.0000 Du        
    383 ****         0.5000 -26.5000 -42.7500 Du        
    384 ****         0.5000 -26.5000 -42.5000 Du        
    385 ****         0.5000 -26.5000 -42.2500 Du        
    386 ****         0.5000 -26.2500 -43.7500 Du        
    387 ****         0.5000 -26.2500 -43.5000 Du        
    388 ****         0.5000 -26.2500 -43.2500 Du        
    389 ****         0.5000 -26.2500 -43.0000 Du        
    390 ****         0.5000 -26.2500 -42.7500 Du        
    391 ****         0.5000 -26.2500 -42.5000 Du        
    392 ****         0.5000 -26.2500 -42.2500 Du        
    393 ****         0.5000 -26.0000 -44.5000 Du        
    394 ****         0.5000 -26.0000 -44.2500 Du        
    395 ****         0.5000 -26.0000 -44.0000 Du        
    396 ****         0.5000 -26.0000 -43.7500 Du        
    397 ****         0.5000 -26.0000 -43.5000 Du        
    398 ****         0.5000 -26.0000 -43.2500 Du        
    399 ****         0.5000 -26.0000 -43.0000 Du        
    400 ****         0.5000 -26.0000 -42.7500 Du        
    401 ****         0.5000 -26.0000 -42.5000 Du        
    402 ****         0.5000 -26.0000 -42.2500 Du        
    403 ****         0.5000 -25.7500 -46.2500 Du        
    404 ****         0.5000 -25.7500 -46.0000 Du        
    405 ****         0.5000 -25.7500 -45.7500 Du        
    406 ****         0.5000 -25.7500 -45.5000 Du        
    407 ****         0.5000 -25.7500 -45.2500 Du        
    408 ****         0.5000 -25.7500 -45.0000 Du        
    409 ****         0.5000 -25.7500 -44.7500 Du        
    410 ****         0.5000 -25.7500 -44.5000 Du        
    411 ****         0.5000 -25.7500 -44.2500 Du        
    412 ****         0.5000 -25.7500 -44.0000 Du        
    413 ****         0.5000 -25.7500 -43.7500 Du        
    414 ****         0.5000 -25.7500 -43.5000 Du        
    415 ****         0.5000 -25.7500 -43.2500 Du        
    416 ****         0.5000 -25.7500 -43.0000 Du        
    417 ****         0.5000 -25.7500 -42.7500 Du        
    418 ****         0.5000 -25.7500 -42.5000 Du        
    419 ****         0.5000 -25.7500 -42.2500 Du        
    420 ****         0.5000 -25.5000 -46.5000 Du        
    421 ****         0.5000 -25.5000 -46.2500 Du        
    422 ****         0.5000 -25.5000 -46.0000 Du        
    423 ****         0.5000 -25.5000 -45.7500 Du        
    424 ****         0.5000 -25.5000 -45.5000 Du        
    425 ****         0.5000 -25.5000 -45.2500 Du        
    426 ****         0.5000 -25.5000 -45.0000 Du        
    427 ****         0.5000 -25.5000 -44.7500 Du        
    428 ****         0.5000 -25.5000 -44.5000 Du        
    429 ****         0.5000 -25.5000 -44.2500 Du        
    430 ****         0.5000 -25.5000 -44.0000 Du        
    431 ****         0.5000 -25.5000 -43.7500 Du        
    432 ****         0.5000 -25.5000 -43.5000 Du        
    433 ****         0.5000 -25.5000 -43.2500 Du        
    434 ****         0.5000 -25.5000 -43.0000 Du        
    435 ****         0.5000 -25.5000 -42.7500 Du        
    436 ****         0.5000 -25.5000 -42.5000 Du        
    437 ****         0.5000 -25.5000 -42.2500 Du        
    438 ****         0.5000 -25.2500 -46.7500 Du        
    439 ****         0.5000 -25.2500 -46.5000 Du        
    440 ****         0.5000 -25.2500 -46.2500 Du        
    441 ****         0.5000 -25.2500 -46.0000 Du        
    442 ****         0.5000 -25.2500 -45.7500 Du        
    443 ****         0.5000 -25.2500 -45.5000 Du        
    444 ****         0.5000 -25.2500 -45.2500 Du        
    445 ****         0.5000 -25.2500 -45.0000 Du        
    446 ****         0.5000 -25.2500 -44.7500 Du        
    447 ****         0.5000 -25.2500 -43.2500 Du        
    448 ****         0.5000 -25.2500 -43.0000 Du        
    449 ****         0.5000 -25.2500 -42.7500 Du        
    450 ****         0.5000 -25.2500 -42.5000 Du        
    451 ****         0.5000 -25.0000 -46.7500 Du        
    452 ****         0.5000 -25.0000 -46.5000 Du        
    453 ****         0.5000 -25.0000 -46.2500 Du        
    454 ****         0.5000 -25.0000 -46.0000 Du        
    455 ****         0.5000 -25.0000 -45.7500 Du        
    456 ****         0.5000 -25.0000 -45.5000 Du        
    457 ****         0.5000 -24.7500 -46.2500 Du        
    458 ****         0.5000 -24.7500 -46.0000 Du        
    459 ****         0.7500 -26.7500 -42.5000 Du        
    460 ****         0.7500 -26.7500 -42.2500 Du        
    461 ****         0.7500 -26.7500 -42.0000 Du        
    462 ****         0.7500 -26.5000 -43.0000 Du        
    463 ****         0.7500 -26.5000 -42.7500 Du        
    464 ****         0.7500 -26.5000 -42.5000 Du        
    465 ****         0.7500 -26.5000 -42.2500 Du        
    466 ****         0.7500 -26.5000 -42.0000 Du        
    467 ****         0.7500 -26.2500 -43.5000 Du        
    468 ****         0.7500 -26.2500 -43.2500 Du        
    469 ****         0.7500 -26.2500 -43.0000 Du        
    470 ****         0.7500 -26.2500 -42.7500 Du        
    471 ****         0.7500 -26.2500 -42.5000 Du        
    472 ****         0.7500 -26.2500 -42.2500 Du        
    473 ****         0.7500 -26.2500 -42.0000 Du        
    474 ****         0.7500 -26.0000 -44.2500 Du        
    475 ****         0.7500 -26.0000 -44.0000 Du        
    476 ****         0.7500 -26.0000 -43.7500 Du        
    477 ****         0.7500 -26.0000 -43.5000 Du        
    478 ****         0.7500 -26.0000 -43.2500 Du        
    479 ****         0.7500 -26.0000 -43.0000 Du        
    480 ****         0.7500 -26.0000 -42.7500 Du        
    481 ****         0.7500 -26.0000 -42.5000 Du        
    482 ****         0.7500 -26.0000 -42.2500 Du        
    483 ****         0.7500 -26.0000 -42.0000 Du        
    484 ****         0.7500 -25.7500 -47.0000 Du        
    485 ****         0.7500 -25.7500 -46.7500 Du        
    486 ****         0.7500 -25.7500 -46.5000 Du        
    487 ****         0.7500 -25.7500 -46.2500 Du        
    488 ****         0.7500 -25.7500 -46.0000 Du        
    489 ****         0.7500 -25.7500 -45.7500 Du        
    490 ****         0.7500 -25.7500 -45.5000 Du        
    491 ****         0.7500 -25.7500 -45.2500 Du        
    492 ****         0.7500 -25.7500 -45.0000 Du        
    493 ****         0.7500 -25.7500 -44.7500 Du        
    494 ****         0.7500 -25.7500 -44.5000 Du        
    495 ****         0.7500 -25.7500 -44.2500 Du        
    496 ****         0.7500 -25.7500 -44.0000 Du        
    497 ****         0.7500 -25.7500 -43.7500 Du        
    498 ****         0.7500 -25.7500 -43.5000 Du        
    499 ****         0.7500 -25.7500 -43.2500 Du        
    500 ****         0.7500 -25.7500 -43.0000 Du        
    501 ****         0.7500 -25.7500 -42.7500 Du        
    502 ****         0.7500 -25.7500 -42.5000 Du        
    503 ****         0.7500 -25.7500 -42.2500 Du        
    504 ****         0.7500 -25.7500 -42.0000 Du        
    505 ****         0.7500 -25.5000 -47.0000 Du        
    506 ****         0.7500 -25.5000 -46.7500 Du        
    507 ****         0.7500 -25.5000 -46.5000 Du        
    508 ****         0.7500 -25.5000 -46.2500 Du        
    509 ****         0.7500 -25.5000 -46.0000 Du        
    510 ****         0.7500 -25.5000 -45.7500 Du        
    511 ****         0.7500 -25.5000 -45.5000 Du        
    512 ****         0.7500 -25.5000 -45.2500 Du        
    513 ****         0.7500 -25.5000 -45.0000 Du        
    514 ****         0.7500 -25.5000 -44.7500 Du        
    515 ****         0.7500 -25.5000 -44.5000 Du        
    516 ****         0.7500 -25.5000 -44.2500 Du        
    517 ****         0.7500 -25.5000 -44.0000 Du        
    518 ****         0.7500 -25.5000 -43.7500 Du        
    519 ****         0.7500 -25.5000 -43.5000 Du        
    520 ****         0.7500 -25.5000 -43.2500 Du        
    521 ****         0.7500 -25.5000 -43.0000 Du        
    522 ****         0.7500 -25.5000 -42.7500 Du        
    523 ****         0.7500 -25.5000 -42.5000 Du        
    524 ****         0.7500 -25.5000 -42.2500 Du        
    525 ****         0.7500 -25.2500 -47.0000 Du        
    526 ****         0.7500 -25.2500 -46.7500 Du        
    527 ****         0.7500 -25.2500 -46.5000 Du        
    528 ****         0.7500 -25.2500 -46.2500 Du        
    529 ****         0.7500 -25.2500 -46.0000 Du        
    530 ****         0.7500 -25.2500 -45.7500 Du        
    531 ****         0.7500 -25.2500 -45.5000 Du        
    532 ****         0.7500 -25.2500 -45.2500 Du        
    533 ****         0.7500 -25.2500 -45.0000 Du        
    534 ****         0.7500 -25.0000 -46.7500 Du        
    535 ****         0.7500 -25.0000 -46.5000 Du        
    536 ****         0.7500 -25.0000 -46.2500 Du        
    537 ****         0.7500 -25.0000 -46.0000 Du        
    538 ****         0.7500 -25.0000 -45.7500 Du        
    539 ****         0.7500 -25.0000 -45.5000 Du        
    540 ****         0.7500 -24.7500 -46.2500 Du        
    541 ****         0.7500 -24.7500 -46.0000 Du        
    542 ****         1.0000 -28.2500 -49.5000 Du        
    543 ****         1.0000 -28.2500 -49.0000 Du        
    544 ****         1.0000 -28.0000 -49.0000 Du        
    545 ****         1.0000 -28.0000 -48.7500 Du        
    546 ****         1.0000 -26.7500 -42.5000 Du        
    547 ****         1.0000 -26.7500 -42.2500 Du        
    548 ****         1.0000 -26.7500 -42.0000 Du        
    549 ****         1.0000 -26.5000 -43.0000 Du        
    550 ****         1.0000 -26.5000 -42.7500 Du        
    551 ****         1.0000 -26.5000 -42.5000 Du        
    552 ****         1.0000 -26.5000 -42.2500 Du        
    553 ****         1.0000 -26.5000 -42.0000 Du        
    554 ****         1.0000 -26.5000 -41.7500 Du        
    555 ****         1.0000 -26.2500 -43.5000 Du        
    556 ****         1.0000 -26.2500 -43.2500 Du        
    557 ****         1.0000 -26.2500 -43.0000 Du        
    558 ****         1.0000 -26.2500 -42.7500 Du        
    559 ****         1.0000 -26.2500 -42.5000 Du        
    560 ****         1.0000 -26.2500 -42.2500 Du        
    561 ****         1.0000 -26.2500 -42.0000 Du        
    562 ****         1.0000 -26.2500 -41.7500 Du        
    563 ****         1.0000 -26.0000 -47.2500 Du        
    564 ****         1.0000 -26.0000 -47.0000 Du        
    565 ****         1.0000 -26.0000 -46.7500 Du        
    566 ****         1.0000 -26.0000 -43.7500 Du        
    567 ****         1.0000 -26.0000 -43.5000 Du        
    568 ****         1.0000 -26.0000 -43.2500 Du        
    569 ****         1.0000 -26.0000 -43.0000 Du        
    570 ****         1.0000 -26.0000 -42.7500 Du        
    571 ****         1.0000 -26.0000 -42.5000 Du        
    572 ****         1.0000 -26.0000 -42.2500 Du        
    573 ****         1.0000 -26.0000 -42.0000 Du        
    574 ****         1.0000 -26.0000 -41.7500 Du        
    575 ****         1.0000 -25.7500 -47.2500 Du        
    576 ****         1.0000 -25.7500 -47.0000 Du        
    577 ****         1.0000 -25.7500 -46.7500 Du        
    578 ****         1.0000 -25.7500 -46.5000 Du        
    579 ****         1.0000 -25.7500 -46.2500 Du        
    580 ****         1.0000 -25.7500 -46.0000 Du        
    581 ****         1.0000 -25.7500 -45.7500 Du        
    582 ****         1.0000 -25.7500 -44.7500 Du        
    583 ****         1.0000 -25.7500 -44.5000 Du        
    584 ****         1.0000 -25.7500 -44.2500 Du        
    585 ****         1.0000 -25.7500 -44.0000 Du        
    586 ****         1.0000 -25.7500 -43.7500 Du        
    587 ****         1.0000 -25.7500 -43.5000 Du        
    588 ****         1.0000 -25.7500 -43.2500 Du        
    589 ****         1.0000 -25.7500 -43.0000 Du        
    590 ****         1.0000 -25.7500 -42.7500 Du        
    591 ****         1.0000 -25.7500 -42.5000 Du        
    592 ****         1.0000 -25.7500 -42.2500 Du        
    593 ****         1.0000 -25.7500 -42.0000 Du        
    594 ****         1.0000 -25.5000 -47.2500 Du        
    595 ****         1.0000 -25.5000 -47.0000 Du        
    596 ****         1.0000 -25.5000 -46.7500 Du        
    597 ****         1.0000 -25.5000 -46.5000 Du        
    598 ****         1.0000 -25.5000 -46.2500 Du        
    599 ****         1.0000 -25.5000 -46.0000 Du        
    600 ****         1.0000 -25.5000 -45.7500 Du        
    601 ****         1.0000 -25.5000 -45.5000 Du        
    602 ****         1.0000 -25.5000 -45.2500 Du        
    603 ****         1.0000 -25.5000 -45.0000 Du        
    604 ****         1.0000 -25.5000 -44.7500 Du        
    605 ****         1.0000 -25.5000 -44.5000 Du        
    606 ****         1.0000 -25.5000 -44.0000 Du        
    607 ****         1.0000 -25.5000 -43.7500 Du        
    608 ****         1.0000 -25.5000 -43.5000 Du        
    609 ****         1.0000 -25.5000 -43.2500 Du        
    610 ****         1.0000 -25.5000 -43.0000 Du        
    611 ****         1.0000 -25.5000 -42.7500 Du        
    612 ****         1.0000 -25.2500 -47.0000 Du        
    613 ****         1.0000 -25.2500 -46.7500 Du        
    614 ****         1.0000 -25.2500 -46.5000 Du        
    615 ****         1.0000 -25.2500 -46.2500 Du        
    616 ****         1.0000 -25.2500 -46.0000 Du        
    617 ****         1.0000 -25.2500 -45.7500 Du        
    618 ****         1.0000 -25.2500 -45.5000 Du        
    619 ****         1.0000 -25.2500 -45.2500 Du        
    620 ****         1.0000 -25.2500 -45.0000 Du        
    621 ****         1.0000 -25.0000 -46.7500 Du        
    622 ****         1.0000 -25.0000 -46.5000 Du        
    623 ****         1.0000 -25.0000 -46.2500 Du        
    624 ****         1.0000 -25.0000 -46.0000 Du        
    625 ****         1.0000 -25.0000 -45.7500 Du        
    626 ****         1.0000 -25.0000 -45.5000 Du        
    627 ****         1.0000 -24.7500 -46.2500 Du        
    628 ****         1.0000 -24.7500 -46.0000 Du        
    629 ****         1.2500 -28.5000 -49.2500 Du        
    630 ****         1.2500 -28.5000 -49.0000 Du        
    631 ****         1.2500 -28.2500 -49.7500 Du        
    632 ****         1.2500 -28.2500 -49.5000 Du        
    633 ****         1.2500 -28.2500 -49.2500 Du        
    634 ****         1.2500 -28.2500 -49.0000 Du        
    635 ****         1.2500 -28.2500 -48.7500 Du        
    636 ****         1.2500 -28.2500 -48.5000 Du        
    637 ****         1.2500 -28.0000 -50.2500 Du        
    638 ****         1.2500 -28.0000 -50.0000 Du        
    639 ****         1.2500 -28.0000 -49.7500 Du        
    640 ****         1.2500 -28.0000 -49.5000 Du        
    641 ****         1.2500 -28.0000 -49.2500 Du        
    642 ****         1.2500 -28.0000 -49.0000 Du        
    643 ****         1.2500 -28.0000 -48.7500 Du        
    644 ****         1.2500 -28.0000 -48.5000 Du        
    645 ****         1.2500 -27.7500 -50.5000 Du        
    646 ****         1.2500 -27.7500 -50.2500 Du        
    647 ****         1.2500 -27.7500 -50.0000 Du        
    648 ****         1.2500 -27.7500 -49.7500 Du        
    649 ****         1.2500 -27.7500 -49.5000 Du        
    650 ****         1.2500 -27.7500 -49.2500 Du        
    651 ****         1.2500 -27.7500 -49.0000 Du        
    652 ****         1.2500 -27.7500 -48.7500 Du        
    653 ****         1.2500 -27.7500 -48.5000 Du        
    654 ****         1.2500 -27.5000 -51.2500 Du        
    655 ****         1.2500 -27.5000 -51.0000 Du        
    656 ****         1.2500 -27.5000 -50.7500 Du        
    657 ****         1.2500 -27.5000 -50.5000 Du        
    658 ****         1.2500 -27.5000 -50.2500 Du        
    659 ****         1.2500 -27.5000 -50.0000 Du        
    660 ****         1.2500 -27.5000 -49.7500 Du        
    661 ****         1.2500 -27.5000 -49.5000 Du        
    662 ****         1.2500 -27.5000 -49.2500 Du        
    663 ****         1.2500 -27.5000 -49.0000 Du        
    664 ****         1.2500 -27.5000 -48.7500 Du        
    665 ****         1.2500 -27.5000 -48.5000 Du        
    666 ****         1.2500 -27.5000 -48.2500 Du        
    667 ****         1.2500 -27.2500 -51.7500 Du        
    668 ****         1.2500 -27.2500 -51.5000 Du        
    669 ****         1.2500 -27.2500 -51.2500 Du        
    670 ****         1.2500 -27.2500 -51.0000 Du        
    671 ****         1.2500 -27.2500 -50.7500 Du        
    672 ****         1.2500 -27.2500 -50.5000 Du        
    673 ****         1.2500 -27.2500 -48.7500 Du        
    674 ****         1.2500 -27.2500 -48.5000 Du        
    675 ****         1.2500 -27.2500 -48.2500 Du        
    676 ****         1.2500 -27.0000 -52.5000 Du        
    677 ****         1.2500 -27.0000 -52.2500 Du        
    678 ****         1.2500 -27.0000 -52.0000 Du        
    679 ****         1.2500 -27.0000 -51.7500 Du        
    680 ****         1.2500 -27.0000 -48.5000 Du        
    681 ****         1.2500 -27.0000 -48.2500 Du        
    682 ****         1.2500 -27.0000 -48.0000 Du        
    683 ****         1.2500 -26.7500 -52.5000 Du        
    684 ****         1.2500 -26.7500 -52.2500 Du        
    685 ****         1.2500 -26.7500 -52.0000 Du        
    686 ****         1.2500 -26.7500 -48.2500 Du        
    687 ****         1.2500 -26.7500 -48.0000 Du        
    688 ****         1.2500 -26.7500 -47.7500 Du        
    689 ****         1.2500 -26.7500 -42.0000 Du        
    690 ****         1.2500 -26.7500 -41.7500 Du        
    691 ****         1.2500 -26.5000 -53.0000 Du        
    692 ****         1.2500 -26.5000 -52.7500 Du        
    693 ****         1.2500 -26.5000 -52.5000 Du        
    694 ****         1.2500 -26.5000 -47.7500 Du        
    695 ****         1.2500 -26.5000 -47.5000 Du        
    696 ****         1.2500 -26.5000 -42.5000 Du        
    697 ****         1.2500 -26.5000 -42.2500 Du        
    698 ****         1.2500 -26.5000 -42.0000 Du        
    699 ****         1.2500 -26.5000 -41.7500 Du        
    700 ****         1.2500 -26.2500 -53.2500 Du        
    701 ****         1.2500 -26.2500 -52.7500 Du        
    702 ****         1.2500 -26.2500 -47.5000 Du        
    703 ****         1.2500 -26.2500 -47.2500 Du        
    704 ****         1.2500 -26.2500 -43.0000 Du        
    705 ****         1.2500 -26.2500 -42.7500 Du        
    706 ****         1.2500 -26.2500 -42.5000 Du        
    707 ****         1.2500 -26.2500 -42.2500 Du        
    708 ****         1.2500 -26.2500 -42.0000 Du        
    709 ****         1.2500 -26.2500 -41.7500 Du        
    710 ****         1.2500 -26.0000 -47.5000 Du        
    711 ****         1.2500 -26.0000 -47.2500 Du        
    712 ****         1.2500 -26.0000 -47.0000 Du        
    713 ****         1.2500 -26.0000 -46.7500 Du        
    714 ****         1.2500 -26.0000 -43.0000 Du        
    715 ****         1.2500 -26.0000 -42.7500 Du        
    716 ****         1.2500 -26.0000 -42.5000 Du        
    717 ****         1.2500 -26.0000 -42.2500 Du        
    718 ****         1.2500 -26.0000 -42.0000 Du        
    719 ****         1.2500 -25.7500 -47.2500 Du        
    720 ****         1.2500 -25.7500 -47.0000 Du        
    721 ****         1.2500 -25.7500 -46.7500 Du        
    722 ****         1.2500 -25.7500 -46.5000 Du        
    723 ****         1.2500 -25.7500 -46.2500 Du        
    724 ****         1.2500 -25.7500 -46.0000 Du        
    725 ****         1.2500 -25.7500 -42.7500 Du        
    726 ****         1.2500 -25.7500 -42.5000 Du        
    727 ****         1.2500 -25.5000 -47.0000 Du        
    728 ****         1.2500 -25.5000 -46.7500 Du        
    729 ****         1.2500 -25.5000 -46.5000 Du        
    730 ****         1.2500 -25.5000 -46.2500 Du        
    731 ****         1.2500 -25.5000 -46.0000 Du        
    732 ****         1.2500 -25.5000 -45.7500 Du        
    733 ****         1.2500 -25.5000 -45.5000 Du        
    734 ****         1.2500 -25.5000 -45.2500 Du        
    735 ****         1.2500 -25.5000 -45.0000 Du        
    736 ****         1.2500 -25.2500 -46.7500 Du        
    737 ****         1.2500 -25.2500 -46.5000 Du        
    738 ****         1.2500 -25.2500 -46.2500 Du        
    739 ****         1.2500 -25.2500 -46.0000 Du        
    740 ****         1.2500 -25.2500 -45.7500 Du        
    741 ****         1.2500 -25.2500 -45.5000 Du        
    742 ****         1.2500 -25.2500 -45.2500 Du        
    743 ****         1.2500 -25.0000 -46.5000 Du        
    744 ****         1.2500 -25.0000 -46.2500 Du        
    745 ****         1.2500 -25.0000 -46.0000 Du        
    746 ****         1.2500 -25.0000 -45.7500 Du        
    747 ****         1.5000 -28.7500 -49.0000 Du        
    748 ****         1.5000 -28.5000 -49.2500 Du        
    749 ****         1.5000 -28.5000 -49.0000 Du        
    750 ****         1.5000 -28.2500 -50.0000 Du        
    751 ****         1.5000 -28.2500 -49.7500 Du        
    752 ****         1.5000 -28.2500 -49.5000 Du        
    753 ****         1.5000 -28.2500 -49.2500 Du        
    754 ****         1.5000 -28.2500 -49.0000 Du        
    755 ****         1.5000 -28.2500 -48.7500 Du        
    756 ****         1.5000 -28.0000 -50.0000 Du        
    757 ****         1.5000 -28.0000 -49.7500 Du        
    758 ****         1.5000 -28.0000 -49.5000 Du        
    759 ****         1.5000 -28.0000 -49.2500 Du        
    760 ****         1.5000 -28.0000 -49.0000 Du        
    761 ****         1.5000 -28.0000 -48.7500 Du        
    762 ****         1.5000 -28.0000 -48.5000 Du        
    763 ****         1.5000 -27.7500 -50.5000 Du        
    764 ****         1.5000 -27.7500 -50.2500 Du        
    765 ****         1.5000 -27.7500 -50.0000 Du        
    766 ****         1.5000 -27.7500 -49.7500 Du        
    767 ****         1.5000 -27.7500 -49.5000 Du        
    768 ****         1.5000 -27.7500 -49.2500 Du        
    769 ****         1.5000 -27.7500 -49.0000 Du        
    770 ****         1.5000 -27.7500 -48.7500 Du        
    771 ****         1.5000 -27.7500 -48.5000 Du        
    772 ****         1.5000 -27.5000 -51.2500 Du        
    773 ****         1.5000 -27.5000 -51.0000 Du        
    774 ****         1.5000 -27.5000 -50.7500 Du        
    775 ****         1.5000 -27.5000 -50.5000 Du        
    776 ****         1.5000 -27.5000 -50.2500 Du        
    777 ****         1.5000 -27.5000 -50.0000 Du        
    778 ****         1.5000 -27.5000 -49.7500 Du        
    779 ****         1.5000 -27.5000 -49.5000 Du        
    780 ****         1.5000 -27.5000 -49.2500 Du        
    781 ****         1.5000 -27.5000 -49.0000 Du        
    782 ****         1.5000 -27.5000 -48.7500 Du        
    783 ****         1.5000 -27.5000 -48.5000 Du        
    784 ****         1.5000 -27.5000 -48.2500 Du        
    785 ****         1.5000 -27.2500 -51.7500 Du        
    786 ****         1.5000 -27.2500 -51.5000 Du        
    787 ****         1.5000 -27.2500 -51.2500 Du        
    788 ****         1.5000 -27.2500 -51.0000 Du        
    789 ****         1.5000 -27.2500 -50.7500 Du        
    790 ****         1.5000 -27.2500 -49.0000 Du        
    791 ****         1.5000 -27.2500 -48.7500 Du        
    792 ****         1.5000 -27.2500 -48.5000 Du        
    793 ****         1.5000 -27.2500 -48.2500 Du        
    794 ****         1.5000 -27.2500 -48.0000 Du        
    795 ****         1.5000 -27.0000 -52.0000 Du        
    796 ****         1.5000 -27.0000 -51.7500 Du        
    797 ****         1.5000 -27.0000 -51.5000 Du        
    798 ****         1.5000 -27.0000 -51.2500 Du        
    799 ****         1.5000 -27.0000 -48.5000 Du        
    800 ****         1.5000 -27.0000 -48.2500 Du        
    801 ****         1.5000 -27.0000 -48.0000 Du        
    802 ****         1.5000 -26.7500 -52.2500 Du        
    803 ****         1.5000 -26.7500 -52.0000 Du        
    804 ****         1.5000 -26.7500 -51.7500 Du        
    805 ****         1.5000 -26.7500 -48.2500 Du        
    806 ****         1.5000 -26.7500 -48.0000 Du        
    807 ****         1.5000 -26.7500 -47.7500 Du        
    808 ****         1.5000 -26.5000 -52.5000 Du        
    809 ****         1.5000 -26.5000 -52.2500 Du        
    810 ****         1.5000 -26.5000 -52.0000 Du        
    811 ****         1.5000 -26.5000 -51.7500 Du        
    812 ****         1.5000 -26.5000 -48.0000 Du        
    813 ****         1.5000 -26.5000 -47.7500 Du        
    814 ****         1.5000 -26.5000 -47.5000 Du        
    815 ****         1.5000 -26.5000 -42.0000 Du        
    816 ****         1.5000 -26.5000 -41.7500 Du        
    817 ****         1.5000 -26.2500 -47.5000 Du        
    818 ****         1.5000 -26.2500 -47.2500 Du        
    819 ****         1.5000 -26.2500 -42.2500 Du        
    820 ****         1.5000 -26.2500 -42.0000 Du        
    821 ****         1.5000 -26.0000 -47.2500 Du        
    822 ****         1.5000 -26.0000 -47.0000 Du        
    823 ****         1.5000 -26.0000 -46.7500 Du        
    824 ****         1.5000 -25.7500 -47.0000 Du        
    825 ****         1.5000 -25.7500 -46.7500 Du        
    826 ****         1.5000 -25.7500 -46.5000 Du        
    827 ****         1.5000 -25.7500 -46.2500 Du        
    828 ****         1.5000 -25.5000 -47.0000 Du        
    829 ****         1.5000 -25.5000 -46.7500 Du        
    830 ****         1.5000 -25.5000 -46.5000 Du        
    831 ****         1.5000 -25.5000 -46.2500 Du        
    832 ****         1.5000 -25.5000 -46.0000 Du        
    833 ****         1.5000 -25.5000 -45.7500 Du        
    834 ****         1.5000 -25.5000 -45.5000 Du        
    835 ****         1.5000 -25.5000 -45.2500 Du        
    836 ****         1.5000 -25.2500 -46.5000 Du        
    837 ****         1.5000 -25.2500 -46.2500 Du        
    838 ****         1.5000 -25.2500 -46.0000 Du        
    839 ****         1.5000 -25.2500 -45.7500 Du        
    840 ****         1.5000 -25.2500 -45.5000 Du        
    841 ****         1.5000 -25.0000 -46.2500 Du        
    842 ****         1.5000 -25.0000 -46.0000 Du        
    843 ****         1.5000 -25.0000 -45.7500 Du        
    844 ****         1.7500 -28.7500 -49.0000 Du        
    845 ****         1.7500 -28.5000 -49.5000 Du        
    846 ****         1.7500 -28.5000 -49.2500 Du        
    847 ****         1.7500 -28.5000 -49.0000 Du        
    848 ****         1.7500 -28.2500 -49.5000 Du        
    849 ****         1.7500 -28.2500 -49.2500 Du        
    850 ****         1.7500 -28.2500 -49.0000 Du        
    851 ****         1.7500 -28.2500 -48.7500 Du        
    852 ****         1.7500 -28.0000 -49.7500 Du        
    853 ****         1.7500 -28.0000 -49.5000 Du        
    854 ****         1.7500 -28.0000 -49.2500 Du        
    855 ****         1.7500 -28.0000 -49.0000 Du        
    856 ****         1.7500 -28.0000 -48.7500 Du        
    857 ****         1.7500 -28.0000 -48.5000 Du        
    858 ****         1.7500 -27.7500 -49.5000 Du        
    859 ****         1.7500 -27.7500 -49.2500 Du        
    860 ****         1.7500 -27.7500 -49.0000 Du        
    861 ****         1.7500 -27.7500 -48.7500 Du        
    862 ****         1.7500 -27.7500 -48.5000 Du        
    863 ****         1.7500 -27.5000 -49.0000 Du        
    864 ****         1.7500 -27.5000 -48.7500 Du        
    865 ****         1.7500 -27.5000 -48.5000 Du        
    866 ****         1.7500 -27.5000 -48.2500 Du        
    867 ****         1.7500 -27.2500 -51.7500 Du        
    868 ****         1.7500 -27.2500 -51.5000 Du        
    869 ****         1.7500 -27.2500 -51.2500 Du        
    870 ****         1.7500 -27.2500 -51.0000 Du        
    871 ****         1.7500 -27.2500 -48.5000 Du        
    872 ****         1.7500 -27.2500 -48.2500 Du        
    873 ****         1.7500 -27.2500 -48.0000 Du        
    874 ****         1.7500 -27.0000 -52.2500 Du        
    875 ****         1.7500 -27.0000 -52.0000 Du        
    876 ****         1.7500 -27.0000 -51.7500 Du        
    877 ****         1.7500 -27.0000 -51.5000 Du        
    878 ****         1.7500 -27.0000 -48.2500 Du        
    879 ****         1.7500 -27.0000 -48.0000 Du        
    880 ****         1.7500 -26.7500 -52.2500 Du        
    881 ****         1.7500 -26.7500 -52.0000 Du        
    882 ****         1.7500 -26.7500 -51.7500 Du        
    883 ****         1.7500 -26.7500 -51.5000 Du        
    884 ****         1.7500 -26.7500 -47.7500 Du        
    885 ****         1.7500 -26.5000 -52.5000 Du        
    886 ****         1.7500 -26.5000 -52.2500 Du        
    887 ****         1.7500 -26.5000 -52.0000 Du        
    888 ****         1.7500 -26.5000 -51.7500 Du        
    889 ****         1.7500 -26.5000 -47.5000 Du        
    890 ****         1.7500 -26.2500 -52.2500 Du        
    891 ****         1.7500 -26.2500 -52.0000 Du        
    892 ****         1.7500 -26.2500 -47.2500 Du        
    893 ****         1.7500 -26.0000 -47.0000 Du        
    894 ****         1.7500 -25.7500 -46.7500 Du        
    895 ****         1.7500 -25.7500 -46.5000 Du        
    896 ****         1.7500 -25.7500 -46.2500 Du        
    897 ****         1.7500 -25.5000 -46.5000 Du        
    898 ****         1.7500 -25.5000 -46.2500 Du        
    899 ****         1.7500 -25.5000 -46.0000 Du        
    900 ****         1.7500 -25.5000 -45.7500 Du        
    901 ****         1.7500 -25.5000 -45.5000 Du        
    902 ****         1.7500 -25.2500 -46.2500 Du        
    903 ****         1.7500 -25.2500 -46.0000 Du        
    904 ****         1.7500 -25.2500 -45.7500 Du        
    905 ****         1.7500 -25.2500 -45.5000 Du        
    906 ****         2.0000 -28.5000 -49.5000 Du        
    907 ****         2.0000 -28.5000 -49.2500 Du        
    908 ****         2.0000 -28.5000 -49.0000 Du        
    909 ****         2.0000 -28.2500 -49.5000 Du        
    910 ****         2.0000 -28.2500 -49.2500 Du        
    911 ****         2.0000 -28.2500 -49.0000 Du        
    912 ****         2.0000 -28.2500 -48.7500 Du        
    913 ****         2.0000 -28.0000 -49.2500 Du        
    914 ****         2.0000 -28.0000 -49.0000 Du        
    915 ****         2.0000 -28.0000 -48.7500 Du        
    916 ****         2.0000 -28.0000 -48.5000 Du        
    917 ****         2.0000 -27.7500 -48.7500 Du        
    918 ****         2.0000 -27.7500 -48.5000 Du        
    919 ****         2.0000 -27.0000 -52.0000 Du        
    920 ****         2.0000 -27.0000 -51.7500 Du        
    921 ****         2.0000 -26.7500 -52.2500 Du        
    922 ****         2.0000 -26.7500 -52.0000 Du        
    923 ****         2.0000 -26.7500 -51.7500 Du        
    924 ****         2.0000 -26.5000 -52.2500 Du        
    925 ****         2.0000 -26.5000 -52.0000 Du        
    926 ****         2.2500 -28.2500 -49.0000 Du        
    927 ****         2.2500 -28.2500 -48.7500 Du        
    928 ****         2.2500 -28.2500 -48.5000 Du        
    929 ****         2.7500 -28.7500 -39.7500 Du        
    930 ****         2.7500 -28.7500 -39.5000 Du        
    931 ****         3.0000 -28.7500 -39.5000 Du        
    932 ****         3.2500 -28.7500 -39.5000 Du        
    933 ****         3.7500 -28.7500 -39.2500 Du        
    934 ****         3.7500 -28.7500 -39.0000 Du        
    935 ****         4.0000 -28.7500 -39.2500 Du        
    936 ****         4.0000 -28.7500 -39.0000 Du        
    937 ****         4.2500 -28.7500 -39.0000 Du        
