#       Name:                CT1002167954
#       Creating user name   hitesit
#       Creation time:       Sun Apr 16 02:22:30 2023


#       File generated by GOLD software.
#

@<TRIPOS>MOLECULE
CT1002167954|ligand_prepared|mol2|1|dock3
    29    30     1
SMALL
NO_CHARGES


@<TRIPOS>ATOM
      1 C1           1.0547 -26.1520 -46.3472 C.3            1 RES1               0.0000
      2 C2           0.8801 -26.1519 -44.8148 C.ar           1 RES1               0.0000
      3 C3           2.5431 -26.3626 -46.6088 C.2            1 RES1               0.0000
      4 C4           0.1653 -27.2709 -46.8778 C.2            1 RES1               0.0000
      5 C5           0.6186 -24.8325 -47.0258 C.3            1 RES1               0.0000
      6 C6           1.8957 -26.6190 -43.9858 C.ar           1 RES1               0.0000
      7 C7          -0.2877 -25.6863 -44.2163 C.ar           1 RES1               0.0000
      8 N8           2.9371 -27.5845 -47.0688 N.am           1 RES1               0.0000
      9 O9           3.3633 -25.4829 -46.3774 O.2            1 RES1               0.0000
     10 N10          0.7721 -28.3469 -47.4709 N.am           1 RES1               0.0000
     11 O11         -1.0546 -27.2383 -46.7729 O.2            1 RES1               0.0000
     12 C12          1.0323 -23.5844 -46.2621 C.3            1 RES1               0.0000
     13 C13          1.7504 -26.6179 -42.6084 C.ar           1 RES1               0.0000
     14 C14         -0.4310 -25.6863 -42.8387 C.ar           1 RES1               0.0000
     15 C15          2.1192 -28.5687 -47.5629 C.2            1 RES1               0.0000
     16 C16          0.5874 -26.1512 -42.0339 C.ar           1 RES1               0.0000
     17 O17          2.5888 -29.5872 -48.0622 O.2            1 RES1               0.0000
     18 H18          1.0546 -24.7919 -48.0315 H              1 RES1               0.0000
     19 H19         -0.4731 -24.8349 -47.1334 H              1 RES1               0.0000
     20 H20          2.8172 -26.9923 -44.4200 H              1 RES1               0.0000
     21 H21         -1.1025 -25.3169 -44.8297 H              1 RES1               0.0000
     22 H22          3.9317 -27.7851 -47.0429 H              1 RES1               0.0000
     23 H23          0.1633 -29.0474 -47.8820 H              1 RES1               0.0000
     24 H24          0.7018 -22.6873 -46.7813 H              1 RES1               0.0000
     25 H25          0.5957 -23.5795 -45.2655 H              1 RES1               0.0000
     26 H26          2.1143 -23.5367 -46.1583 H              1 RES1               0.0000
     27 H27          2.5543 -26.9861 -41.9796 H              1 RES1               0.0000
     28 H28         -1.3484 -25.3187 -42.3909 H              1 RES1               0.0000
     29 H29          0.4740 -26.1501 -40.9549 H              1 RES1               0.0000
@<TRIPOS>BOND
    1    1    2 1     
    2    1    3 1     
    3    1    4 1     
    4    1    5 1     
    5    2    6 ar    
    6    2    7 ar    
    7    3    8 1     
    8    3    9 2     
    9    4   10 1     
   10    4   11 2     
   11    5   12 1     
   12    5   18 1     
   13    5   19 1     
   14    6   13 ar    
   15    6   20 1     
   16    7   14 ar    
   17    7   21 1     
   18    8   15 1     
   19    8   22 1     
   20   10   15 1     
   21   10   23 1     
   22   12   24 1     
   23   12   25 1     
   24   12   26 1     
   25   13   16 ar    
   26   13   27 1     
   27   14   16 ar    
   28   14   28 1     
   29   15   17 2     
   30   16   29 1     
@<TRIPOS>SUBSTRUCTURE
      1 RES1           1
@<TRIPOS>SET
DONOR_HYDROGENS      STATIC     ATOMS    <user>   **** ""
2 22 23
ATOM$RED        STATIC     ATOMS    COLORGROUP SYSTEM
2 22 23
@<TRIPOS>COMMENT
> <Gold.Version>
2022.3.0

> <Gold.Id.Protein>
unknown|7kl0_clean|pdb

> <Gold.Protein.RotatedTorsions>
[ 3167 3155 3156 3157 ] final  160.07 input   96.64 | X-H torsion
[ 3215 3201 3202 3203 ] final  129.03 input -100.55 | X-H torsion
[ 3255 3234 3235 3236 ] final   82.59 input   29.64 | X-H torsion
[ 3263 3245 3244 3242 ] final -166.85 input   60.01 | X-H torsion
[ 3290 3276 3277 3278 ] final  -32.21 input   80.30 | X-H torsion
[ 3319 3312 3313 3314 ] final  139.36 input  125.66 | X-H torsion
[ 3327 3317 3316 3313 ] final  165.45 input   60.01 | X-H torsion
[ 3352 3337 3338 3339 ] final -131.05 input  120.41 | X-H torsion
[ 3394 3386 3387 3388 ] final  101.36 input  107.09 | X-H torsion
[ 3416 3407 3408 3409 ] final   36.35 input  119.47 | X-H torsion
[ 4557 4546 4545 4544 ] final  -71.34 input   60.03 | X-H torsion
[ 3081 3062 3063 3064 ] final   31.27 input  114.53 | X-H torsion
[ 3298 3287 3286 3284 ] final  -30.63 input   60.01 | X-H torsion
[ 3370 3363 3364 3365 ] final  -47.43 input  114.58 | X-H torsion
[ 3442 3428 3429 3430 ] final   -9.60 input  113.40 | X-H torsion
[ 8535 3041 3040 3039 ] final   98.59 input    0.00 | X-H torsion
[ 8540 3158 3157 3156 ] final   17.34 input    0.00 | X-H torsion
[ 8544 3237 3236 3235 ] final   50.19 input    0.00 | X-H torsion
[ 8549 3279 3278 3277 ] final  129.19 input   -0.00 | X-H torsion
[ 8552 3315 3314 3313 ] final   42.96 input    0.00 | X-H torsion
[ 8563 6290 6289 6288 ] final  -10.24 input    0.00 | X-H torsion
[ 8568 3065 3064 3063 ] final  -46.67 input    0.00 | X-H torsion
[ 8570 3132 3131 3130 ] final -132.05 input    0.00 | X-H torsion
[ 8572 3204 3203 3202 ] final   80.10 input   -0.00 | X-H torsion
[ 8577 3389 3388 3387 ] final  -69.19 input   -0.00 | X-H torsion
[ 8579 3340 3339 3338 ] final  169.66 input    0.00 | X-H torsion
[ 8581 3366 3365 3364 ] final  -96.74 input   -0.00 | X-H torsion

> <Gold.Protein.ActiveResidues>
 ASP100  ILE101  ALA103  ARG104  GLU105  TYR106  TYR107  SER108  GLU109  ALA110 
 ASP111  ALA112  SER113  CYS115  LYS148  GLY149  LEU206  LEU207 

> <Gold.Protein.RotatedAtoms>
    4.4390  -21.3802  -37.1100 H   0  0  0  0  0  0  0  0  0  0  0  0  # atno 3081 bound_to 3062
    8.4748  -23.1622  -38.4242 H   0  0  0  0  0  0  0  0  0  0  0  0  # atno 3167 bound_to 3155
   10.2788  -20.5757  -39.7740 H   0  0  0  0  0  0  0  0  0  0  0  0  # atno 3215 bound_to 3201
    9.8215  -18.5312  -42.4394 H   0  0  0  0  0  0  0  0  0  0  0  0  # atno 3255 bound_to 3234
   14.0497  -18.2365  -46.2423 H   0  0  0  0  0  0  0  0  0  0  0  0  # atno 3263 bound_to 3245
    7.4052  -18.7657  -45.1322 H   0  0  0  0  0  0  0  0  0  0  0  0  # atno 3290 bound_to 3276
    2.8213  -23.6800  -41.1485 H   0  0  0  0  0  0  0  0  0  0  0  0  # atno 3298 bound_to 3287
    7.3377  -21.5371  -47.8186 H   0  0  0  0  0  0  0  0  0  0  0  0  # atno 3319 bound_to 3312
    6.4616  -23.3410  -51.0861 H   0  0  0  0  0  0  0  0  0  0  0  0  # atno 3327 bound_to 3317
    6.0535  -18.7902  -50.5113 H   0  0  0  0  0  0  0  0  0  0  0  0  # atno 3352 bound_to 3337
    3.5788  -20.3356  -52.0832 H   0  0  0  0  0  0  0  0  0  0  0  0  # atno 3370 bound_to 3363
    4.1317  -22.3648  -50.6154 H   0  0  0  0  0  0  0  0  0  0  0  0  # atno 3394 bound_to 3386
    2.0186  -21.1409  -49.7454 H   0  0  0  0  0  0  0  0  0  0  0  0  # atno 3416 bound_to 3407
   -0.0720  -20.6444  -49.5421 H   0  0  0  0  0  0  0  0  0  0  0  0  # atno 3442 bound_to 3428
    8.0804  -27.3166  -44.5607 H   0  0  0  0  0  0  0  0  0  0  0  0  # atno 4557 bound_to 4546
    8.5626  -28.6452  -45.4266 H   0  0  0  0  0  0  0  0  0  0  0  0  # atno 4558 bound_to 4546
    8.5547  -27.1489  -46.1398 H   0  0  0  0  0  0  0  0  0  0  0  0  # atno 4559 bound_to 4546
    6.0551  -22.8962  -39.5866 LP  0  0  0  0  0  0  0  0  0  0  0  0  # atno 8535 bound_to 3041
    6.8564  -22.6885  -38.0652 LP  0  0  0  0  0  0  0  0  0  0  0  0  # atno 8536 bound_to 3041
    9.2856  -21.6459  -38.0844 LP  0  0  0  0  0  0  0  0  0  0  0  0  # atno 8539 bound_to 3155
   10.6205  -21.5015  -42.2425 LP  0  0  0  0  0  0  0  0  0  0  0  0  # atno 8540 bound_to 3158
   11.0734  -19.9138  -41.7188 LP  0  0  0  0  0  0  0  0  0  0  0  0  # atno 8541 bound_to 3158
    8.5700  -20.2342  -39.5601 LP  0  0  0  0  0  0  0  0  0  0  0  0  # atno 8542 bound_to 3201
    8.4977  -18.7050  -41.3029 LP  0  0  0  0  0  0  0  0  0  0  0  0  # atno 8543 bound_to 3234
    8.5052  -20.7239  -43.1814 LP  0  0  0  0  0  0  0  0  0  0  0  0  # atno 8544 bound_to 3237
    8.6522  -20.7585  -44.9069 LP  0  0  0  0  0  0  0  0  0  0  0  0  # atno 8545 bound_to 3237
   13.4055  -17.7552  -47.6571 LP  0  0  0  0  0  0  0  0  0  0  0  0  # atno 8546 bound_to 3245
   13.2409  -19.3041  -47.1667 LP  0  0  0  0  0  0  0  0  0  0  0  0  # atno 8547 bound_to 3245
    5.9940  -19.0393  -44.1193 LP  0  0  0  0  0  0  0  0  0  0  0  0  # atno 8548 bound_to 3276
    7.3589  -18.1073  -47.9221 LP  0  0  0  0  0  0  0  0  0  0  0  0  # atno 8549 bound_to 3279
    5.7122  -18.0148  -47.3930 LP  0  0  0  0  0  0  0  0  0  0  0  0  # atno 8550 bound_to 3279
    6.4520  -20.0392  -47.5994 LP  0  0  0  0  0  0  0  0  0  0  0  0  # atno 8551 bound_to 3312
    4.6982  -19.9368  -48.4836 LP  0  0  0  0  0  0  0  0  0  0  0  0  # atno 8552 bound_to 3315
    3.8044  -20.3251  -49.9155 LP  0  0  0  0  0  0  0  0  0  0  0  0  # atno 8553 bound_to 3315
    5.4483  -22.1447  -50.6500 LP  0  0  0  0  0  0  0  0  0  0  0  0  # atno 8554 bound_to 3317
    6.1830  -23.0529  -49.5089 LP  0  0  0  0  0  0  0  0  0  0  0  0  # atno 8555 bound_to 3317
    6.1759  -20.0588  -51.7113 LP  0  0  0  0  0  0  0  0  0  0  0  0  # atno 8556 bound_to 3337
    2.6376  -22.8435  -51.3972 LP  0  0  0  0  0  0  0  0  0  0  0  0  # atno 8557 bound_to 3386
    2.6574  -21.4037  -48.1322 LP  0  0  0  0  0  0  0  0  0  0  0  0  # atno 8562 bound_to 3407
    4.6059  -17.7657  -44.1078 LP  0  0  0  0  0  0  0  0  0  0  0  0  # atno 8563 bound_to 6290
    5.4296  -17.0183  -45.4356 LP  0  0  0  0  0  0  0  0  0  0  0  0  # atno 8564 bound_to 6290
    3.8018  -21.9921  -38.6224 LP  0  0  0  0  0  0  0  0  0  0  0  0  # atno 8567 bound_to 3062
    7.3878  -19.8263  -39.5640 LP  0  0  0  0  0  0  0  0  0  0  0  0  # atno 8568 bound_to 3065
    7.5846  -18.4375  -38.5478 LP  0  0  0  0  0  0  0  0  0  0  0  0  # atno 8569 bound_to 3065
   11.5957  -21.9078  -38.3503 LP  0  0  0  0  0  0  0  0  0  0  0  0  # atno 8570 bound_to 3132
   11.5896  -23.2370  -37.2398 LP  0  0  0  0  0  0  0  0  0  0  0  0  # atno 8571 bound_to 3132
    8.6246  -15.9989  -40.7990 LP  0  0  0  0  0  0  0  0  0  0  0  0  # atno 8572 bound_to 3204
    7.2426  -17.0030  -40.5134 LP  0  0  0  0  0  0  0  0  0  0  0  0  # atno 8573 bound_to 3204
    1.5558  -23.9967  -42.1214 LP  0  0  0  0  0  0  0  0  0  0  0  0  # atno 8574 bound_to 3287
    1.5493  -22.6653  -41.1759 LP  0  0  0  0  0  0  0  0  0  0  0  0  # atno 8575 bound_to 3287
    4.8964  -21.0109  -53.0205 LP  0  0  0  0  0  0  0  0  0  0  0  0  # atno 8576 bound_to 3363
   -0.0304  -23.0040  -48.7179 LP  0  0  0  0  0  0  0  0  0  0  0  0  # atno 8577 bound_to 3389
    0.5605  -22.5249  -47.1618 LP  0  0  0  0  0  0  0  0  0  0  0  0  # atno 8578 bound_to 3389
    1.5867  -20.3805  -52.2866 LP  0  0  0  0  0  0  0  0  0  0  0  0  # atno 8579 bound_to 3340
    1.9816  -18.8801  -51.5165 LP  0  0  0  0  0  0  0  0  0  0  0  0  # atno 8580 bound_to 3340
    0.5552  -22.4195  -51.4477 LP  0  0  0  0  0  0  0  0  0  0  0  0  # atno 8581 bound_to 3366
    1.0050  -23.9831  -52.0415 LP  0  0  0  0  0  0  0  0  0  0  0  0  # atno 8582 bound_to 3366

> <Gold.Score>
     Fitness  S(hb_ext) S(vdw_ext)  S(hb_int)    S(int)      intcor
     -5.25       4.63      -4.62       0.00      -3.53      -0.78

> <Gold.Goldscore.Fitness>
-5.2541

> <Gold.Goldscore.Internal.Vdw>
-3.4023

> <Gold.Goldscore.Internal.Torsion>
-0.9067

> <Gold.Goldscore.External.Vdw>
-4.6193

> <Gold.Goldscore.Internal.HBond>
0.0000

> <Gold.Goldscore.External.HBond>
4.6295

> <Gold.Goldscore.Internal.Correction>
-0.7769

> <Gold.Goldscore.Hbonds>
donor molecule, donor type, donor heavy atom, donor atom, acceptor molecule, acceptor atom, score
      P1  H  3164  3176       L1     9  0.77

> <Gold.Goldscore.Internal.Vdw.Weighted>
-3.4023

> <Gold.Goldscore.Internal.Torsion.Weighted>
-0.9067

> <Gold.Goldscore.External.Vdw.Weighted>
-6.3515

> <Gold.Goldscore.Internal.HBond.Weighted>
0.0000

> <Gold.Goldscore.External.HBond.Weighted>
4.6295

> <Gold.Goldscore.Internal.Correction.Weighted>
-0.7769

> <Gold.Rescore>
     Score     S(PLP)   S(hbond)     S(cho)   S(metal)  DE(clash)   DE(tors)     intcor
    -20.67      20.94       1.17       0.00       0.00       2.06       0.59       ----

> <Gold.PLP.Fitness>
-20.6706

> <Gold.PLP.PLP>
20.9411

> <Gold.PLP.part.hbond>
-3.1005

> <Gold.PLP.part.metal>
0.0000

> <Gold.PLP.part.buried>
30.3000

> <Gold.PLP.part.nonpolar>
-5.8210

> <Gold.PLP.part.repulsive>
0.8091

> <Gold.PLP.ligand.clash>
2.0578

> <Gold.PLP.ligand.torsion>
0.5879

> <Gold.PLP.Chemscore.Hbond>
1.1680

> <Gold.PLP.Chemscore.CHOScore>
0.0000

> <Gold.PLP.Chemscore.Metal>
0.0000

> <Gold.Chemscore.Hbonds>
donor molecule, donor type, donor heavy atom, donor atom, acceptor molecule, acceptor atom, score
      P1  H  3164  3176       L1     9  1.00

> <Gold.PLP.Chemscore.Internal.Correction>
   9.000000E+99

