#       Name:                CT1002167954
#       Creating user name   hitesit
#       Creation time:       Sun Apr 16 02:22:33 2023


#       File generated by GOLD software.
#

@<TRIPOS>MOLECULE
CT1002167954|ligand_prepared|mol2|1|dock7
    29    30     1
SMALL
NO_CHARGES


@<TRIPOS>ATOM
      1 C1           0.9888 -26.4374 -46.4148 C.3            1 RES1               0.0000
      2 C2           0.7901 -26.4547 -44.8855 C.ar           1 RES1               0.0000
      3 C3           2.4734 -26.6935 -46.6569 C.2            1 RES1               0.0000
      4 C4           0.0714 -27.5180 -46.9765 C.2            1 RES1               0.0000
      5 C5           0.6073 -25.0941 -47.0793 C.3            1 RES1               0.0000
      6 C6           1.8742 -26.6365 -44.0321 C.ar           1 RES1               0.0000
      7 C7          -0.4686 -26.2878 -44.3142 C.ar           1 RES1               0.0000
      8 N8           2.8340 -27.9207 -47.1299 N.am           1 RES1               0.0000
      9 O9           3.3185 -25.8451 -46.3993 O.2            1 RES1               0.0000
     10 N10          0.6517 -28.6045 -47.5769 N.am           1 RES1               0.0000
     11 O11         -1.1482 -27.4463 -46.8897 O.2            1 RES1               0.0000
     12 C12          0.9221 -23.8762 -46.2250 C.3            1 RES1               0.0000
     13 C13          1.7066 -26.6480 -42.6572 C.ar           1 RES1               0.0000
     14 C14         -0.6341 -26.2999 -42.9391 C.ar           1 RES1               0.0000
     15 C15          1.9920 -28.8696 -47.6517 C.2            1 RES1               0.0000
     16 C16          0.4526 -26.4794 -42.1098 C.ar           1 RES1               0.0000
     17 O17          2.4355 -29.8955 -48.1597 O.2            1 RES1               0.0000
     18 H18          1.1449 -25.0059 -48.0315 H              1 RES1               0.0000
     19 H19         -0.4671 -25.1020 -47.3004 H              1 RES1               0.0000
     20 H20          2.8682 -26.7733 -44.4446 H              1 RES1               0.0000
     21 H21         -1.3381 -26.1461 -44.9471 H              1 RES1               0.0000
     22 H22          3.8210 -28.1547 -47.0919 H              1 RES1               0.0000
     23 H23          0.0266 -29.2780 -48.0082 H              1 RES1               0.0000
     24 H24          0.6349 -22.9606 -46.7378 H              1 RES1               0.0000
     25 H25          0.3842 -23.9184 -45.2801 H              1 RES1               0.0000
     26 H26          1.9867 -23.8228 -46.0069 H              1 RES1               0.0000
     27 H27          2.5649 -26.7910 -42.0090 H              1 RES1               0.0000
     28 H28         -1.6229 -26.1674 -42.5126 H              1 RES1               0.0000
     29 H29          0.3217 -26.4881 -41.0328 H              1 RES1               0.0000
@<TRIPOS>BOND
    1    1    2 1     
    2    1    3 1     
    3    1    4 1     
    4    1    5 1     
    5    2    6 ar    
    6    2    7 ar    
    7    3    8 1     
    8    3    9 2     
    9    4   10 1     
   10    4   11 2     
   11    5   12 1     
   12    5   18 1     
   13    5   19 1     
   14    6   13 ar    
   15    6   20 1     
   16    7   14 ar    
   17    7   21 1     
   18    8   15 1     
   19    8   22 1     
   20   10   15 1     
   21   10   23 1     
   22   12   24 1     
   23   12   25 1     
   24   12   26 1     
   25   13   16 ar    
   26   13   27 1     
   27   14   16 ar    
   28   14   28 1     
   29   15   17 2     
   30   16   29 1     
@<TRIPOS>SUBSTRUCTURE
      1 RES1           1
@<TRIPOS>SET
DONOR_HYDROGENS      STATIC     ATOMS    <user>   **** ""
2 22 23
ATOM$RED        STATIC     ATOMS    COLORGROUP SYSTEM
2 22 23
@<TRIPOS>COMMENT
> <Gold.Version>
2022.3.0

> <Gold.Id.Protein>
unknown|7kl0_clean|pdb

> <Gold.Protein.RotatedTorsions>
[ 3167 3155 3156 3157 ] final   72.73 input   96.64 | X-H torsion
[ 3215 3201 3202 3203 ] final  124.45 input -100.55 | X-H torsion
[ 3255 3234 3235 3236 ] final   84.49 input   29.64 | X-H torsion
[ 3263 3245 3244 3242 ] final -160.77 input   60.01 | X-H torsion
[ 3290 3276 3277 3278 ] final   15.61 input   80.30 | X-H torsion
[ 3319 3312 3313 3314 ] final -109.18 input  125.66 | X-H torsion
[ 3327 3317 3316 3313 ] final -142.49 input   60.01 | X-H torsion
[ 3352 3337 3338 3339 ] final   48.69 input  120.41 | X-H torsion
[ 3394 3386 3387 3388 ] final   11.46 input  107.09 | X-H torsion
[ 3416 3407 3408 3409 ] final  -64.75 input  119.47 | X-H torsion
[ 4557 4546 4545 4544 ] final   74.09 input   60.03 | X-H torsion
[ 3081 3062 3063 3064 ] final  104.69 input  114.53 | X-H torsion
[ 3298 3287 3286 3284 ] final   76.89 input   60.01 | X-H torsion
[ 3370 3363 3364 3365 ] final    7.71 input  114.58 | X-H torsion
[ 3442 3428 3429 3430 ] final  130.28 input  113.40 | X-H torsion
[ 8535 3041 3040 3039 ] final    0.00 input    0.00 | X-H torsion
[ 8540 3158 3157 3156 ] final -156.09 input    0.00 | X-H torsion
[ 8544 3237 3236 3235 ] final   11.25 input    0.00 | X-H torsion
[ 8549 3279 3278 3277 ] final  -37.97 input   -0.00 | X-H torsion
[ 8552 3315 3314 3313 ] final  -87.19 input    0.00 | X-H torsion
[ 8563 6290 6289 6288 ] final   12.66 input    0.00 | X-H torsion
[ 8568 3065 3064 3063 ] final  -60.47 input    0.00 | X-H torsion
[ 8570 3132 3131 3130 ] final -120.94 input    0.00 | X-H torsion
[ 8572 3204 3203 3202 ] final  -70.31 input   -0.00 | X-H torsion
[ 8577 3389 3388 3387 ] final  113.91 input   -0.00 | X-H torsion
[ 8579 3340 3339 3338 ] final   11.25 input    0.00 | X-H torsion
[ 8581 3366 3365 3364 ] final  -23.91 input   -0.00 | X-H torsion

> <Gold.Protein.ActiveResidues>
 ASP100  ILE101  ALA103  ARG104  GLU105  TYR106  TYR107  SER108  GLU109  ALA110 
 ASP111  ALA112  SER113  CYS115  LYS148  GLY149  LEU206  LEU207 

> <Gold.Protein.RotatedAtoms>
    3.4820  -21.1689  -37.5303 H   0  0  0  0  0  0  0  0  0  0  0  0  # atno 3081 bound_to 3062
    8.1380  -21.9769  -38.5108 H   0  0  0  0  0  0  0  0  0  0  0  0  # atno 3167 bound_to 3155
   10.2654  -20.5839  -39.8443 H   0  0  0  0  0  0  0  0  0  0  0  0  # atno 3215 bound_to 3201
    9.8238  -18.5027  -42.4315 H   0  0  0  0  0  0  0  0  0  0  0  0  # atno 3255 bound_to 3234
   14.0370  -18.3316  -46.2169 H   0  0  0  0  0  0  0  0  0  0  0  0  # atno 3263 bound_to 3245
    6.8328  -18.3374  -45.2979 H   0  0  0  0  0  0  0  0  0  0  0  0  # atno 3290 bound_to 3276
    1.7208  -22.6488  -41.0659 H   0  0  0  0  0  0  0  0  0  0  0  0  # atno 3298 bound_to 3287
    7.4397  -20.0792  -47.5746 H   0  0  0  0  0  0  0  0  0  0  0  0  # atno 3319 bound_to 3312
    6.6287  -23.5611  -50.3122 H   0  0  0  0  0  0  0  0  0  0  0  0  # atno 3327 bound_to 3317
    6.1577  -20.0752  -51.7384 H   0  0  0  0  0  0  0  0  0  0  0  0  # atno 3352 bound_to 3337
    4.1116  -20.8321  -51.6918 H   0  0  0  0  0  0  0  0  0  0  0  0  # atno 3370 bound_to 3363
    3.0227  -21.8028  -50.8414 H   0  0  0  0  0  0  0  0  0  0  0  0  # atno 3394 bound_to 3386
    1.7349  -21.8425  -48.5820 H   0  0  0  0  0  0  0  0  0  0  0  0  # atno 3416 bound_to 3407
    0.8341  -19.9505  -50.7814 H   0  0  0  0  0  0  0  0  0  0  0  0  # atno 3442 bound_to 3428
    8.6639  -28.5117  -45.8138 H   0  0  0  0  0  0  0  0  0  0  0  0  # atno 4557 bound_to 4546
    8.4203  -26.8726  -45.8517 H   0  0  0  0  0  0  0  0  0  0  0  0  # atno 4558 bound_to 4546
    8.1136  -27.7244  -44.4633 H   0  0  0  0  0  0  0  0  0  0  0  0  # atno 4559 bound_to 4546
    6.4201  -23.6118  -38.5480 LP  0  0  0  0  0  0  0  0  0  0  0  0  # atno 8535 bound_to 3041
    6.4914  -21.9729  -39.1038 LP  0  0  0  0  0  0  0  0  0  0  0  0  # atno 8536 bound_to 3041
    9.6087  -22.7830  -38.0014 LP  0  0  0  0  0  0  0  0  0  0  0  0  # atno 8539 bound_to 3155
   11.1514  -19.9567  -41.6751 LP  0  0  0  0  0  0  0  0  0  0  0  0  # atno 8540 bound_to 3158
   10.5425  -21.4586  -42.2863 LP  0  0  0  0  0  0  0  0  0  0  0  0  # atno 8541 bound_to 3158
    8.5827  -20.2265  -39.4932 LP  0  0  0  0  0  0  0  0  0  0  0  0  # atno 8542 bound_to 3201
    8.4955  -18.7323  -41.3103 LP  0  0  0  0  0  0  0  0  0  0  0  0  # atno 8543 bound_to 3234
    8.9628  -20.4106  -43.3419 LP  0  0  0  0  0  0  0  0  0  0  0  0  # atno 8544 bound_to 3237
    8.1946  -21.0719  -44.7464 LP  0  0  0  0  0  0  0  0  0  0  0  0  # atno 8545 bound_to 3237
   13.4562  -17.6938  -47.5968 LP  0  0  0  0  0  0  0  0  0  0  0  0  # atno 8546 bound_to 3245
   13.2030  -19.2698  -47.2526 LP  0  0  0  0  0  0  0  0  0  0  0  0  # atno 8547 bound_to 3245
    6.5327  -19.4424  -43.9633 LP  0  0  0  0  0  0  0  0  0  0  0  0  # atno 8548 bound_to 3276
    5.7925  -17.9790  -47.2204 LP  0  0  0  0  0  0  0  0  0  0  0  0  # atno 8549 bound_to 3279
    7.2786  -18.1431  -48.0947 LP  0  0  0  0  0  0  0  0  0  0  0  0  # atno 8550 bound_to 3279
    6.3545  -21.4329  -47.8326 LP  0  0  0  0  0  0  0  0  0  0  0  0  # atno 8551 bound_to 3312
    4.1192  -20.8949  -49.5855 LP  0  0  0  0  0  0  0  0  0  0  0  0  # atno 8552 bound_to 3315
    4.3833  -19.3670  -48.8137 LP  0  0  0  0  0  0  0  0  0  0  0  0  # atno 8553 bound_to 3315
    5.8004  -22.5490  -51.2805 LP  0  0  0  0  0  0  0  0  0  0  0  0  # atno 8554 bound_to 3317
    5.6625  -22.4269  -49.6579 LP  0  0  0  0  0  0  0  0  0  0  0  0  # atno 8555 bound_to 3317
    6.0752  -18.8162  -50.5248 LP  0  0  0  0  0  0  0  0  0  0  0  0  # atno 8556 bound_to 3337
    3.7019  -23.3828  -51.1803 LP  0  0  0  0  0  0  0  0  0  0  0  0  # atno 8557 bound_to 3386
    2.9274  -20.7358  -49.2398 LP  0  0  0  0  0  0  0  0  0  0  0  0  # atno 8562 bound_to 3407
    4.4552  -17.9185  -44.3763 LP  0  0  0  0  0  0  0  0  0  0  0  0  # atno 8563 bound_to 6290
    5.5803  -16.8656  -45.1672 LP  0  0  0  0  0  0  0  0  0  0  0  0  # atno 8564 bound_to 6290
    4.7237  -22.1955  -38.2175 LP  0  0  0  0  0  0  0  0  0  0  0  0  # atno 8567 bound_to 3062
    7.5197  -19.9130  -39.4285 LP  0  0  0  0  0  0  0  0  0  0  0  0  # atno 8568 bound_to 3065
    7.4527  -18.3509  -38.6833 LP  0  0  0  0  0  0  0  0  0  0  0  0  # atno 8569 bound_to 3065
   11.6118  -21.8138  -38.2123 LP  0  0  0  0  0  0  0  0  0  0  0  0  # atno 8570 bound_to 3132
   11.5735  -23.3310  -37.3777 LP  0  0  0  0  0  0  0  0  0  0  0  0  # atno 8571 bound_to 3132
    7.4447  -16.9749  -40.1211 LP  0  0  0  0  0  0  0  0  0  0  0  0  # atno 8572 bound_to 3204
    8.4225  -16.0270  -41.1914 LP  0  0  0  0  0  0  0  0  0  0  0  0  # atno 8573 bound_to 3204
    2.8068  -23.8435  -41.2703 LP  0  0  0  0  0  0  0  0  0  0  0  0  # atno 8574 bound_to 3287
    1.4064  -23.8567  -42.1102 LP  0  0  0  0  0  0  0  0  0  0  0  0  # atno 8575 bound_to 3287
    4.3841  -20.5335  -53.3969 LP  0  0  0  0  0  0  0  0  0  0  0  0  # atno 8576 bound_to 3363
    0.5407  -22.4831  -47.1686 LP  0  0  0  0  0  0  0  0  0  0  0  0  # atno 8577 bound_to 3389
   -0.0106  -23.0458  -48.7111 LP  0  0  0  0  0  0  0  0  0  0  0  0  # atno 8578 bound_to 3389
    1.9401  -18.7821  -51.8230 LP  0  0  0  0  0  0  0  0  0  0  0  0  # atno 8579 bound_to 3340
    1.6281  -20.4786  -51.9801 LP  0  0  0  0  0  0  0  0  0  0  0  0  # atno 8580 bound_to 3340
    0.6634  -22.6900  -52.4337 LP  0  0  0  0  0  0  0  0  0  0  0  0  # atno 8581 bound_to 3366
    0.8968  -23.7127  -51.0555 LP  0  0  0  0  0  0  0  0  0  0  0  0  # atno 8582 bound_to 3366

> <Gold.Score>
     Fitness  S(hb_ext) S(vdw_ext)  S(hb_int)    S(int)      intcor
    -15.07       4.92      -9.78       0.00      -6.54      -0.76

> <Gold.Goldscore.Fitness>
-15.0691

> <Gold.Goldscore.Internal.Vdw>
-6.0653

> <Gold.Goldscore.Internal.Torsion>
-1.2399

> <Gold.Goldscore.External.Vdw>
-9.7789

> <Gold.Goldscore.Internal.HBond>
0.0000

> <Gold.Goldscore.External.HBond>
4.9171

> <Gold.Goldscore.Internal.Correction>
-0.7650

> <Gold.Goldscore.Hbonds>
donor molecule, donor type, donor heavy atom, donor atom, acceptor molecule, acceptor atom, score
      P1  H  3164  3176       L1     9  0.82

> <Gold.Goldscore.Internal.Vdw.Weighted>
-6.0653

> <Gold.Goldscore.Internal.Torsion.Weighted>
-1.2399

> <Gold.Goldscore.External.Vdw.Weighted>
-13.4460

> <Gold.Goldscore.Internal.HBond.Weighted>
0.0000

> <Gold.Goldscore.External.HBond.Weighted>
4.9171

> <Gold.Goldscore.Internal.Correction.Weighted>
-0.7650

> <Gold.Rescore>
     Score     S(PLP)   S(hbond)     S(cho)   S(metal)  DE(clash)   DE(tors)     intcor
    -65.20      65.27       1.00       0.00       0.00       2.05       0.44       ----

> <Gold.PLP.Fitness>
-65.2045

> <Gold.PLP.PLP>
65.2680

> <Gold.PLP.part.hbond>
-2.0000

> <Gold.PLP.part.metal>
0.0000

> <Gold.PLP.part.buried>
53.9650

> <Gold.PLP.part.nonpolar>
-7.3403

> <Gold.PLP.part.repulsive>
10.5751

> <Gold.PLP.ligand.clash>
2.0518

> <Gold.PLP.ligand.torsion>
0.4424

> <Gold.PLP.Chemscore.Hbond>
1.0000

> <Gold.PLP.Chemscore.CHOScore>
0.0000

> <Gold.PLP.Chemscore.Metal>
0.0000

> <Gold.Chemscore.Hbonds>
donor molecule, donor type, donor heavy atom, donor atom, acceptor molecule, acceptor atom, score
      P1  H  3164  3176       L1     9  1.00

> <Gold.PLP.Chemscore.Internal.Correction>
   9.000000E+99

