#       Name:                CT1002167954
#       Creating user name   hitesit
#       Creation time:       Sun Apr 16 02:22:30 2023


#       File generated by GOLD software.
#

@<TRIPOS>MOLECULE
CT1002167954|ligand_prepared|mol2|1|dock4
    29    30     1
SMALL
NO_CHARGES


@<TRIPOS>ATOM
      1 C1           2.3731 -29.1501 -49.3156 C.3            1 RES1               0.0000
      2 C2           2.3709 -27.9592 -48.3356 C.ar           1 RES1               0.0000
      3 C3           1.4342 -30.1958 -48.7213 C.2            1 RES1               0.0000
      4 C4           1.9162 -28.5966 -50.6607 C.2            1 RES1               0.0000
      5 C5           3.7650 -29.7949 -49.5122 C.3            1 RES1               0.0000
      6 C6           1.4190 -26.9503 -48.4486 C.ar           1 RES1               0.0000
      7 C7           3.3110 -27.8571 -47.3136 C.ar           1 RES1               0.0000
      8 N8           0.2166 -30.3609 -49.3130 N.am           1 RES1               0.0000
      9 O9           1.7417 -30.8379 -47.7246 O.2            1 RES1               0.0000
     10 N10          0.7201 -29.0372 -51.1635 N.am           1 RES1               0.0000
     11 O11          2.5733 -27.7703 -51.2819 O.2            1 RES1               0.0000
     12 C12          3.8166 -30.8088 -50.6441 C.3            1 RES1               0.0000
     13 C13          1.4054 -25.8797 -47.5700 C.ar           1 RES1               0.0000
     14 C14          3.2958 -26.7855 -46.4362 C.ar           1 RES1               0.0000
     15 C15         -0.1650 -29.8710 -50.5362 C.2            1 RES1               0.0000
     16 C16          2.3434 -25.7967 -46.5631 C.ar           1 RES1               0.0000
     17 O17         -1.2464 -30.1787 -51.0292 O.2            1 RES1               0.0000
     18 H18          4.4959 -29.0023 -49.7144 H              1 RES1               0.0000
     19 H19          4.0588 -30.2919 -48.5794 H              1 RES1               0.0000
     20 H20          0.6743 -26.9973 -49.2362 H              1 RES1               0.0000
     21 H21          4.0703 -28.6227 -47.1955 H              1 RES1               0.0000
     22 H22         -0.4740 -30.8981 -48.7985 H              1 RES1               0.0000
     23 H23          0.4660 -28.7138 -52.0915 H              1 RES1               0.0000
     24 H24          4.8151 -31.2306 -50.7389 H              1 RES1               0.0000
     25 H25          3.1199 -31.6247 -50.4633 H              1 RES1               0.0000
     26 H26          3.5543 -30.3428 -51.5917 H              1 RES1               0.0000
     27 H27          0.6546 -25.1035 -47.6750 H              1 RES1               0.0000
     28 H28          4.0364 -26.7239 -45.6457 H              1 RES1               0.0000
     29 H29          2.3324 -24.9581 -45.8747 H              1 RES1               0.0000
@<TRIPOS>BOND
    1    1    2 1     
    2    1    3 1     
    3    1    4 1     
    4    1    5 1     
    5    2    6 ar    
    6    2    7 ar    
    7    3    8 1     
    8    3    9 2     
    9    4   10 1     
   10    4   11 2     
   11    5   12 1     
   12    5   18 1     
   13    5   19 1     
   14    6   13 ar    
   15    6   20 1     
   16    7   14 ar    
   17    7   21 1     
   18    8   15 1     
   19    8   22 1     
   20   10   15 1     
   21   10   23 1     
   22   12   24 1     
   23   12   25 1     
   24   12   26 1     
   25   13   16 ar    
   26   13   27 1     
   27   14   16 ar    
   28   14   28 1     
   29   15   17 2     
   30   16   29 1     
@<TRIPOS>SUBSTRUCTURE
      1 RES1           1
@<TRIPOS>SET
DONOR_HYDROGENS      STATIC     ATOMS    <user>   **** ""
2 22 23
ATOM$RED        STATIC     ATOMS    COLORGROUP SYSTEM
2 22 23
@<TRIPOS>COMMENT
> <Gold.Version>
2022.3.0

> <Gold.Id.Protein>
unknown|7kl0_clean|pdb

> <Gold.Protein.RotatedTorsions>
[ 3167 3155 3156 3157 ] final -159.81 input   96.64 | X-H torsion
[ 3215 3201 3202 3203 ] final   80.37 input -100.55 | X-H torsion
[ 3255 3234 3235 3236 ] final  141.07 input   29.64 | X-H torsion
[ 3263 3245 3244 3242 ] final   49.94 input   60.01 | X-H torsion
[ 3290 3276 3277 3278 ] final   19.87 input   80.30 | X-H torsion
[ 3319 3312 3313 3314 ] final  136.53 input  125.66 | X-H torsion
[ 3327 3317 3316 3313 ] final -110.93 input   60.01 | X-H torsion
[ 3352 3337 3338 3339 ] final  -88.19 input  120.41 | X-H torsion
[ 3394 3386 3387 3388 ] final   -6.16 input  107.09 | X-H torsion
[ 3416 3407 3408 3409 ] final  -55.95 input  119.47 | X-H torsion
[ 4557 4546 4545 4544 ] final  -45.11 input   60.03 | X-H torsion
[ 3081 3062 3063 3064 ] final -113.69 input  114.53 | X-H torsion
[ 3298 3287 3286 3284 ] final -165.22 input   60.01 | X-H torsion
[ 3370 3363 3364 3365 ] final   -8.87 input  114.58 | X-H torsion
[ 3442 3428 3429 3430 ] final  -80.03 input  113.40 | X-H torsion
[ 8535 3041 3040 3039 ] final -102.58 input    0.00 | X-H torsion
[ 8540 3158 3157 3156 ] final  -69.87 input    0.00 | X-H torsion
[ 8544 3237 3236 3235 ] final -144.26 input    0.00 | X-H torsion
[ 8549 3279 3278 3277 ] final   56.92 input   -0.00 | X-H torsion
[ 8552 3315 3314 3313 ] final  -45.06 input    0.00 | X-H torsion
[ 8563 6290 6289 6288 ] final  -16.31 input    0.00 | X-H torsion
[ 8568 3065 3064 3063 ] final  140.68 input    0.00 | X-H torsion
[ 8570 3132 3131 3130 ] final    6.03 input    0.00 | X-H torsion
[ 8572 3204 3203 3202 ] final  117.47 input   -0.00 | X-H torsion
[ 8577 3389 3388 3387 ] final   84.67 input   -0.00 | X-H torsion
[ 8579 3340 3339 3338 ] final -104.00 input    0.00 | X-H torsion
[ 8581 3366 3365 3364 ] final  -89.96 input   -0.00 | X-H torsion

> <Gold.Protein.ActiveResidues>
 ASP100  ILE101  ALA103  ARG104  GLU105  TYR106  TYR107  SER108  GLU109  ALA110 
 ASP111  ALA112  SER113  CYS115  LYS148  GLY149  LEU206  LEU207 

> <Gold.Protein.RotatedAtoms>
    4.2951  -22.1815  -38.6038 H   0  0  0  0  0  0  0  0  0  0  0  0  # atno 3081 bound_to 3062
    9.0486  -23.2683  -38.2349 H   0  0  0  0  0  0  0  0  0  0  0  0  # atno 3167 bound_to 3155
    9.8836  -20.5908  -40.4010 H   0  0  0  0  0  0  0  0  0  0  0  0  # atno 3215 bound_to 3201
    9.5622  -17.8359  -41.9759 H   0  0  0  0  0  0  0  0  0  0  0  0  # atno 3255 bound_to 3234
   13.2329  -18.0549  -47.8102 H   0  0  0  0  0  0  0  0  0  0  0  0  # atno 3263 bound_to 3245
    6.7696  -18.3156  -45.2908 H   0  0  0  0  0  0  0  0  0  0  0  0  # atno 3290 bound_to 3276
    1.3888  -23.8271  -42.1028 H   0  0  0  0  0  0  0  0  0  0  0  0  # atno 3298 bound_to 3287
    7.2989  -21.5579  -47.8248 H   0  0  0  0  0  0  0  0  0  0  0  0  # atno 3319 bound_to 3312
    6.4993  -23.4188  -49.8408 H   0  0  0  0  0  0  0  0  0  0  0  0  # atno 3327 bound_to 3317
    5.7367  -19.3262  -50.3236 H   0  0  0  0  0  0  0  0  0  0  0  0  # atno 3352 bound_to 3337
    3.9124  -20.6746  -51.7342 H   0  0  0  0  0  0  0  0  0  0  0  0  # atno 3370 bound_to 3363
    2.8060  -21.9160  -50.9650 H   0  0  0  0  0  0  0  0  0  0  0  0  # atno 3394 bound_to 3386
    1.6751  -21.8350  -48.7060 H   0  0  0  0  0  0  0  0  0  0  0  0  # atno 3416 bound_to 3407
   -0.1746  -19.6233  -49.4130 H   0  0  0  0  0  0  0  0  0  0  0  0  # atno 3442 bound_to 3428
    8.1153  -27.7382  -44.4628 H   0  0  0  0  0  0  0  0  0  0  0  0  # atno 4557 bound_to 4546
    8.6668  -28.5054  -45.8247 H   0  0  0  0  0  0  0  0  0  0  0  0  # atno 4558 bound_to 4546
    8.4158  -26.8671  -45.8402 H   0  0  0  0  0  0  0  0  0  0  0  0  # atno 4559 bound_to 4546
    6.8642  -22.3905  -38.1765 LP  0  0  0  0  0  0  0  0  0  0  0  0  # atno 8535 bound_to 3041
    6.0473  -23.1942  -39.4752 LP  0  0  0  0  0  0  0  0  0  0  0  0  # atno 8536 bound_to 3041
    8.7351  -21.5441  -38.2660 LP  0  0  0  0  0  0  0  0  0  0  0  0  # atno 8539 bound_to 3155
   11.5303  -21.0754  -41.5962 LP  0  0  0  0  0  0  0  0  0  0  0  0  # atno 8540 bound_to 3158
   10.1636  -20.3399  -42.3651 LP  0  0  0  0  0  0  0  0  0  0  0  0  # atno 8541 bound_to 3158
    8.9457  -20.2199  -38.9640 LP  0  0  0  0  0  0  0  0  0  0  0  0  # atno 8542 bound_to 3201
    8.7459  -19.3706  -41.7465 LP  0  0  0  0  0  0  0  0  0  0  0  0  # atno 8543 bound_to 3234
    8.4746  -20.8839  -44.8920 LP  0  0  0  0  0  0  0  0  0  0  0  0  # atno 8544 bound_to 3237
    8.6827  -20.5985  -43.1964 LP  0  0  0  0  0  0  0  0  0  0  0  0  # atno 8545 bound_to 3237
   13.4152  -19.3428  -46.8322 LP  0  0  0  0  0  0  0  0  0  0  0  0  # atno 8546 bound_to 3245
   14.0534  -17.8993  -46.4134 LP  0  0  0  0  0  0  0  0  0  0  0  0  # atno 8547 bound_to 3245
    6.5921  -19.4629  -43.9700 LP  0  0  0  0  0  0  0  0  0  0  0  0  # atno 8548 bound_to 3276
    7.0419  -17.9168  -46.9700 LP  0  0  0  0  0  0  0  0  0  0  0  0  # atno 8549 bound_to 3279
    6.0292  -18.2053  -48.3451 LP  0  0  0  0  0  0  0  0  0  0  0  0  # atno 8550 bound_to 3279
    6.4890  -20.0194  -47.5935 LP  0  0  0  0  0  0  0  0  0  0  0  0  # atno 8551 bound_to 3312
    4.4708  -20.9595  -49.0759 LP  0  0  0  0  0  0  0  0  0  0  0  0  # atno 8552 bound_to 3315
    4.0318  -19.3024  -49.3233 LP  0  0  0  0  0  0  0  0  0  0  0  0  # atno 8553 bound_to 3315
    6.1273  -22.9378  -51.3502 LP  0  0  0  0  0  0  0  0  0  0  0  0  # atno 8554 bound_to 3317
    5.4660  -22.1814  -50.0629 LP  0  0  0  0  0  0  0  0  0  0  0  0  # atno 8555 bound_to 3317
    6.4822  -19.5405  -51.8929 LP  0  0  0  0  0  0  0  0  0  0  0  0  # atno 8556 bound_to 3337
    3.9098  -23.2743  -51.0617 LP  0  0  0  0  0  0  0  0  0  0  0  0  # atno 8557 bound_to 3386
    2.9843  -20.7429  -49.1217 LP  0  0  0  0  0  0  0  0  0  0  0  0  # atno 8562 bound_to 3407
    4.6580  -17.7141  -44.0528 LP  0  0  0  0  0  0  0  0  0  0  0  0  # atno 8563 bound_to 6290
    5.3774  -17.0700  -45.4907 LP  0  0  0  0  0  0  0  0  0  0  0  0  # atno 8564 bound_to 6290
    3.9404  -21.2201  -37.1834 LP  0  0  0  0  0  0  0  0  0  0  0  0  # atno 8567 bound_to 3062
    7.6530  -18.5005  -38.4871 LP  0  0  0  0  0  0  0  0  0  0  0  0  # atno 8568 bound_to 3065
    7.3193  -19.7633  -39.6247 LP  0  0  0  0  0  0  0  0  0  0  0  0  # atno 8569 bound_to 3065
   11.6464  -22.6978  -36.9398 LP  0  0  0  0  0  0  0  0  0  0  0  0  # atno 8570 bound_to 3132
   11.5389  -22.4469  -38.6502 LP  0  0  0  0  0  0  0  0  0  0  0  0  # atno 8571 bound_to 3132
    8.3451  -16.0560  -41.2749 LP  0  0  0  0  0  0  0  0  0  0  0  0  # atno 8572 bound_to 3204
    7.5221  -16.9458  -40.0376 LP  0  0  0  0  0  0  0  0  0  0  0  0  # atno 8573 bound_to 3204
    1.7479  -22.6449  -41.0437 LP  0  0  0  0  0  0  0  0  0  0  0  0  # atno 8574 bound_to 3287
    2.7996  -23.8690  -41.2927 LP  0  0  0  0  0  0  0  0  0  0  0  0  # atno 8575 bound_to 3287
    4.5756  -20.6850  -53.3561 LP  0  0  0  0  0  0  0  0  0  0  0  0  # atno 8576 bound_to 3363
    0.6883  -22.8937  -47.1954 LP  0  0  0  0  0  0  0  0  0  0  0  0  # atno 8577 bound_to 3389
   -0.1582  -22.6352  -48.6843 LP  0  0  0  0  0  0  0  0  0  0  0  0  # atno 8578 bound_to 3389
    1.8465  -20.0868  -51.1682 LP  0  0  0  0  0  0  0  0  0  0  0  0  # atno 8579 bound_to 3340
    1.7217  -19.1738  -52.6348 LP  0  0  0  0  0  0  0  0  0  0  0  0  # atno 8580 bound_to 3340
    0.5506  -22.3903  -51.5456 LP  0  0  0  0  0  0  0  0  0  0  0  0  # atno 8581 bound_to 3366
    1.0096  -24.0123  -51.9435 LP  0  0  0  0  0  0  0  0  0  0  0  0  # atno 8582 bound_to 3366

> <Gold.Score>
     Fitness  S(hb_ext) S(vdw_ext)  S(hb_int)    S(int)      intcor
     26.17       0.00      19.29       0.00      -0.36      -0.76

> <Gold.Goldscore.Fitness>
26.1708

> <Gold.Goldscore.Internal.Vdw>
-0.6078

> <Gold.Goldscore.Internal.Torsion>
-0.5138

> <Gold.Goldscore.External.Vdw>
19.2927

> <Gold.Goldscore.Internal.HBond>
0.0000

> <Gold.Goldscore.External.HBond>
0.0000

> <Gold.Goldscore.Internal.Correction>
-0.7650

> <Gold.Goldscore.Internal.Vdw.Weighted>
-0.6078

> <Gold.Goldscore.Internal.Torsion.Weighted>
-0.5138

> <Gold.Goldscore.External.Vdw.Weighted>
26.5275

> <Gold.Goldscore.Internal.HBond.Weighted>
0.0000

> <Gold.Goldscore.External.HBond.Weighted>
0.0000

> <Gold.Goldscore.Internal.Correction.Weighted>
-0.7650

> <Gold.Rescore>
     Score     S(PLP)   S(hbond)     S(cho)   S(metal)  DE(clash)   DE(tors)     intcor
     18.35     -19.85       0.00       0.00       0.00       0.00       0.75       ----

> <Gold.PLP.Fitness>
18.3494

> <Gold.PLP.PLP>
-19.8527

> <Gold.PLP.part.hbond>
0.0000

> <Gold.PLP.part.metal>
0.0000

> <Gold.PLP.part.buried>
-1.1061

> <Gold.PLP.part.nonpolar>
-22.9031

> <Gold.PLP.part.repulsive>
3.7140

> <Gold.PLP.ligand.clash>
0.0000

> <Gold.PLP.ligand.torsion>
0.7516

> <Gold.PLP.Chemscore.Hbond>
0.0000

> <Gold.PLP.Chemscore.CHOScore>
0.0000

> <Gold.PLP.Chemscore.Metal>
0.0000

> <Gold.PLP.Chemscore.Internal.Correction>
   9.000000E+99

