#       Name:                CT1002167954
#       Creating user name   hitesit
#       Creation time:       Sun Apr 16 02:22:32 2023


#       File generated by GOLD software.
#

@<TRIPOS>MOLECULE
CT1002167954|ligand_prepared|mol2|1|dock6
    29    30     1
SMALL
NO_CHARGES


@<TRIPOS>ATOM
      1 C1           0.5270 -30.3015 -49.8959 C.3            1 RES1               0.0000
      2 C2           0.6900 -28.8547 -49.3871 C.ar           1 RES1               0.0000
      3 C3          -0.9581 -30.4864 -50.1932 C.2            1 RES1               0.0000
      4 C4           1.4270 -30.4271 -51.1202 C.2            1 RES1               0.0000
      5 C5           0.9605 -31.3764 -48.8720 C.3            1 RES1               0.0000
      6 C6           1.0340 -27.8299 -50.2636 C.ar           1 RES1               0.0000
      7 C7           0.4974 -28.5294 -48.0471 C.ar           1 RES1               0.0000
      8 N8          -1.3413 -30.5179 -51.5017 N.am           1 RES1               0.0000
      9 O9          -1.7852 -30.5636 -49.2932 O.2            1 RES1               0.0000
     10 N10          0.8310 -30.6337 -52.3367 N.am           1 RES1               0.0000
     11 O11          2.6459 -30.3326 -51.0447 O.2            1 RES1               0.0000
     12 C12          1.0513 -32.7777 -49.4554 C.3            1 RES1               0.0000
     13 C13          1.1773 -26.5266 -49.8172 C.ar           1 RES1               0.0000
     14 C14          0.6414 -27.2255 -47.6027 C.ar           1 RES1               0.0000
     15 C15         -0.5140 -30.6540 -52.5873 C.2            1 RES1               0.0000
     16 C16          0.9807 -26.2234 -48.4868 C.ar           1 RES1               0.0000
     17 O17         -0.9737 -30.7904 -53.7174 O.2            1 RES1               0.0000
     18 H18          1.9402 -31.1000 -48.4632 H              1 RES1               0.0000
     19 H19          0.2417 -31.3849 -48.0433 H              1 RES1               0.0000
     20 H20          1.1950 -28.0498 -51.3137 H              1 RES1               0.0000
     21 H21          0.2310 -29.3017 -47.3334 H              1 RES1               0.0000
     22 H22         -2.3350 -30.4323 -51.6904 H              1 RES1               0.0000
     23 H23          1.4471 -30.7865 -53.1288 H              1 RES1               0.0000
     24 H24          1.3591 -33.4927 -48.6954 H              1 RES1               0.0000
     25 H25          0.0877 -33.0949 -49.8487 H              1 RES1               0.0000
     26 H26          1.7761 -32.8117 -50.2661 H              1 RES1               0.0000
     27 H27          1.4457 -25.7418 -50.5167 H              1 RES1               0.0000
     28 H28          0.4864 -26.9916 -46.5546 H              1 RES1               0.0000
     29 H29          1.0927 -25.2023 -48.1374 H              1 RES1               0.0000
@<TRIPOS>BOND
    1    1    2 1     
    2    1    3 1     
    3    1    4 1     
    4    1    5 1     
    5    2    6 ar    
    6    2    7 ar    
    7    3    8 1     
    8    3    9 2     
    9    4   10 1     
   10    4   11 2     
   11    5   12 1     
   12    5   18 1     
   13    5   19 1     
   14    6   13 ar    
   15    6   20 1     
   16    7   14 ar    
   17    7   21 1     
   18    8   15 1     
   19    8   22 1     
   20   10   15 1     
   21   10   23 1     
   22   12   24 1     
   23   12   25 1     
   24   12   26 1     
   25   13   16 ar    
   26   13   27 1     
   27   14   16 ar    
   28   14   28 1     
   29   15   17 2     
   30   16   29 1     
@<TRIPOS>SUBSTRUCTURE
      1 RES1           1
@<TRIPOS>SET
DONOR_HYDROGENS      STATIC     ATOMS    <user>   **** ""
2 22 23
ATOM$RED        STATIC     ATOMS    COLORGROUP SYSTEM
2 22 23
@<TRIPOS>COMMENT
> <Gold.Version>
2022.3.0

> <Gold.Id.Protein>
unknown|7kl0_clean|pdb

> <Gold.Protein.RotatedTorsions>
[ 3167 3155 3156 3157 ] final  -97.34 input   96.64 | X-H torsion
[ 3215 3201 3202 3203 ] final -123.61 input -100.55 | X-H torsion
[ 3255 3234 3235 3236 ] final -117.25 input   29.64 | X-H torsion
[ 3263 3245 3244 3242 ] final  -99.89 input   60.01 | X-H torsion
[ 3290 3276 3277 3278 ] final   68.74 input   80.30 | X-H torsion
[ 3319 3312 3313 3314 ] final   90.14 input  125.66 | X-H torsion
[ 3327 3317 3316 3313 ] final -117.77 input   60.01 | X-H torsion
[ 3352 3337 3338 3339 ] final  -71.65 input  120.41 | X-H torsion
[ 3394 3386 3387 3388 ] final -121.08 input  107.09 | X-H torsion
[ 3416 3407 3408 3409 ] final  106.62 input  119.47 | X-H torsion
[ 4557 4546 4545 4544 ] final  166.02 input   60.03 | X-H torsion
[ 3081 3062 3063 3064 ] final  111.95 input  114.53 | X-H torsion
[ 3298 3287 3286 3284 ] final  -20.27 input   60.01 | X-H torsion
[ 3370 3363 3364 3365 ] final -166.33 input  114.58 | X-H torsion
[ 3442 3428 3429 3430 ] final  -11.66 input  113.40 | X-H torsion
[ 8535 3041 3040 3039 ] final   94.06 input    0.00 | X-H torsion
[ 8540 3158 3157 3156 ] final   67.36 input    0.00 | X-H torsion
[ 8544 3237 3236 3235 ] final -110.06 input    0.00 | X-H torsion
[ 8549 3279 3278 3277 ] final -107.42 input   -0.00 | X-H torsion
[ 8552 3315 3314 3313 ] final  106.54 input    0.00 | X-H torsion
[ 8563 6290 6289 6288 ] final  -98.51 input    0.00 | X-H torsion
[ 8568 3065 3064 3063 ] final   30.90 input    0.00 | X-H torsion
[ 8570 3132 3131 3130 ] final  -56.43 input    0.00 | X-H torsion
[ 8572 3204 3203 3202 ] final  -32.73 input   -0.00 | X-H torsion
[ 8577 3389 3388 3387 ] final  -30.47 input   -0.00 | X-H torsion
[ 8579 3340 3339 3338 ] final   50.25 input    0.00 | X-H torsion
[ 8581 3366 3365 3364 ] final  -62.21 input   -0.00 | X-H torsion

> <Gold.Protein.ActiveResidues>
 ASP100  ILE101  ALA103  ARG104  GLU105  TYR106  TYR107  SER108  GLU109  ALA110 
 ASP111  ALA112  SER113  CYS115  LYS148  GLY149  LEU206  LEU207 

> <Gold.Protein.RotatedAtoms>
    3.4210  -21.1934  -37.6223 H   0  0  0  0  0  0  0  0  0  0  0  0  # atno 3081 bound_to 3062
    9.7051  -22.6559  -38.0022 H   0  0  0  0  0  0  0  0  0  0  0  0  # atno 3167 bound_to 3155
    9.2744  -20.2124  -38.7936 H   0  0  0  0  0  0  0  0  0  0  0  0  # atno 3215 bound_to 3201
    8.5129  -18.4013  -41.2630 H   0  0  0  0  0  0  0  0  0  0  0  0  # atno 3255 bound_to 3234
   13.6677  -19.1722  -46.4564 H   0  0  0  0  0  0  0  0  0  0  0  0  # atno 3263 bound_to 3245
    6.0904  -18.3217  -44.9751 H   0  0  0  0  0  0  0  0  0  0  0  0  # atno 3290 bound_to 3276
    2.8069  -23.5389  -41.0564 H   0  0  0  0  0  0  0  0  0  0  0  0  # atno 3298 bound_to 3287
    6.5965  -21.6020  -47.8825 H   0  0  0  0  0  0  0  0  0  0  0  0  # atno 3319 bound_to 3312
    6.5411  -23.4664  -49.9328 H   0  0  0  0  0  0  0  0  0  0  0  0  # atno 3327 bound_to 3317
    5.6608  -19.5666  -50.3679 H   0  0  0  0  0  0  0  0  0  0  0  0  # atno 3352 bound_to 3337
    4.2967  -20.4970  -53.4343 H   0  0  0  0  0  0  0  0  0  0  0  0  # atno 3370 bound_to 3363
    3.0277  -23.3459  -51.3893 H   0  0  0  0  0  0  0  0  0  0  0  0  # atno 3394 bound_to 3386
    2.8572  -20.6782  -49.3548 H   0  0  0  0  0  0  0  0  0  0  0  0  # atno 3416 bound_to 3407
   -0.0853  -20.6209  -49.5243 H   0  0  0  0  0  0  0  0  0  0  0  0  # atno 3442 bound_to 3428
    8.5669  -27.1843  -46.1622 H   0  0  0  0  0  0  0  0  0  0  0  0  # atno 4557 bound_to 4546
    8.0807  -27.2763  -44.5802 H   0  0  0  0  0  0  0  0  0  0  0  0  # atno 4558 bound_to 4546
    8.5496  -28.6477  -45.3846 H   0  0  0  0  0  0  0  0  0  0  0  0  # atno 4559 bound_to 4546
    6.0487  -22.9626  -39.5711 LP  0  0  0  0  0  0  0  0  0  0  0  0  # atno 8535 bound_to 3041
    6.8628  -22.6221  -38.0807 LP  0  0  0  0  0  0  0  0  0  0  0  0  # atno 8536 bound_to 3041
    8.1052  -22.1316  -38.4893 LP  0  0  0  0  0  0  0  0  0  0  0  0  # atno 8539 bound_to 3155
   10.1688  -20.9653  -42.4536 LP  0  0  0  0  0  0  0  0  0  0  0  0  # atno 8540 bound_to 3158
   11.5251  -20.4500  -41.5077 LP  0  0  0  0  0  0  0  0  0  0  0  0  # atno 8541 bound_to 3158
    9.5248  -20.5796  -40.4921 LP  0  0  0  0  0  0  0  0  0  0  0  0  # atno 8542 bound_to 3201
    9.7504  -18.8293  -42.4290 LP  0  0  0  0  0  0  0  0  0  0  0  0  # atno 8543 bound_to 3234
    8.8850  -20.5870  -44.8394 LP  0  0  0  0  0  0  0  0  0  0  0  0  # atno 8544 bound_to 3237
    8.2723  -20.8954  -43.2490 LP  0  0  0  0  0  0  0  0  0  0  0  0  # atno 8545 bound_to 3237
   13.9367  -17.5995  -46.7767 LP  0  0  0  0  0  0  0  0  0  0  0  0  # atno 8546 bound_to 3245
   13.0942  -18.5179  -47.8317 LP  0  0  0  0  0  0  0  0  0  0  0  0  # atno 8547 bound_to 3245
    7.2313  -19.4571  -44.2671 LP  0  0  0  0  0  0  0  0  0  0  0  0  # atno 8548 bound_to 3276
    5.8583  -18.1744  -48.1853 LP  0  0  0  0  0  0  0  0  0  0  0  0  # atno 8549 bound_to 3279
    7.2128  -17.9477  -47.1298 LP  0  0  0  0  0  0  0  0  0  0  0  0  # atno 8550 bound_to 3279
    7.1606  -19.9772  -47.5383 LP  0  0  0  0  0  0  0  0  0  0  0  0  # atno 8551 bound_to 3312
    4.2673  -19.2962  -48.9697 LP  0  0  0  0  0  0  0  0  0  0  0  0  # atno 8552 bound_to 3315
    4.2353  -20.9658  -49.4295 LP  0  0  0  0  0  0  0  0  0  0  0  0  # atno 8553 bound_to 3315
    6.0554  -22.8517  -51.3591 LP  0  0  0  0  0  0  0  0  0  0  0  0  # atno 8554 bound_to 3317
    5.4957  -22.2196  -49.9614 LP  0  0  0  0  0  0  0  0  0  0  0  0  # atno 8555 bound_to 3317
    6.5556  -19.3080  -51.8501 LP  0  0  0  0  0  0  0  0  0  0  0  0  # atno 8556 bound_to 3337
    3.6970  -21.9020  -50.6545 LP  0  0  0  0  0  0  0  0  0  0  0  0  # atno 8557 bound_to 3386
    1.8590  -21.8442  -48.5041 LP  0  0  0  0  0  0  0  0  0  0  0  0  # atno 8562 bound_to 3407
    5.4761  -16.9351  -44.1963 LP  0  0  0  0  0  0  0  0  0  0  0  0  # atno 8563 bound_to 6290
    4.5594  -17.8489  -45.3472 LP  0  0  0  0  0  0  0  0  0  0  0  0  # atno 8564 bound_to 6290
    4.7824  -22.1720  -38.1289 LP  0  0  0  0  0  0  0  0  0  0  0  0  # atno 8567 bound_to 3062
    6.9365  -18.8443  -39.6601 LP  0  0  0  0  0  0  0  0  0  0  0  0  # atno 8568 bound_to 3065
    8.0359  -19.4195  -38.4517 LP  0  0  0  0  0  0  0  0  0  0  0  0  # atno 8569 bound_to 3065
   11.6747  -21.8722  -37.2920 LP  0  0  0  0  0  0  0  0  0  0  0  0  # atno 8570 bound_to 3132
   11.5106  -23.2725  -38.2981 LP  0  0  0  0  0  0  0  0  0  0  0  0  # atno 8571 bound_to 3132
    7.8746  -16.7654  -39.8337 LP  0  0  0  0  0  0  0  0  0  0  0  0  # atno 8572 bound_to 3204
    7.9926  -16.2365  -41.4788 LP  0  0  0  0  0  0  0  0  0  0  0  0  # atno 8573 bound_to 3204
    1.6952  -24.0934  -42.1077 LP  0  0  0  0  0  0  0  0  0  0  0  0  # atno 8574 bound_to 3287
    1.4244  -22.7106  -41.2823 LP  0  0  0  0  0  0  0  0  0  0  0  0  # atno 8575 bound_to 3287
    4.2062  -20.8557  -51.7214 LP  0  0  0  0  0  0  0  0  0  0  0  0  # atno 8576 bound_to 3363
    0.2589  -23.4401  -48.4816 LP  0  0  0  0  0  0  0  0  0  0  0  0  # atno 8577 bound_to 3389
    0.2713  -22.0888  -47.3981 LP  0  0  0  0  0  0  0  0  0  0  0  0  # atno 8578 bound_to 3389
    1.8156  -18.9052  -52.3740 LP  0  0  0  0  0  0  0  0  0  0  0  0  # atno 8579 bound_to 3340
    1.7526  -20.3554  -51.4290 LP  0  0  0  0  0  0  0  0  0  0  0  0  # atno 8580 bound_to 3340
    0.5650  -22.3908  -51.9608 LP  0  0  0  0  0  0  0  0  0  0  0  0  # atno 8581 bound_to 3366
    0.9952  -24.0119  -51.5284 LP  0  0  0  0  0  0  0  0  0  0  0  0  # atno 8582 bound_to 3366

> <Gold.Score>
     Fitness  S(hb_ext) S(vdw_ext)  S(hb_int)    S(int)      intcor
     17.43       0.00      13.20       0.00      -0.72      -0.76

> <Gold.Goldscore.Fitness>
17.4316

> <Gold.Goldscore.Internal.Vdw>
-0.9311

> <Gold.Goldscore.Internal.Torsion>
-0.5526

> <Gold.Goldscore.External.Vdw>
13.2002

> <Gold.Goldscore.Internal.HBond>
0.0000

> <Gold.Goldscore.External.HBond>
0.0000

> <Gold.Goldscore.Internal.Correction>
-0.7650

> <Gold.Goldscore.Internal.Vdw.Weighted>
-0.9311

> <Gold.Goldscore.Internal.Torsion.Weighted>
-0.5526

> <Gold.Goldscore.External.Vdw.Weighted>
18.1503

> <Gold.Goldscore.Internal.HBond.Weighted>
0.0000

> <Gold.Goldscore.External.HBond.Weighted>
0.0000

> <Gold.Goldscore.Internal.Correction.Weighted>
-0.7650

> <Gold.Rescore>
     Score     S(PLP)   S(hbond)     S(cho)   S(metal)  DE(clash)   DE(tors)     intcor
     14.32     -16.59       0.00       0.00       0.00       1.68       0.29       ----

> <Gold.PLP.Fitness>
14.3179

> <Gold.PLP.PLP>
-16.5859

> <Gold.PLP.part.hbond>
0.0000

> <Gold.PLP.part.metal>
0.0000

> <Gold.PLP.part.buried>
0.6414

> <Gold.PLP.part.nonpolar>
-17.9791

> <Gold.PLP.part.repulsive>
1.0236

> <Gold.PLP.ligand.clash>
1.6821

> <Gold.PLP.ligand.torsion>
0.2930

> <Gold.PLP.Chemscore.Hbond>
0.0000

> <Gold.PLP.Chemscore.CHOScore>
0.0000

> <Gold.PLP.Chemscore.Metal>
0.0000

> <Gold.PLP.Chemscore.Internal.Correction>
   9.000000E+99

