#       Name:                CT1002167954
#       Creating user name   hitesit
#       Creation time:       Sun Apr 16 02:22:28 2023


#       File generated by GOLD software.
#

@<TRIPOS>MOLECULE
CT1002167954|ligand_prepared|mol2|1|dock1
    29    30     1
SMALL
NO_CHARGES


@<TRIPOS>ATOM
      1 C1           2.1582 -28.2684 -49.3472 C.3            1 RES1               0.0000
      2 C2           1.9167 -27.1812 -48.2802 C.ar           1 RES1               0.0000
      3 C3           2.6050 -27.5376 -50.6100 C.2            1 RES1               0.0000
      4 C4           3.2092 -29.2088 -48.7678 C.2            1 RES1               0.0000
      5 C5           0.9014 -29.1049 -49.6824 C.3            1 RES1               0.0000
      6 C6           2.7538 -27.0763 -47.1734 C.ar           1 RES1               0.0000
      7 C7           0.8646 -26.2759 -48.3901 C.ar           1 RES1               0.0000
      8 N8           3.9221 -27.6188 -50.9544 N.am           1 RES1               0.0000
      9 O9           1.8216 -26.8678 -51.2717 O.2            1 RES1               0.0000
     10 N10          4.4311 -29.2647 -49.3854 N.am           1 RES1               0.0000
     11 O11          2.9958 -29.8895 -47.7721 O.2            1 RES1               0.0000
     12 C12          1.1670 -30.2518 -50.6448 C.3            1 RES1               0.0000
     13 C13          2.5484 -26.0999 -46.2127 C.ar           1 RES1               0.0000
     14 C14          0.6608 -25.3004 -47.4282 C.ar           1 RES1               0.0000
     15 C15          4.8455 -28.4895 -50.4341 C.2            1 RES1               0.0000
     16 C16          1.5021 -25.2111 -46.3397 C.ar           1 RES1               0.0000
     17 O17          5.9790 -28.5595 -50.9003 O.2            1 RES1               0.0000
     18 H18          0.4905 -29.5134 -48.7510 H              1 RES1               0.0000
     19 H19          0.1440 -28.4438 -50.1215 H              1 RES1               0.0000
     20 H20          3.5809 -27.7684 -47.0552 H              1 RES1               0.0000
     21 H21          0.1894 -26.3279 -49.2375 H              1 RES1               0.0000
     22 H22          4.2508 -26.9722 -51.6644 H              1 RES1               0.0000
     23 H23          5.0931 -29.9475 -49.0306 H              1 RES1               0.0000
     24 H24          0.2527 -30.8059 -50.8462 H              1 RES1               0.0000
     25 H25          1.5531 -29.8794 -51.5914 H              1 RES1               0.0000
     26 H26          1.8975 -30.9428 -50.2291 H              1 RES1               0.0000
     27 H27          3.2125 -26.0348 -45.3572 H              1 RES1               0.0000
     28 H28         -0.1642 -24.6034 -47.5318 H              1 RES1               0.0000
     29 H29          1.3416 -24.4461 -45.5872 H              1 RES1               0.0000
@<TRIPOS>BOND
    1    1    2 1     
    2    1    3 1     
    3    1    4 1     
    4    1    5 1     
    5    2    6 ar    
    6    2    7 ar    
    7    3    8 1     
    8    3    9 2     
    9    4   10 1     
   10    4   11 2     
   11    5   12 1     
   12    5   18 1     
   13    5   19 1     
   14    6   13 ar    
   15    6   20 1     
   16    7   14 ar    
   17    7   21 1     
   18    8   15 1     
   19    8   22 1     
   20   10   15 1     
   21   10   23 1     
   22   12   24 1     
   23   12   25 1     
   24   12   26 1     
   25   13   16 ar    
   26   13   27 1     
   27   14   16 ar    
   28   14   28 1     
   29   15   17 2     
   30   16   29 1     
@<TRIPOS>SUBSTRUCTURE
      1 RES1           1
@<TRIPOS>SET
DONOR_HYDROGENS      STATIC     ATOMS    <user>   **** ""
2 22 23
ATOM$RED        STATIC     ATOMS    COLORGROUP SYSTEM
2 22 23
@<TRIPOS>COMMENT
> <Gold.Version>
2022.3.0

> <Gold.Id.Protein>
unknown|7kl0_clean|pdb

> <Gold.Protein.RotatedTorsions>
[ 3167 3155 3156 3157 ] final   75.54 input   96.64 | X-H torsion
[ 3215 3201 3202 3203 ] final    5.44 input -100.55 | X-H torsion
[ 3255 3234 3235 3236 ] final   43.52 input   29.64 | X-H torsion
[ 3263 3245 3244 3242 ] final  175.69 input   60.01 | X-H torsion
[ 3290 3276 3277 3278 ] final   94.28 input   80.30 | X-H torsion
[ 3319 3312 3313 3314 ] final   29.36 input  125.66 | X-H torsion
[ 3327 3317 3316 3313 ] final   80.36 input   60.01 | X-H torsion
[ 3352 3337 3338 3339 ] final  -24.01 input  120.41 | X-H torsion
[ 3394 3386 3387 3388 ] final   85.26 input  107.09 | X-H torsion
[ 3416 3407 3408 3409 ] final  -60.55 input  119.47 | X-H torsion
[ 4557 4546 4545 4544 ] final  111.11 input   60.03 | X-H torsion
[ 3081 3062 3063 3064 ] final  161.91 input  114.53 | X-H torsion
[ 3298 3287 3286 3284 ] final  -85.24 input   60.01 | X-H torsion
[ 3370 3363 3364 3365 ] final   82.55 input  114.58 | X-H torsion
[ 3442 3428 3429 3430 ] final  -42.57 input  113.40 | X-H torsion
[ 8535 3041 3040 3039 ] final  -54.96 input    0.00 | X-H torsion
[ 8540 3158 3157 3156 ] final -128.47 input    0.00 | X-H torsion
[ 8544 3237 3236 3235 ] final  107.57 input    0.00 | X-H torsion
[ 8549 3279 3278 3277 ] final -171.09 input   -0.00 | X-H torsion
[ 8552 3315 3314 3313 ] final  112.60 input    0.00 | X-H torsion
[ 8563 6290 6289 6288 ] final  109.37 input    0.00 | X-H torsion
[ 8568 3065 3064 3063 ] final  150.36 input    0.00 | X-H torsion
[ 8570 3132 3131 3130 ] final   52.42 input    0.00 | X-H torsion
[ 8572 3204 3203 3202 ] final   19.47 input   -0.00 | X-H torsion
[ 8577 3389 3388 3387 ] final   96.40 input   -0.00 | X-H torsion
[ 8579 3340 3339 3338 ] final -156.39 input    0.00 | X-H torsion
[ 8581 3366 3365 3364 ] final   94.84 input   -0.00 | X-H torsion

> <Gold.Protein.ActiveResidues>
 ASP100  ILE101  ALA103  ARG104  GLU105  TYR106  TYR107  SER108  GLU109  ALA110 
 ASP111  ALA112  SER113  CYS115  LYS148  GLY149  LEU206  LEU207 

> <Gold.Protein.RotatedAtoms>
    3.3348  -21.5389  -38.2861 H   0  0  0  0  0  0  0  0  0  0  0  0  # atno 3081 bound_to 3062
    8.1201  -22.0163  -38.5176 H   0  0  0  0  0  0  0  0  0  0  0  0  # atno 3167 bound_to 3155
    8.8154  -20.3583  -40.3450 H   0  0  0  0  0  0  0  0  0  0  0  0  # atno 3215 bound_to 3201
    9.6163  -19.0936  -42.4555 H   0  0  0  0  0  0  0  0  0  0  0  0  # atno 3255 bound_to 3234
   14.0556  -17.9790  -46.3625 H   0  0  0  0  0  0  0  0  0  0  0  0  # atno 3263 bound_to 3245
    5.8712  -18.5037  -44.6939 H   0  0  0  0  0  0  0  0  0  0  0  0  # atno 3290 bound_to 3276
    2.4694  -24.2043  -41.7310 H   0  0  0  0  0  0  0  0  0  0  0  0  # atno 3298 bound_to 3287
    6.0064  -20.9165  -47.8136 H   0  0  0  0  0  0  0  0  0  0  0  0  # atno 3319 bound_to 3312
    5.6501  -22.3701  -51.1257 H   0  0  0  0  0  0  0  0  0  0  0  0  # atno 3327 bound_to 3317
    5.6571  -20.1320  -50.8115 H   0  0  0  0  0  0  0  0  0  0  0  0  # atno 3352 bound_to 3337
    4.9001  -21.2418  -52.3154 H   0  0  0  0  0  0  0  0  0  0  0  0  # atno 3370 bound_to 3363
    4.0066  -22.1497  -50.5868 H   0  0  0  0  0  0  0  0  0  0  0  0  # atno 3394 bound_to 3386
    1.7045  -21.8407  -48.6404 H   0  0  0  0  0  0  0  0  0  0  0  0  # atno 3416 bound_to 3407
   -0.2153  -20.1946  -49.3518 H   0  0  0  0  0  0  0  0  0  0  0  0  # atno 3442 bound_to 3428
    8.7171  -28.0525  -46.2081 H   0  0  0  0  0  0  0  0  0  0  0  0  # atno 4557 bound_to 4546
    8.2246  -26.7660  -45.2862 H   0  0  0  0  0  0  0  0  0  0  0  0  # atno 4558 bound_to 4546
    8.2560  -28.2896  -44.6340 H   0  0  0  0  0  0  0  0  0  0  0  0  # atno 4559 bound_to 4546
    6.7715  -23.0754  -38.0708 LP  0  0  0  0  0  0  0  0  0  0  0  0  # atno 8535 bound_to 3041
    6.1400  -22.5092  -39.5810 LP  0  0  0  0  0  0  0  0  0  0  0  0  # atno 8536 bound_to 3041
    9.6259  -22.7452  -37.9948 LP  0  0  0  0  0  0  0  0  0  0  0  0  # atno 8539 bound_to 3155
   11.4249  -20.2361  -41.5406 LP  0  0  0  0  0  0  0  0  0  0  0  0  # atno 8540 bound_to 3158
   10.2690  -21.1792  -42.4207 LP  0  0  0  0  0  0  0  0  0  0  0  0  # atno 8541 bound_to 3158
    9.9611  -20.4409  -39.0172 LP  0  0  0  0  0  0  0  0  0  0  0  0  # atno 8542 bound_to 3201
    8.6941  -18.1666  -41.2874 LP  0  0  0  0  0  0  0  0  0  0  0  0  # atno 8543 bound_to 3234
    7.9478  -21.1569  -43.6209 LP  0  0  0  0  0  0  0  0  0  0  0  0  # atno 8544 bound_to 3237
    9.2096  -20.3255  -44.4674 LP  0  0  0  0  0  0  0  0  0  0  0  0  # atno 8545 bound_to 3237
   13.2718  -17.9714  -47.7887 LP  0  0  0  0  0  0  0  0  0  0  0  0  # atno 8546 bound_to 3245
   13.3686  -19.3471  -46.9142 LP  0  0  0  0  0  0  0  0  0  0  0  0  # atno 8547 bound_to 3245
    7.4376  -19.2859  -44.5317 LP  0  0  0  0  0  0  0  0  0  0  0  0  # atno 8548 bound_to 3276
    6.7188  -18.2279  -48.4873 LP  0  0  0  0  0  0  0  0  0  0  0  0  # atno 8549 bound_to 3279
    6.3523  -17.8941  -46.8277 LP  0  0  0  0  0  0  0  0  0  0  0  0  # atno 8550 bound_to 3279
    7.7246  -20.6325  -47.6042 LP  0  0  0  0  0  0  0  0  0  0  0  0  # atno 8551 bound_to 3312
    4.2153  -19.2799  -49.0433 LP  0  0  0  0  0  0  0  0  0  0  0  0  # atno 8552 bound_to 3315
    4.2872  -20.9820  -49.3558 LP  0  0  0  0  0  0  0  0  0  0  0  0  # atno 8553 bound_to 3315
    5.8204  -22.6191  -49.5267 LP  0  0  0  0  0  0  0  0  0  0  0  0  # atno 8554 bound_to 3317
    6.6281  -23.5564  -50.5924 LP  0  0  0  0  0  0  0  0  0  0  0  0  # atno 8555 bound_to 3317
    6.5592  -18.7613  -51.4211 LP  0  0  0  0  0  0  0  0  0  0  0  0  # atno 8556 bound_to 3337
    2.7576  -23.0500  -51.4247 LP  0  0  0  0  0  0  0  0  0  0  0  0  # atno 8557 bound_to 3386
    2.9564  -20.7375  -49.1842 LP  0  0  0  0  0  0  0  0  0  0  0  0  # atno 8562 bound_to 3407
    4.8118  -17.6146  -45.5829 LP  0  0  0  0  0  0  0  0  0  0  0  0  # atno 8563 bound_to 6290
    5.2237  -17.1695  -43.9605 LP  0  0  0  0  0  0  0  0  0  0  0  0  # atno 8564 bound_to 6290
    4.8655  -21.8391  -37.4894 LP  0  0  0  0  0  0  0  0  0  0  0  0  # atno 8567 bound_to 3062
    7.7388  -18.5991  -38.4216 LP  0  0  0  0  0  0  0  0  0  0  0  0  # atno 8568 bound_to 3065
    7.2335  -19.6647  -39.6902 LP  0  0  0  0  0  0  0  0  0  0  0  0  # atno 8569 bound_to 3065
   11.5831  -23.2780  -37.2930 LP  0  0  0  0  0  0  0  0  0  0  0  0  # atno 8570 bound_to 3132
   11.6022  -21.8668  -38.2971 LP  0  0  0  0  0  0  0  0  0  0  0  0  # atno 8571 bound_to 3132
    8.4702  -16.3206  -40.0009 LP  0  0  0  0  0  0  0  0  0  0  0  0  # atno 8572 bound_to 3204
    7.3970  -16.6813  -41.3116 LP  0  0  0  0  0  0  0  0  0  0  0  0  # atno 8573 bound_to 3204
    1.1321  -23.2869  -41.8665 LP  0  0  0  0  0  0  0  0  0  0  0  0  # atno 8574 bound_to 3287
    2.3273  -22.8472  -40.8443 LP  0  0  0  0  0  0  0  0  0  0  0  0  # atno 8575 bound_to 3287
    3.6259  -20.1396  -52.7973 LP  0  0  0  0  0  0  0  0  0  0  0  0  # atno 8576 bound_to 3363
    0.6405  -22.7269  -47.1603 LP  0  0  0  0  0  0  0  0  0  0  0  0  # atno 8577 bound_to 3389
   -0.1104  -22.8020  -48.7193 LP  0  0  0  0  0  0  0  0  0  0  0  0  # atno 8578 bound_to 3389
    1.6623  -20.4813  -51.7967 LP  0  0  0  0  0  0  0  0  0  0  0  0  # atno 8579 bound_to 3340
    1.9059  -18.7793  -52.0064 LP  0  0  0  0  0  0  0  0  0  0  0  0  # atno 8580 bound_to 3340
    1.0110  -24.0262  -51.8723 LP  0  0  0  0  0  0  0  0  0  0  0  0  # atno 8581 bound_to 3366
    0.5492  -22.3765  -51.6169 LP  0  0  0  0  0  0  0  0  0  0  0  0  # atno 8582 bound_to 3366

> <Gold.Score>
     Fitness  S(hb_ext) S(vdw_ext)  S(hb_int)    S(int)      intcor
     25.01       0.00      20.10       0.00      -2.62      -0.79

> <Gold.Goldscore.Fitness>
25.0104

> <Gold.Goldscore.Internal.Vdw>
-3.0067

> <Gold.Goldscore.Internal.Torsion>
-0.4049

> <Gold.Goldscore.External.Vdw>
20.0954

> <Gold.Goldscore.Internal.HBond>
0.0000

> <Gold.Goldscore.External.HBond>
0.0000

> <Gold.Goldscore.Internal.Correction>
-0.7909

> <Gold.Goldscore.Internal.Vdw.Weighted>
-3.0067

> <Gold.Goldscore.Internal.Torsion.Weighted>
-0.4049

> <Gold.Goldscore.External.Vdw.Weighted>
27.6311

> <Gold.Goldscore.Internal.HBond.Weighted>
0.0000

> <Gold.Goldscore.External.HBond.Weighted>
0.0000

> <Gold.Goldscore.Internal.Correction.Weighted>
-0.7909

> <Gold.Rescore>
     Score     S(PLP)   S(hbond)     S(cho)   S(metal)  DE(clash)   DE(tors)     intcor
     23.70     -25.97       0.00       0.00       0.00       1.67       0.30       ----

> <Gold.PLP.Fitness>
23.6988

> <Gold.PLP.PLP>
-25.9707

> <Gold.PLP.part.hbond>
-1.0000

> <Gold.PLP.part.metal>
0.0000

> <Gold.PLP.part.buried>
0.7770

> <Gold.PLP.part.nonpolar>
-26.4957

> <Gold.PLP.part.repulsive>
0.3404

> <Gold.PLP.ligand.clash>
1.6698

> <Gold.PLP.ligand.torsion>
0.3010

> <Gold.PLP.Chemscore.Hbond>
0.0000

> <Gold.PLP.Chemscore.CHOScore>
0.0000

> <Gold.PLP.Chemscore.Metal>
0.0000

> <Gold.PLP.Chemscore.Internal.Correction>
   9.000000E+99

