#       Name:                CT1002167954
#       Creating user name   hitesit
#       Creation time:       Sun Apr 16 02:22:29 2023


#       File generated by GOLD software.
#

@<TRIPOS>MOLECULE
CT1002167954|ligand_prepared|mol2|1|dock2
    29    30     1
SMALL
NO_CHARGES


@<TRIPOS>ATOM
      1 C1           1.5296 -28.5627 -50.5356 C.3            1 RES1               0.0000
      2 C2           1.9311 -27.8089 -49.2512 C.ar           1 RES1               0.0000
      3 C3           2.4686 -28.0699 -51.6328 C.2            1 RES1               0.0000
      4 C4           1.6675 -30.0478 -50.2194 C.2            1 RES1               0.0000
      5 C5           0.0723 -28.3027 -50.9829 C.3            1 RES1               0.0000
      6 C6           2.8886 -28.3364 -48.3900 C.ar           1 RES1               0.0000
      7 C7           1.3557 -26.5861 -48.9162 C.ar           1 RES1               0.0000
      8 N8           3.4549 -28.9157 -52.0472 N.am           1 RES1               0.0000
      9 O9           2.3697 -26.9417 -52.0994 O.2            1 RES1               0.0000
     10 N10          2.6260 -30.7609 -50.8906 N.am           1 RES1               0.0000
     11 O11          0.9660 -30.6033 -49.3830 O.2            1 RES1               0.0000
     12 C12         -0.4418 -29.3012 -52.0081 C.3            1 RES1               0.0000
     13 C13          3.2597 -27.6644 -47.2372 C.ar           1 RES1               0.0000
     14 C14          1.7281 -25.9158 -47.7627 C.ar           1 RES1               0.0000
     15 C15          3.5464 -30.2555 -51.7679 C.2            1 RES1               0.0000
     16 C16          2.6801 -26.4537 -46.9230 C.ar           1 RES1               0.0000
     17 O17          4.4129 -30.9509 -52.2903 O.2            1 RES1               0.0000
     18 H18         -0.5790 -28.3354 -50.1007 H              1 RES1               0.0000
     19 H19          0.0084 -27.2941 -51.4096 H              1 RES1               0.0000
     20 H20          3.3538 -29.2893 -48.6195 H              1 RES1               0.0000
     21 H21          0.6039 -26.1445 -49.5615 H              1 RES1               0.0000
     22 H22          4.1928 -28.5148 -52.6175 H              1 RES1               0.0000
     23 H23          2.6560 -31.7612 -50.7207 H              1 RES1               0.0000
     24 H24         -1.4683 -29.0733 -52.2875 H              1 RES1               0.0000
     25 H25          0.1679 -29.2775 -52.9089 H              1 RES1               0.0000
     26 H26         -0.4161 -30.3127 -51.6079 H              1 RES1               0.0000
     27 H27          4.0084 -28.0926 -46.5789 H              1 RES1               0.0000
     28 H28          1.2689 -24.9635 -47.5191 H              1 RES1               0.0000
     29 H29          2.9713 -25.9273 -46.0200 H              1 RES1               0.0000
@<TRIPOS>BOND
    1    1    2 1     
    2    1    3 1     
    3    1    4 1     
    4    1    5 1     
    5    2    6 ar    
    6    2    7 ar    
    7    3    8 1     
    8    3    9 2     
    9    4   10 1     
   10    4   11 2     
   11    5   12 1     
   12    5   18 1     
   13    5   19 1     
   14    6   13 ar    
   15    6   20 1     
   16    7   14 ar    
   17    7   21 1     
   18    8   15 1     
   19    8   22 1     
   20   10   15 1     
   21   10   23 1     
   22   12   24 1     
   23   12   25 1     
   24   12   26 1     
   25   13   16 ar    
   26   13   27 1     
   27   14   16 ar    
   28   14   28 1     
   29   15   17 2     
   30   16   29 1     
@<TRIPOS>SUBSTRUCTURE
      1 RES1           1
@<TRIPOS>SET
DONOR_HYDROGENS      STATIC     ATOMS    <user>   **** ""
2 22 23
ATOM$RED        STATIC     ATOMS    COLORGROUP SYSTEM
2 22 23
@<TRIPOS>COMMENT
> <Gold.Version>
2022.3.0

> <Gold.Id.Protein>
unknown|7kl0_clean|pdb

> <Gold.Protein.RotatedTorsions>
[ 3167 3155 3156 3157 ] final  -93.03 input   96.64 | X-H torsion
[ 3215 3201 3202 3203 ] final   72.90 input -100.55 | X-H torsion
[ 3255 3234 3235 3236 ] final -157.03 input   29.64 | X-H torsion
[ 3263 3245 3244 3242 ] final   44.32 input   60.01 | X-H torsion
[ 3290 3276 3277 3278 ] final   61.30 input   80.30 | X-H torsion
[ 3319 3312 3313 3314 ] final    4.30 input  125.66 | X-H torsion
[ 3327 3317 3316 3313 ] final  165.10 input   60.01 | X-H torsion
[ 3352 3337 3338 3339 ] final -120.12 input  120.41 | X-H torsion
[ 3394 3386 3387 3388 ] final -176.34 input  107.09 | X-H torsion
[ 3416 3407 3408 3409 ] final  -66.29 input  119.47 | X-H torsion
[ 4557 4546 4545 4544 ] final  -51.04 input   60.03 | X-H torsion
[ 3081 3062 3063 3064 ] final    8.79 input  114.53 | X-H torsion
[ 3298 3287 3286 3284 ] final   73.17 input   60.01 | X-H torsion
[ 3370 3363 3364 3365 ] final -168.36 input  114.58 | X-H torsion
[ 3442 3428 3429 3430 ] final  -93.73 input  113.40 | X-H torsion
[ 8535 3041 3040 3039 ] final  170.00 input    0.00 | X-H torsion
[ 8540 3158 3157 3156 ] final   -0.68 input    0.00 | X-H torsion
[ 8544 3237 3236 3235 ] final  -14.15 input    0.00 | X-H torsion
[ 8549 3279 3278 3277 ] final   99.24 input   -0.00 | X-H torsion
[ 8552 3315 3314 3313 ] final -161.58 input    0.00 | X-H torsion
[ 8563 6290 6289 6288 ] final  118.47 input    0.00 | X-H torsion
[ 8568 3065 3064 3063 ] final   83.66 input    0.00 | X-H torsion
[ 8570 3132 3131 3130 ] final   25.09 input    0.00 | X-H torsion
[ 8572 3204 3203 3202 ] final -161.14 input   -0.00 | X-H torsion
[ 8577 3389 3388 3387 ] final   45.42 input   -0.00 | X-H torsion
[ 8579 3340 3339 3338 ] final  141.97 input    0.00 | X-H torsion
[ 8581 3366 3365 3364 ] final   65.63 input   -0.00 | X-H torsion

> <Gold.Protein.ActiveResidues>
 ASP100  ILE101  ALA103  ARG104  GLU105  TYR106  TYR107  SER108  GLU109  ALA110 
 ASP111  ALA112  SER113  CYS115  LYS148  GLY149  LEU206  LEU207 

> <Gold.Protein.RotatedAtoms>
    4.7056  -21.5729  -37.2229 H   0  0  0  0  0  0  0  0  0  0  0  0  # atno 3081 bound_to 3062
    9.7215  -22.5911  -37.9953 H   0  0  0  0  0  0  0  0  0  0  0  0  # atno 3167 bound_to 3155
    9.7832  -20.5790  -40.4603 H   0  0  0  0  0  0  0  0  0  0  0  0  # atno 3215 bound_to 3201
    8.8548  -17.9135  -41.3908 H   0  0  0  0  0  0  0  0  0  0  0  0  # atno 3255 bound_to 3234
   13.1987  -18.1378  -47.8299 H   0  0  0  0  0  0  0  0  0  0  0  0  # atno 3263 bound_to 3245
    6.1780  -18.2900  -45.0465 H   0  0  0  0  0  0  0  0  0  0  0  0  # atno 3290 bound_to 3276
    1.7734  -22.6500  -41.0355 H   0  0  0  0  0  0  0  0  0  0  0  0  # atno 3298 bound_to 3287
    6.0215  -20.5330  -47.7503 H   0  0  0  0  0  0  0  0  0  0  0  0  # atno 3319 bound_to 3312
    6.4590  -23.3378  -51.0901 H   0  0  0  0  0  0  0  0  0  0  0  0  # atno 3327 bound_to 3317
    5.9622  -18.9035  -50.4243 H   0  0  0  0  0  0  0  0  0  0  0  0  # atno 3352 bound_to 3337
    4.3224  -20.5154  -53.4362 H   0  0  0  0  0  0  0  0  0  0  0  0  # atno 3370 bound_to 3363
    3.8057  -23.3847  -51.1041 H   0  0  0  0  0  0  0  0  0  0  0  0  # atno 3394 bound_to 3386
    1.7468  -21.8424  -48.5610 H   0  0  0  0  0  0  0  0  0  0  0  0  # atno 3416 bound_to 3407
   -0.1067  -19.4437  -49.5072 H   0  0  0  0  0  0  0  0  0  0  0  0  # atno 3442 bound_to 3428
    8.1018  -27.6403  -44.4686 H   0  0  0  0  0  0  0  0  0  0  0  0  # atno 4557 bound_to 4546
    8.6475  -28.5531  -45.7400 H   0  0  0  0  0  0  0  0  0  0  0  0  # atno 4558 bound_to 4546
    8.4486  -26.9174  -45.9190 H   0  0  0  0  0  0  0  0  0  0  0  0  # atno 4559 bound_to 4546
    6.4195  -22.0251  -39.2259 LP  0  0  0  0  0  0  0  0  0  0  0  0  # atno 8535 bound_to 3041
    6.4920  -23.5596  -38.4259 LP  0  0  0  0  0  0  0  0  0  0  0  0  # atno 8536 bound_to 3041
    8.0895  -22.1938  -38.4960 LP  0  0  0  0  0  0  0  0  0  0  0  0  # atno 8539 bound_to 3155
   10.8467  -21.5645  -42.1067 LP  0  0  0  0  0  0  0  0  0  0  0  0  # atno 8540 bound_to 3158
   10.8472  -19.8509  -41.8547 LP  0  0  0  0  0  0  0  0  0  0  0  0  # atno 8541 bound_to 3158
    9.0411  -20.2311  -38.9076 LP  0  0  0  0  0  0  0  0  0  0  0  0  # atno 8542 bound_to 3201
    9.4232  -19.2964  -42.3066 LP  0  0  0  0  0  0  0  0  0  0  0  0  # atno 8543 bound_to 3234
    9.1797  -20.2788  -43.6258 LP  0  0  0  0  0  0  0  0  0  0  0  0  # atno 8544 bound_to 3237
    7.9777  -21.2036  -44.4625 LP  0  0  0  0  0  0  0  0  0  0  0  0  # atno 8545 bound_to 3237
   13.4623  -19.3298  -46.7537 LP  0  0  0  0  0  0  0  0  0  0  0  0  # atno 8546 bound_to 3245
   14.0408  -17.8289  -46.4720 LP  0  0  0  0  0  0  0  0  0  0  0  0  # atno 8547 bound_to 3245
    7.1489  -19.4870  -44.1998 LP  0  0  0  0  0  0  0  0  0  0  0  0  # atno 8548 bound_to 3276
    7.3830  -18.0181  -47.4842 LP  0  0  0  0  0  0  0  0  0  0  0  0  # atno 8549 bound_to 3279
    5.6881  -18.1039  -47.8309 LP  0  0  0  0  0  0  0  0  0  0  0  0  # atno 8550 bound_to 3279
    7.7102  -20.9991  -47.6647 LP  0  0  0  0  0  0  0  0  0  0  0  0  # atno 8551 bound_to 3312
    3.7599  -19.9604  -49.8920 LP  0  0  0  0  0  0  0  0  0  0  0  0  # atno 8552 bound_to 3315
    4.7426  -20.3015  -48.5071 LP  0  0  0  0  0  0  0  0  0  0  0  0  # atno 8553 bound_to 3315
    5.4473  -22.1437  -50.6445 LP  0  0  0  0  0  0  0  0  0  0  0  0  # atno 8554 bound_to 3317
    6.1865  -23.0571  -49.5105 LP  0  0  0  0  0  0  0  0  0  0  0  0  # atno 8555 bound_to 3317
    6.2642  -19.9492  -51.7954 LP  0  0  0  0  0  0  0  0  0  0  0  0  # atno 8556 bound_to 3337
    2.9505  -21.8647  -50.9282 LP  0  0  0  0  0  0  0  0  0  0  0  0  # atno 8557 bound_to 3386
    2.9161  -20.7359  -49.2598 LP  0  0  0  0  0  0  0  0  0  0  0  0  # atno 8562 bound_to 3407
    4.9078  -17.5238  -45.6206 LP  0  0  0  0  0  0  0  0  0  0  0  0  # atno 8563 bound_to 6290
    5.1277  -17.2602  -43.9229 LP  0  0  0  0  0  0  0  0  0  0  0  0  # atno 8564 bound_to 6290
    3.5450  -21.8064  -38.5136 LP  0  0  0  0  0  0  0  0  0  0  0  0  # atno 8567 bound_to 3062
    7.1373  -18.3413  -39.1133 LP  0  0  0  0  0  0  0  0  0  0  0  0  # atno 8568 bound_to 3065
    7.8350  -19.9225  -38.9985 LP  0  0  0  0  0  0  0  0  0  0  0  0  # atno 8569 bound_to 3065
   11.6224  -22.9702  -37.0264 LP  0  0  0  0  0  0  0  0  0  0  0  0  # atno 8570 bound_to 3132
   11.5629  -22.1746  -38.5637 LP  0  0  0  0  0  0  0  0  0  0  0  0  # atno 8571 bound_to 3132
    7.4022  -16.6762  -41.3172 LP  0  0  0  0  0  0  0  0  0  0  0  0  # atno 8572 bound_to 3204
    8.4650  -16.3257  -39.9952 LP  0  0  0  0  0  0  0  0  0  0  0  0  # atno 8573 bound_to 3204
    2.7934  -23.8881  -41.3100 LP  0  0  0  0  0  0  0  0  0  0  0  0  # atno 8574 bound_to 3287
    1.3668  -23.8110  -42.1010 LP  0  0  0  0  0  0  0  0  0  0  0  0  # atno 8575 bound_to 3287
    4.1814  -20.8380  -51.7196 LP  0  0  0  0  0  0  0  0  0  0  0  0  # atno 8576 bound_to 3363
    0.7141  -23.3751  -47.5210 LP  0  0  0  0  0  0  0  0  0  0  0  0  # atno 8577 bound_to 3389
   -0.1840  -22.1538  -48.3587 LP  0  0  0  0  0  0  0  0  0  0  0  0  # atno 8578 bound_to 3389
    1.5744  -20.1043  -52.5953 LP  0  0  0  0  0  0  0  0  0  0  0  0  # atno 8579 bound_to 3340
    1.9938  -19.1563  -51.2077 LP  0  0  0  0  0  0  0  0  0  0  0  0  # atno 8580 bound_to 3340
    0.9785  -23.8574  -52.2739 LP  0  0  0  0  0  0  0  0  0  0  0  0  # atno 8581 bound_to 3366
    0.5817  -22.5452  -51.2153 LP  0  0  0  0  0  0  0  0  0  0  0  0  # atno 8582 bound_to 3366

> <Gold.Score>
     Fitness  S(hb_ext) S(vdw_ext)  S(hb_int)    S(int)      intcor
     23.96       0.00      17.85       0.00      -0.59      -0.78

> <Gold.Goldscore.Fitness>
23.9578

> <Gold.Goldscore.Internal.Vdw>
-0.6435

> <Gold.Goldscore.Internal.Torsion>
-0.7211

> <Gold.Goldscore.External.Vdw>
17.8513

> <Gold.Goldscore.Internal.HBond>
0.0000

> <Gold.Goldscore.External.HBond>
0.0000

> <Gold.Goldscore.Internal.Correction>
-0.7769

> <Gold.Goldscore.Internal.Vdw.Weighted>
-0.6435

> <Gold.Goldscore.Internal.Torsion.Weighted>
-0.7211

> <Gold.Goldscore.External.Vdw.Weighted>
24.5455

> <Gold.Goldscore.Internal.HBond.Weighted>
0.0000

> <Gold.Goldscore.External.HBond.Weighted>
0.0000

> <Gold.Goldscore.Internal.Correction.Weighted>
-0.7769

> <Gold.Rescore>
     Score     S(PLP)   S(hbond)     S(cho)   S(metal)  DE(clash)   DE(tors)     intcor
     14.44     -16.92       0.00       0.00       0.00       0.18       1.15       ----

> <Gold.PLP.Fitness>
14.4385

> <Gold.PLP.PLP>
-16.9200

> <Gold.PLP.part.hbond>
0.0000

> <Gold.PLP.part.metal>
0.0000

> <Gold.PLP.part.buried>
0.5743

> <Gold.PLP.part.nonpolar>
-17.0761

> <Gold.PLP.part.repulsive>
0.1786

> <Gold.PLP.ligand.clash>
0.1799

> <Gold.PLP.ligand.torsion>
1.1507

> <Gold.PLP.Chemscore.Hbond>
0.0000

> <Gold.PLP.Chemscore.CHOScore>
0.0000

> <Gold.PLP.Chemscore.Metal>
0.0000

> <Gold.PLP.Chemscore.Internal.Correction>
   9.000000E+99

