#       Name:                CT1002167954
#       Creating user name   hitesit
#       Creation time:       Sun Apr 16 20:23:34 2023


#       File generated by GOLD software.
#

@<TRIPOS>MOLECULE
CT1002167954|ligand_prepared|mol2|1|dock3
    29    30     1
SMALL
NO_CHARGES


@<TRIPOS>ATOM
      1 C1         191.7145 -13.5341  45.8425 C.3            1 RES1               0.0000
      2 C2         191.4958 -13.1149  44.3745 C.ar           1 RES1               0.0000
      3 C3         192.9035 -12.7218  46.3475 C.2            1 RES1               0.0000
      4 C4         190.4068 -13.2405  46.5694 C.2            1 RES1               0.0000
      5 C5         192.0342 -15.0364  46.0224 C.3            1 RES1               0.0000
      6 C6         192.2906 -12.1320  43.7923 C.ar           1 RES1               0.0000
      7 C7         190.5068 -13.7029  43.5904 C.ar           1 RES1               0.0000
      8 N8         192.6473 -11.6938  47.2062 N.am           1 RES1               0.0000
      9 O9         194.0442 -12.9547  45.9670 O.2            1 RES1               0.0000
     10 N10        190.4138 -12.2699  47.5367 N.am           1 RES1               0.0000
     11 O11        189.3666 -13.8292  46.3016 O.2            1 RES1               0.0000
     12 C12        192.0673 -15.4867  47.4744 C.3            1 RES1               0.0000
     13 C13        192.1055 -11.7527  42.4731 C.ar           1 RES1               0.0000
     14 C14        190.3232 -13.3219  42.2714 C.ar           1 RES1               0.0000
     15 C15        191.4676 -11.4619  47.8667 C.2            1 RES1               0.0000
     16 C16        191.1221 -12.3476  41.7117 C.ar           1 RES1               0.0000
     17 O17        191.3810 -10.5741  48.7102 O.2            1 RES1               0.0000
     18 H18        191.2785 -15.6247  45.4874 H              1 RES1               0.0000
     19 H19        193.0088 -15.2473  45.5651 H              1 RES1               0.0000
     20 H20        193.0679 -11.6510  44.3766 H              1 RES1               0.0000
     21 H21        189.8658 -14.4708  44.0100 H              1 RES1               0.0000
     22 H22        193.4027 -11.0365  47.3726 H              1 RES1               0.0000
     23 H23        189.5537 -12.1376  48.0593 H              1 RES1               0.0000
     24 H24        192.2957 -16.5482  47.5439 H              1 RES1               0.0000
     25 H25        192.8256 -14.9397  48.0307 H              1 RES1               0.0000
     26 H26        191.1056 -15.3149  47.9534 H              1 RES1               0.0000
     27 H27        192.7359 -10.9844  42.0377 H              1 RES1               0.0000
     28 H28        189.5476 -13.7923  41.6761 H              1 RES1               0.0000
     29 H29        190.9775 -12.0505  40.6783 H              1 RES1               0.0000
@<TRIPOS>BOND
    1    1    2 1     
    2    1    3 1     
    3    1    4 1     
    4    1    5 1     
    5    2    6 ar    
    6    2    7 ar    
    7    3    8 1     
    8    3    9 2     
    9    4   10 1     
   10    4   11 2     
   11    5   12 1     
   12    5   18 1     
   13    5   19 1     
   14    6   13 ar    
   15    6   20 1     
   16    7   14 ar    
   17    7   21 1     
   18    8   15 1     
   19    8   22 1     
   20   10   15 1     
   21   10   23 1     
   22   12   24 1     
   23   12   25 1     
   24   12   26 1     
   25   13   16 ar    
   26   13   27 1     
   27   14   16 ar    
   28   14   28 1     
   29   15   17 2     
   30   16   29 1     
@<TRIPOS>SUBSTRUCTURE
      1 RES1           1
@<TRIPOS>SET
DONOR_HYDROGENS      STATIC     ATOMS    <user>   **** ""
2 22 23
ATOM$RED        STATIC     ATOMS    COLORGROUP SYSTEM
2 22 23
@<TRIPOS>COMMENT
> <Gold.Version>
2022.3.0

> <Gold.Id.Protein>
unknown|4v3u_clean|pdb

> <Gold.Protein.RotatedTorsions>
[ 6601 6555 6556 6557 ] final   22.28 input  119.23 | X-H torsion
[ 8042 8007 8008 8009 ] final -118.17 input   55.11 | X-H torsion
[ 8121 8084 8085 8086 ] final   89.04 input   97.66 | X-H torsion
[ 8180 8150 8151 8152 ] final  100.70 input   74.82 | X-H torsion
[ 8257 8218 8219 8220 ] final  -52.65 input   76.36 | X-H torsion
[ 9569 9518 9517 9515 ] final   47.89 input   59.97 | X-H torsion
[ 6689 6635 6636 6637 ] final -178.48 input  125.14 | X-H torsion
[ 8319 8295 8296 8297 ] final -141.51 input   97.98 | X-H torsion
[ 10213 10167 10168 10169 ] final  -98.80 input   38.66 | X-H torsion
[ 7960 7920 7921 7922 ] final -165.86 input   85.79 | X-H torsion
[ 6837 6784 6785 6786 ] final  -36.68 input  126.65 | X-H torsion
[ 7896 7873 7874 7875 ] final  -38.04 input  103.19 | X-H torsion
[ 7900 7878 7877 7874 ] final   73.64 input   60.02 | X-H torsion
[ 27201 6558 6557 6556 ] final  -12.09 input    0.00 | X-H torsion
[ 27203 7876 7875 7874 ] final  -27.54 input   -0.00 | X-H torsion
[ 27206 8010 8009 8008 ] final  -19.07 input    0.00 | X-H torsion
[ 27209 8087 8086 8085 ] final   54.40 input    0.00 | X-H torsion
[ 27212 8153 8152 8151 ] final   77.86 input   -0.00 | X-H torsion
[ 27219 10084 10083 10082 ] final  -75.54 input    0.00 | X-H torsion
[ 27222 10170 10169 10168 ] final -134.37 input    0.00 | X-H torsion
[ 27225 7923 7922 7921 ] final  127.43 input   -0.00 | X-H torsion
[ 27227 6365 6364 6363 ] final   -8.51 input    0.00 | X-H torsion
[ 27230 7788 7787 7786 ] final  150.91 input    0.00 | X-H torsion
[ 27232 7715 7714 7713 ] final  109.75 input    0.00 | X-H torsion

> <Gold.Protein.ActiveResidues>
 THR404  ILE407  TYR408  ALA410  LYS411  TRP414  GLN425  TRP426  SER427  LYS428 
 LEU429  GLN430  VAL431  PHE432  ASP433  TYR453  SER462  ALA463  ILE464 

> <Gold.Protein.RotatedAtoms>
  196.9201   -9.0294   37.8369 H   0  0  0  0  0  0  0  0  0  0  0  0  # atno 6601 bound_to 6555
  198.0887  -10.0912   40.0411 H   0  0  0  0  0  0  0  0  0  0  0  0  # atno 6689 bound_to 6635
  196.8340   -4.3171   42.3687 H   0  0  0  0  0  0  0  0  0  0  0  0  # atno 6837 bound_to 6784
  196.5022   -6.5240   50.0254 H   0  0  0  0  0  0  0  0  0  0  0  0  # atno 7896 bound_to 7873
  197.6702   -9.8762   51.6332 H   0  0  0  0  0  0  0  0  0  0  0  0  # atno 7900 bound_to 7878
  195.7611   -9.2774   50.5991 H   0  0  0  0  0  0  0  0  0  0  0  0  # atno 7960 bound_to 7920
  192.6380   -8.3743   49.1678 H   0  0  0  0  0  0  0  0  0  0  0  0  # atno 8042 bound_to 8007
  189.5858   -7.8884   46.7651 H   0  0  0  0  0  0  0  0  0  0  0  0  # atno 8121 bound_to 8084
  190.5442  -10.0152   43.1006 H   0  0  0  0  0  0  0  0  0  0  0  0  # atno 8180 bound_to 8150
  189.0493   -8.5544   39.9379 H   0  0  0  0  0  0  0  0  0  0  0  0  # atno 8257 bound_to 8218
  188.3719   -8.8601   37.6496 H   0  0  0  0  0  0  0  0  0  0  0  0  # atno 8319 bound_to 8295
  186.1001  -12.2838   47.3473 H   0  0  0  0  0  0  0  0  0  0  0  0  # atno 9569 bound_to 9518
  187.2825   -4.6114   44.0452 H   0  0  0  0  0  0  0  0  0  0  0  0  # atno 10213 bound_to 10167
  195.1876   -9.1510   37.6224 LP  0  0  0  0  0  0  0  0  0  0  0  0  # atno 27200 bound_to 6555
  195.9963   -7.4272   41.4430 LP  0  0  0  0  0  0  0  0  0  0  0  0  # atno 27201 bound_to 6558
  197.6587   -7.6072   41.8946 LP  0  0  0  0  0  0  0  0  0  0  0  0  # atno 27202 bound_to 6558
  196.1553  -10.1087   47.7470 LP  0  0  0  0  0  0  0  0  0  0  0  0  # atno 27203 bound_to 7876
  195.0173  -10.7696   48.8731 LP  0  0  0  0  0  0  0  0  0  0  0  0  # atno 27204 bound_to 7876
  193.6391   -8.9371   47.8481 LP  0  0  0  0  0  0  0  0  0  0  0  0  # atno 27205 bound_to 8007
  193.0868   -9.2080   45.5103 LP  0  0  0  0  0  0  0  0  0  0  0  0  # atno 27206 bound_to 8010
  191.6985  -10.2038   45.2255 LP  0  0  0  0  0  0  0  0  0  0  0  0  # atno 27207 bound_to 8010
  191.0741   -8.7029   46.3451 LP  0  0  0  0  0  0  0  0  0  0  0  0  # atno 27208 bound_to 8084
  189.2192   -6.7735   44.3920 LP  0  0  0  0  0  0  0  0  0  0  0  0  # atno 27209 bound_to 8087
  188.1829   -7.3145   43.1139 LP  0  0  0  0  0  0  0  0  0  0  0  0  # atno 27210 bound_to 8087
  189.1892   -8.9872   43.5022 LP  0  0  0  0  0  0  0  0  0  0  0  0  # atno 27211 bound_to 8150
  188.5039  -11.0554   40.9422 LP  0  0  0  0  0  0  0  0  0  0  0  0  # atno 27212 bound_to 8153
  189.2721  -10.7261   39.4252 LP  0  0  0  0  0  0  0  0  0  0  0  0  # atno 27213 bound_to 8153
  187.7794   -7.8395   40.9003 LP  0  0  0  0  0  0  0  0  0  0  0  0  # atno 27214 bound_to 8218
  185.6313  -11.7748   48.8203 LP  0  0  0  0  0  0  0  0  0  0  0  0  # atno 27215 bound_to 9518
  186.5566  -10.8145   47.8779 LP  0  0  0  0  0  0  0  0  0  0  0  0  # atno 27216 bound_to 9518
  197.5880   -8.4778   39.5899 LP  0  0  0  0  0  0  0  0  0  0  0  0  # atno 27217 bound_to 6635
  187.0137   -9.7562   37.0014 LP  0  0  0  0  0  0  0  0  0  0  0  0  # atno 27218 bound_to 8295
  188.7770   -7.4034   47.9285 LP  0  0  0  0  0  0  0  0  0  0  0  0  # atno 27219 bound_to 10084
  187.0591   -7.4804   47.7217 LP  0  0  0  0  0  0  0  0  0  0  0  0  # atno 27220 bound_to 10084
  188.7260   -5.4991   43.6109 LP  0  0  0  0  0  0  0  0  0  0  0  0  # atno 27221 bound_to 10167
  188.2273   -6.0570   39.9698 LP  0  0  0  0  0  0  0  0  0  0  0  0  # atno 27222 bound_to 10170
  187.7596   -6.3922   41.6035 LP  0  0  0  0  0  0  0  0  0  0  0  0  # atno 27223 bound_to 10170
  195.1978   -7.7626   49.9258 LP  0  0  0  0  0  0  0  0  0  0  0  0  # atno 27224 bound_to 7920
  191.8593   -6.5839   49.7743 LP  0  0  0  0  0  0  0  0  0  0  0  0  # atno 27225 bound_to 7923
  191.2399   -7.9085   50.7026 LP  0  0  0  0  0  0  0  0  0  0  0  0  # atno 27226 bound_to 7923
  198.3548  -11.7752   38.9494 LP  0  0  0  0  0  0  0  0  0  0  0  0  # atno 27227 bound_to 6365
  199.2920  -10.5091   38.2292 LP  0  0  0  0  0  0  0  0  0  0  0  0  # atno 27228 bound_to 6365
  196.5027   -6.0348   42.3701 LP  0  0  0  0  0  0  0  0  0  0  0  0  # atno 27229 bound_to 6784
  196.4623   -6.8794   47.7413 LP  0  0  0  0  0  0  0  0  0  0  0  0  # atno 27230 bound_to 7788
  195.4299   -5.5617   48.1860 LP  0  0  0  0  0  0  0  0  0  0  0  0  # atno 27231 bound_to 7788
  194.2909   -5.7815   50.7430 LP  0  0  0  0  0  0  0  0  0  0  0  0  # atno 27232 bound_to 7715
  194.8905   -7.1416   51.6322 LP  0  0  0  0  0  0  0  0  0  0  0  0  # atno 27233 bound_to 7715
  198.1020   -6.8967   50.6076 LP  0  0  0  0  0  0  0  0  0  0  0  0  # atno 27234 bound_to 7873
  198.4037   -8.4238   51.6012 LP  0  0  0  0  0  0  0  0  0  0  0  0  # atno 27235 bound_to 7878
  199.2940   -9.7923   51.5662 LP  0  0  0  0  0  0  0  0  0  0  0  0  # atno 27236 bound_to 7878

> <Gold.Score>
     Fitness  S(hb_ext) S(vdw_ext)  S(hb_int)    S(int)      intcor
     31.34       6.40      20.97       0.00      -3.90      -0.76

> <Gold.Goldscore.Fitness>
31.3380

> <Gold.Goldscore.Internal.Vdw>
-4.2025

> <Gold.Goldscore.Internal.Torsion>
-0.4578

> <Gold.Goldscore.External.Vdw>
20.9724

> <Gold.Goldscore.Internal.HBond>
0.0000

> <Gold.Goldscore.External.HBond>
6.4028

> <Gold.Goldscore.Internal.Correction>
-0.7585

> <Gold.Goldscore.Hbonds>
donor molecule, donor type, donor heavy atom, donor atom, acceptor molecule, acceptor atom, score
      P1  H  6792  6848       L1     9  1.00
      L1  H     8    22       P1  7876  0.21

> <Gold.Goldscore.Internal.Vdw.Weighted>
-4.2025

> <Gold.Goldscore.Internal.Torsion.Weighted>
-0.4578

> <Gold.Goldscore.External.Vdw.Weighted>
28.8370

> <Gold.Goldscore.Internal.HBond.Weighted>
0.0000

> <Gold.Goldscore.External.HBond.Weighted>
6.4028

> <Gold.Goldscore.Internal.Correction.Weighted>
-0.7585

> <Gold.Rescore>
     Score     S(PLP)   S(hbond)     S(cho)   S(metal)  DE(clash)   DE(tors)     intcor
     26.18     -25.26       1.00       0.00       0.00       2.06       0.01       ----

> <Gold.PLP.Fitness>
26.1775

> <Gold.PLP.PLP>
-25.2582

> <Gold.PLP.part.hbond>
-2.6647

> <Gold.PLP.part.metal>
0.0000

> <Gold.PLP.part.buried>
-3.8271

> <Gold.PLP.part.nonpolar>
-19.6984

> <Gold.PLP.part.repulsive>
0.4505

> <Gold.PLP.ligand.clash>
2.0641

> <Gold.PLP.ligand.torsion>
0.0083

> <Gold.PLP.Chemscore.Hbond>
1.0000

> <Gold.PLP.Chemscore.CHOScore>
0.0000

> <Gold.PLP.Chemscore.Metal>
0.0000

> <Gold.Chemscore.Hbonds>
donor molecule, donor type, donor heavy atom, donor atom, acceptor molecule, acceptor atom, score
      P1  H  6792  6848       L1     9  1.00

> <Gold.PLP.Chemscore.Internal.Correction>
   9.000000E+99

