#       Name:                CT1002167954
#       Creating user name   hitesit
#       Creation time:       Sun Apr 16 20:23:37 2023


#       File generated by GOLD software.
#

@<TRIPOS>MOLECULE
CT1002167954|ligand_prepared|mol2|1|dock10
    29    30     1
SMALL
NO_CHARGES


@<TRIPOS>ATOM
      1 C1         191.6426 -14.2243  47.1555 C.3            1 RES1               0.0000
      2 C2         192.7497 -14.2424  46.0819 C.ar           1 RES1               0.0000
      3 C3         192.0639 -13.1829  48.1880 C.2            1 RES1               0.0000
      4 C4         190.3465 -13.8884  46.4261 C.2            1 RES1               0.0000
      5 C5         191.4482 -15.5791  47.8754 C.3            1 RES1               0.0000
      6 C6         192.9954 -13.1188  45.2983 C.ar           1 RES1               0.0000
      7 C7         193.5341 -15.3723  45.8657 C.ar           1 RES1               0.0000
      8 N8         191.3935 -11.9953  48.1973 N.am           1 RES1               0.0000
      9 O9         192.9963 -13.3853  48.9561 O.2            1 RES1               0.0000
     10 N10        189.7343 -12.6982  46.7199 N.am           1 RES1               0.0000
     11 O11        189.8587 -14.6360  45.5874 O.2            1 RES1               0.0000
     12 C12        190.3397 -15.5668  48.9163 C.3            1 RES1               0.0000
     13 C13        193.9910 -13.1236  44.3355 C.ar           1 RES1               0.0000
     14 C14        194.5291 -15.3750  44.9021 C.ar           1 RES1               0.0000
     15 C15        190.2153 -11.7225  47.5500 C.2            1 RES1               0.0000
     16 C16        194.7587 -14.2513  44.1370 C.ar           1 RES1               0.0000
     17 O17        189.6339 -10.6549  47.7216 O.2            1 RES1               0.0000
     18 H18        191.2207 -16.3476  47.1264 H              1 RES1               0.0000
     19 H19        192.3896 -15.8568  48.3655 H              1 RES1               0.0000
     20 H20        192.3998 -12.2230  45.4385 H              1 RES1               0.0000
     21 H21        193.3705 -16.2681  46.4550 H              1 RES1               0.0000
     22 H22        191.8065 -11.2401  48.7354 H              1 RES1               0.0000
     23 H23        188.8368 -12.5233  46.2792 H              1 RES1               0.0000
     24 H24        190.2456 -16.5412  49.3910 H              1 RES1               0.0000
     25 H25        190.5460 -14.8310  49.6908 H              1 RES1               0.0000
     26 H26        189.3841 -15.3189  48.4590 H              1 RES1               0.0000
     27 H27        194.1669 -12.2371  43.7351 H              1 RES1               0.0000
     28 H28        195.1304 -16.2650  44.7489 H              1 RES1               0.0000
     29 H29        195.5389 -14.2546  43.3830 H              1 RES1               0.0000
@<TRIPOS>BOND
    1    1    2 1     
    2    1    3 1     
    3    1    4 1     
    4    1    5 1     
    5    2    6 ar    
    6    2    7 ar    
    7    3    8 1     
    8    3    9 2     
    9    4   10 1     
   10    4   11 2     
   11    5   12 1     
   12    5   18 1     
   13    5   19 1     
   14    6   13 ar    
   15    6   20 1     
   16    7   14 ar    
   17    7   21 1     
   18    8   15 1     
   19    8   22 1     
   20   10   15 1     
   21   10   23 1     
   22   12   24 1     
   23   12   25 1     
   24   12   26 1     
   25   13   16 ar    
   26   13   27 1     
   27   14   16 ar    
   28   14   28 1     
   29   15   17 2     
   30   16   29 1     
@<TRIPOS>SUBSTRUCTURE
      1 RES1           1
@<TRIPOS>SET
DONOR_HYDROGENS      STATIC     ATOMS    <user>   **** ""
2 22 23
ATOM$RED        STATIC     ATOMS    COLORGROUP SYSTEM
2 22 23
@<TRIPOS>COMMENT
> <Gold.Version>
2022.3.0

> <Gold.Id.Protein>
unknown|4v3u_clean|pdb

> <Gold.Protein.RotatedTorsions>
[ 6601 6555 6556 6557 ] final  -98.90 input  119.23 | X-H torsion
[ 8042 8007 8008 8009 ] final -168.84 input   55.11 | X-H torsion
[ 8121 8084 8085 8086 ] final -164.02 input   97.66 | X-H torsion
[ 8180 8150 8151 8152 ] final   49.30 input   74.82 | X-H torsion
[ 8257 8218 8219 8220 ] final  109.06 input   76.36 | X-H torsion
[ 9569 9518 9517 9515 ] final   76.00 input   59.97 | X-H torsion
[ 6689 6635 6636 6637 ] final -150.02 input  125.14 | X-H torsion
[ 8319 8295 8296 8297 ] final -137.64 input   97.98 | X-H torsion
[ 10213 10167 10168 10169 ] final  -67.65 input   38.66 | X-H torsion
[ 7960 7920 7921 7922 ] final -150.74 input   85.79 | X-H torsion
[ 6837 6784 6785 6786 ] final   47.06 input  126.65 | X-H torsion
[ 7896 7873 7874 7875 ] final  140.40 input  103.19 | X-H torsion
[ 7900 7878 7877 7874 ] final   62.40 input   60.02 | X-H torsion
[ 27201 6558 6557 6556 ] final -139.61 input    0.00 | X-H torsion
[ 27203 7876 7875 7874 ] final   -1.03 input   -0.00 | X-H torsion
[ 27206 8010 8009 8008 ] final   67.79 input    0.00 | X-H torsion
[ 27209 8087 8086 8085 ] final  124.76 input    0.00 | X-H torsion
[ 27212 8153 8152 8151 ] final  142.66 input   -0.00 | X-H torsion
[ 27219 10084 10083 10082 ] final   26.45 input    0.00 | X-H torsion
[ 27222 10170 10169 10168 ] final  170.85 input    0.00 | X-H torsion
[ 27225 7923 7922 7921 ] final  164.90 input   -0.00 | X-H torsion
[ 27227 6365 6364 6363 ] final  -47.58 input    0.00 | X-H torsion
[ 27230 7788 7787 7786 ] final  -86.05 input    0.00 | X-H torsion
[ 27232 7715 7714 7713 ] final   73.03 input    0.00 | X-H torsion

> <Gold.Protein.ActiveResidues>
 THR404  ILE407  TYR408  ALA410  LYS411  TRP414  GLN425  TRP426  SER427  LYS428 
 LEU429  GLN430  VAL431  PHE432  ASP433  TYR453  SER462  ALA463  ILE464 

> <Gold.Protein.RotatedAtoms>
  195.5234   -8.3688   37.7433 H   0  0  0  0  0  0  0  0  0  0  0  0  # atno 6601 bound_to 6555
  197.8602   -9.9501   40.3842 H   0  0  0  0  0  0  0  0  0  0  0  0  # atno 6689 bound_to 6635
  197.5053   -5.2523   42.0878 H   0  0  0  0  0  0  0  0  0  0  0  0  # atno 6837 bound_to 6784
  198.0977   -6.8898   50.6386 H   0  0  0  0  0  0  0  0  0  0  0  0  # atno 7896 bound_to 7873
  197.5857   -9.7135   51.6365 H   0  0  0  0  0  0  0  0  0  0  0  0  # atno 7900 bound_to 7878
  195.7744   -9.3373   50.3731 H   0  0  0  0  0  0  0  0  0  0  0  0  # atno 7960 bound_to 7920
  193.2369   -7.9362   49.0044 H   0  0  0  0  0  0  0  0  0  0  0  0  # atno 8042 bound_to 8007
  190.4012   -9.0099   47.0772 H   0  0  0  0  0  0  0  0  0  0  0  0  # atno 8121 bound_to 8084
  189.8524  -10.2902   42.9169 H   0  0  0  0  0  0  0  0  0  0  0  0  # atno 8180 bound_to 8150
  187.8316   -7.6108   40.7507 H   0  0  0  0  0  0  0  0  0  0  0  0  # atno 8257 bound_to 8218
  188.3375   -8.8107   37.6477 H   0  0  0  0  0  0  0  0  0  0  0  0  # atno 8319 bound_to 8295
  186.3495  -11.9467   47.1712 H   0  0  0  0  0  0  0  0  0  0  0  0  # atno 9569 bound_to 9518
  187.1374   -4.9535   43.7464 H   0  0  0  0  0  0  0  0  0  0  0  0  # atno 10213 bound_to 10167
  196.5417   -9.7915   37.7132 LP  0  0  0  0  0  0  0  0  0  0  0  0  # atno 27200 bound_to 6555
  197.5057   -7.0656   41.3752 LP  0  0  0  0  0  0  0  0  0  0  0  0  # atno 27201 bound_to 6558
  196.1493   -7.9687   41.9623 LP  0  0  0  0  0  0  0  0  0  0  0  0  # atno 27202 bound_to 6558
  196.3780  -10.3500   47.9704 LP  0  0  0  0  0  0  0  0  0  0  0  0  # atno 27203 bound_to 7876
  194.7947  -10.5283   48.6497 LP  0  0  0  0  0  0  0  0  0  0  0  0  # atno 27204 bound_to 7876
  193.0580   -9.3622   48.0067 LP  0  0  0  0  0  0  0  0  0  0  0  0  # atno 27205 bound_to 8007
  192.6041  -10.1261   46.0950 LP  0  0  0  0  0  0  0  0  0  0  0  0  # atno 27206 bound_to 8010
  192.1812   -9.2856   44.6408 LP  0  0  0  0  0  0  0  0  0  0  0  0  # atno 27207 bound_to 8010
  190.2781   -7.6081   46.0405 LP  0  0  0  0  0  0  0  0  0  0  0  0  # atno 27208 bound_to 8084
  189.4488   -6.7601   43.4211 LP  0  0  0  0  0  0  0  0  0  0  0  0  # atno 27209 bound_to 8087
  187.9532   -7.3279   44.0848 LP  0  0  0  0  0  0  0  0  0  0  0  0  # atno 27210 bound_to 8087
  189.8647   -8.7187   43.6816 LP  0  0  0  0  0  0  0  0  0  0  0  0  # atno 27211 bound_to 8150
  188.0225  -10.8615   40.1727 LP  0  0  0  0  0  0  0  0  0  0  0  0  # atno 27212 bound_to 8153
  189.7534  -10.9200   40.1948 LP  0  0  0  0  0  0  0  0  0  0  0  0  # atno 27213 bound_to 8153
  188.9725   -8.7640   40.1038 LP  0  0  0  0  0  0  0  0  0  0  0  0  # atno 27214 bound_to 8218
  185.5625  -12.1584   48.5799 LP  0  0  0  0  0  0  0  0  0  0  0  0  # atno 27215 bound_to 9518
  186.3744  -10.7704   48.2956 LP  0  0  0  0  0  0  0  0  0  0  0  0  # atno 27216 bound_to 9518
  197.8104   -8.6152   39.2559 LP  0  0  0  0  0  0  0  0  0  0  0  0  # atno 27217 bound_to 6635
  187.0469   -9.8040   37.0032 LP  0  0  0  0  0  0  0  0  0  0  0  0  # atno 27218 bound_to 8295
  187.6435   -7.5514   48.6391 LP  0  0  0  0  0  0  0  0  0  0  0  0  # atno 27219 bound_to 10084
  188.1926   -7.3324   47.0111 LP  0  0  0  0  0  0  0  0  0  0  0  0  # atno 27220 bound_to 10084
  188.8668   -5.1672   43.9007 LP  0  0  0  0  0  0  0  0  0  0  0  0  # atno 27221 bound_to 10167
  187.4543   -6.1899   40.1098 LP  0  0  0  0  0  0  0  0  0  0  0  0  # atno 27222 bound_to 10170
  188.5326   -6.2593   41.4635 LP  0  0  0  0  0  0  0  0  0  0  0  0  # atno 27223 bound_to 10170
  195.1849   -7.7047   50.1442 LP  0  0  0  0  0  0  0  0  0  0  0  0  # atno 27224 bound_to 7920
  191.4499   -6.8275   49.4870 LP  0  0  0  0  0  0  0  0  0  0  0  0  # atno 27225 bound_to 7923
  191.6493   -7.6650   50.9900 LP  0  0  0  0  0  0  0  0  0  0  0  0  # atno 27226 bound_to 7923
  198.0054  -11.3408   38.7926 LP  0  0  0  0  0  0  0  0  0  0  0  0  # atno 27227 bound_to 6365
  199.6415  -10.9435   38.3861 LP  0  0  0  0  0  0  0  0  0  0  0  0  # atno 27228 bound_to 6365
  195.8510   -5.1269   42.6428 LP  0  0  0  0  0  0  0  0  0  0  0  0  # atno 27229 bound_to 6784
  195.1930   -6.3295   48.3771 LP  0  0  0  0  0  0  0  0  0  0  0  0  # atno 27230 bound_to 7788
  196.6992   -6.1116   47.5502 LP  0  0  0  0  0  0  0  0  0  0  0  0  # atno 27231 bound_to 7788
  193.9633   -5.8649   51.1711 LP  0  0  0  0  0  0  0  0  0  0  0  0  # atno 27232 bound_to 7715
  195.2182   -7.0582   51.2042 LP  0  0  0  0  0  0  0  0  0  0  0  0  # atno 27233 bound_to 7715
  196.5166   -6.5332   49.9983 LP  0  0  0  0  0  0  0  0  0  0  0  0  # atno 27234 bound_to 7873
  198.5880   -8.4321   51.5933 LP  0  0  0  0  0  0  0  0  0  0  0  0  # atno 27235 bound_to 7878
  199.1948   -9.9479   51.5707 LP  0  0  0  0  0  0  0  0  0  0  0  0  # atno 27236 bound_to 7878

> <Gold.Score>
     Fitness  S(hb_ext) S(vdw_ext)  S(hb_int)    S(int)      intcor
     17.93       6.14       8.60       0.00      -0.04      -0.76

> <Gold.Goldscore.Fitness>
17.9285

> <Gold.Goldscore.Internal.Vdw>
-0.4320

> <Gold.Goldscore.Internal.Torsion>
-0.3687

> <Gold.Goldscore.External.Vdw>
8.6028

> <Gold.Goldscore.Internal.HBond>
0.0000

> <Gold.Goldscore.External.HBond>
6.1417

> <Gold.Goldscore.Internal.Correction>
-0.7585

> <Gold.Goldscore.Hbonds>
donor molecule, donor type, donor heavy atom, donor atom, acceptor molecule, acceptor atom, score
      P1  H  8084  8121       L1    17  0.07
      L1  H    10    23       P1  8092  1.00

> <Gold.Goldscore.Internal.Vdw.Weighted>
-0.4320

> <Gold.Goldscore.Internal.Torsion.Weighted>
-0.3687

> <Gold.Goldscore.External.Vdw.Weighted>
11.8289

> <Gold.Goldscore.Internal.HBond.Weighted>
0.0000

> <Gold.Goldscore.External.HBond.Weighted>
6.1417

> <Gold.Goldscore.Internal.Correction.Weighted>
-0.7585

> <Gold.Rescore>
     Score     S(PLP)   S(hbond)     S(cho)   S(metal)  DE(clash)   DE(tors)     intcor
     23.98     -24.07       0.00       0.00       0.00       0.00       0.05       ----

> <Gold.PLP.Fitness>
23.9750

> <Gold.PLP.PLP>
-24.0747

> <Gold.PLP.part.hbond>
-2.8510

> <Gold.PLP.part.metal>
0.0000

> <Gold.PLP.part.buried>
-3.4462

> <Gold.PLP.part.nonpolar>
-18.9418

> <Gold.PLP.part.repulsive>
0.3710

> <Gold.PLP.ligand.clash>
0.0000

> <Gold.PLP.ligand.torsion>
0.0499

> <Gold.PLP.Chemscore.Hbond>
0.0000

> <Gold.PLP.Chemscore.CHOScore>
0.0000

> <Gold.PLP.Chemscore.Metal>
0.0000

> <Gold.Chemscore.Hbonds>
donor molecule, donor type, donor heavy atom, donor atom, acceptor molecule, acceptor atom, score
      L1  H    10    23       P1  8092  0.19
      P1  H  8084  8121       L1    17  0.43

> <Gold.PLP.Chemscore.Internal.Correction>
   9.000000E+99

