#       Name:                CT1002167954
#       Creating user name   hitesit
#       Creation time:       Sun Apr 16 20:23:35 2023


#       File generated by GOLD software.
#

@<TRIPOS>MOLECULE
CT1002167954|ligand_prepared|mol2|1|dock6
    29    30     1
SMALL
NO_CHARGES


@<TRIPOS>ATOM
      1 C1         192.3699 -13.8835  46.4641 C.3            1 RES1               0.0000
      2 C2         192.5528 -13.1411  47.8036 C.ar           1 RES1               0.0000
      3 C3         190.8777 -13.8374  46.1489 C.2            1 RES1               0.0000
      4 C4         193.2430 -13.1538  45.4492 C.2            1 RES1               0.0000
      5 C5         192.8181 -15.3631  46.5036 C.3            1 RES1               0.0000
      6 C6         193.6088 -13.4598  48.6520 C.ar           1 RES1               0.0000
      7 C7         191.6766 -12.1352  48.2025 C.ar           1 RES1               0.0000
      8 N8         190.4666 -12.9935  45.1596 N.am           1 RES1               0.0000
      9 O9         190.0693 -14.5020  46.7855 O.2            1 RES1               0.0000
     10 N10        192.6201 -12.5037  44.4163 N.am           1 RES1               0.0000
     11 O11        194.4637 -13.1220  45.5441 O.2            1 RES1               0.0000
     12 C12        192.4465 -16.1498  45.2566 C.3            1 RES1               0.0000
     13 C13        193.7845 -12.7950  49.8543 C.ar           1 RES1               0.0000
     14 C14        191.8540 -11.4717  49.4053 C.ar           1 RES1               0.0000
     15 C15        191.2700 -12.3646  44.2426 C.2            1 RES1               0.0000
     16 C16        192.9076 -11.8004  50.2315 C.ar           1 RES1               0.0000
     17 O17        190.7855 -11.7184  43.3181 O.2            1 RES1               0.0000
     18 H18        193.9070 -15.3989  46.6322 H              1 RES1               0.0000
     19 H19        192.3614 -15.8473  47.3756 H              1 RES1               0.0000
     20 H20        194.3076 -14.2414  48.3731 H              1 RES1               0.0000
     21 H21        190.8401 -11.8606  47.5689 H              1 RES1               0.0000
     22 H22        189.4698 -12.8133  45.0957 H              1 RES1               0.0000
     23 H23        193.2182 -12.0846  43.7113 H              1 RES1               0.0000
     24 H24        192.7839 -17.1811  45.3362 H              1 RES1               0.0000
     25 H25        191.3681 -16.1564  45.1117 H              1 RES1               0.0000
     26 H26        192.9045 -15.7107  44.3727 H              1 RES1               0.0000
     27 H27        194.6145 -13.0583  50.5016 H              1 RES1               0.0000
     28 H28        191.1611 -10.6900  49.6985 H              1 RES1               0.0000
     29 H29        193.0457 -11.2795  51.1733 H              1 RES1               0.0000
@<TRIPOS>BOND
    1    1    2 1     
    2    1    3 1     
    3    1    4 1     
    4    1    5 1     
    5    2    6 ar    
    6    2    7 ar    
    7    3    8 1     
    8    3    9 2     
    9    4   10 1     
   10    4   11 2     
   11    5   12 1     
   12    5   18 1     
   13    5   19 1     
   14    6   13 ar    
   15    6   20 1     
   16    7   14 ar    
   17    7   21 1     
   18    8   15 1     
   19    8   22 1     
   20   10   15 1     
   21   10   23 1     
   22   12   24 1     
   23   12   25 1     
   24   12   26 1     
   25   13   16 ar    
   26   13   27 1     
   27   14   16 ar    
   28   14   28 1     
   29   15   17 2     
   30   16   29 1     
@<TRIPOS>SUBSTRUCTURE
      1 RES1           1
@<TRIPOS>SET
DONOR_HYDROGENS      STATIC     ATOMS    <user>   **** ""
2 22 23
ATOM$RED        STATIC     ATOMS    COLORGROUP SYSTEM
2 22 23
@<TRIPOS>COMMENT
> <Gold.Version>
2022.3.0

> <Gold.Id.Protein>
unknown|4v3u_clean|pdb

> <Gold.Protein.RotatedTorsions>
[ 6601 6555 6556 6557 ] final -169.87 input  119.23 | X-H torsion
[ 8042 8007 8008 8009 ] final -170.92 input   55.11 | X-H torsion
[ 8121 8084 8085 8086 ] final  -14.18 input   97.66 | X-H torsion
[ 8180 8150 8151 8152 ] final   90.82 input   74.82 | X-H torsion
[ 8257 8218 8219 8220 ] final  151.09 input   76.36 | X-H torsion
[ 9569 9518 9517 9515 ] final   18.19 input   59.97 | X-H torsion
[ 6689 6635 6636 6637 ] final  163.28 input  125.14 | X-H torsion
[ 8319 8295 8296 8297 ] final  154.73 input   97.98 | X-H torsion
[ 10213 10167 10168 10169 ] final   68.51 input   38.66 | X-H torsion
[ 7960 7920 7921 7922 ] final   93.91 input   85.79 | X-H torsion
[ 6837 6784 6785 6786 ] final  -60.44 input  126.65 | X-H torsion
[ 7896 7873 7874 7875 ] final -132.85 input  103.19 | X-H torsion
[ 7900 7878 7877 7874 ] final  136.03 input   60.02 | X-H torsion
[ 27201 6558 6557 6556 ] final   47.83 input    0.00 | X-H torsion
[ 27203 7876 7875 7874 ] final  -24.00 input   -0.00 | X-H torsion
[ 27206 8010 8009 8008 ] final   14.75 input    0.00 | X-H torsion
[ 27209 8087 8086 8085 ] final    6.59 input    0.00 | X-H torsion
[ 27212 8153 8152 8151 ] final -127.50 input   -0.00 | X-H torsion
[ 27219 10084 10083 10082 ] final -122.26 input    0.00 | X-H torsion
[ 27222 10170 10169 10168 ] final -105.56 input    0.00 | X-H torsion
[ 27225 7923 7922 7921 ] final -156.62 input   -0.00 | X-H torsion
[ 27227 6365 6364 6363 ] final   49.33 input    0.00 | X-H torsion
[ 27230 7788 7787 7786 ] final  105.58 input    0.00 | X-H torsion
[ 27232 7715 7714 7713 ] final  166.10 input    0.00 | X-H torsion

> <Gold.Protein.ActiveResidues>
 THR404  ILE407  TYR408  ALA410  LYS411  TRP414  GLN425  TRP426  SER427  LYS428 
 LEU429  GLN430  VAL431  PHE432  ASP433  TYR453  SER462  ALA463  ILE464 

> <Gold.Protein.RotatedAtoms>
  195.1935   -9.3388   37.6237 H   0  0  0  0  0  0  0  0  0  0  0  0  # atno 6601 bound_to 6555
  198.2064  -10.0776   39.7866 H   0  0  0  0  0  0  0  0  0  0  0  0  # atno 6689 bound_to 6635
  196.4881   -4.3269   42.4860 H   0  0  0  0  0  0  0  0  0  0  0  0  # atno 6837 bound_to 6784
  197.7167   -6.3385   49.6424 H   0  0  0  0  0  0  0  0  0  0  0  0  # atno 7896 bound_to 7873
  198.5431  -10.2974   51.5970 H   0  0  0  0  0  0  0  0  0  0  0  0  # atno 7900 bound_to 7878
  195.3226   -8.0486   51.0047 H   0  0  0  0  0  0  0  0  0  0  0  0  # atno 7960 bound_to 7920
  193.2633   -7.9285   48.9876 H   0  0  0  0  0  0  0  0  0  0  0  0  # atno 8042 bound_to 8007
  190.6670   -7.7997   45.9016 H   0  0  0  0  0  0  0  0  0  0  0  0  # atno 8121 bound_to 8084
  190.4387  -10.1109   43.0467 H   0  0  0  0  0  0  0  0  0  0  0  0  # atno 8180 bound_to 8150
  187.7763   -8.1711   41.0394 H   0  0  0  0  0  0  0  0  0  0  0  0  # atno 8257 bound_to 8218
  188.4240   -9.7834   37.4734 H   0  0  0  0  0  0  0  0  0  0  0  0  # atno 8319 bound_to 8295
  185.8365  -12.4701   47.7026 H   0  0  0  0  0  0  0  0  0  0  0  0  # atno 9569 bound_to 9518
  188.6257   -5.6091   43.4835 H   0  0  0  0  0  0  0  0  0  0  0  0  # atno 10213 bound_to 10167
  196.8615   -8.8511   37.8290 LP  0  0  0  0  0  0  0  0  0  0  0  0  # atno 27200 bound_to 6555
  196.2233   -8.0245   42.0259 LP  0  0  0  0  0  0  0  0  0  0  0  0  # atno 27201 bound_to 6558
  197.4317   -7.0099   41.3117 LP  0  0  0  0  0  0  0  0  0  0  0  0  # atno 27202 bound_to 6558
  196.1933  -10.1378   47.7707 LP  0  0  0  0  0  0  0  0  0  0  0  0  # atno 27203 bound_to 7876
  194.9794  -10.7404   48.8494 LP  0  0  0  0  0  0  0  0  0  0  0  0  # atno 27204 bound_to 7876
  193.0323   -9.3696   48.0230 LP  0  0  0  0  0  0  0  0  0  0  0  0  # atno 27205 bound_to 8007
  193.0660   -9.5417   45.8872 LP  0  0  0  0  0  0  0  0  0  0  0  0  # atno 27206 bound_to 8010
  191.7193   -9.8701   44.8487 LP  0  0  0  0  0  0  0  0  0  0  0  0  # atno 27207 bound_to 8010
  190.0187   -8.7895   47.1881 LP  0  0  0  0  0  0  0  0  0  0  0  0  # atno 27208 bound_to 8084
  188.5977   -7.0142   44.6123 LP  0  0  0  0  0  0  0  0  0  0  0  0  # atno 27209 bound_to 8087
  188.8044   -7.0738   42.8936 LP  0  0  0  0  0  0  0  0  0  0  0  0  # atno 27210 bound_to 8087
  189.2922   -8.8938   43.5548 LP  0  0  0  0  0  0  0  0  0  0  0  0  # atno 27211 bound_to 8150
  188.9029  -10.6950   39.3403 LP  0  0  0  0  0  0  0  0  0  0  0  0  # atno 27212 bound_to 8153
  188.8731  -11.0866   41.0272 LP  0  0  0  0  0  0  0  0  0  0  0  0  # atno 27213 bound_to 8153
  189.0267   -8.2151   39.8210 LP  0  0  0  0  0  0  0  0  0  0  0  0  # atno 27214 bound_to 8218
  185.8225  -11.3334   48.8672 LP  0  0  0  0  0  0  0  0  0  0  0  0  # atno 27215 bound_to 9518
  186.6309  -11.0684   47.4733 LP  0  0  0  0  0  0  0  0  0  0  0  0  # atno 27216 bound_to 9518
  197.4734   -8.4910   39.8377 LP  0  0  0  0  0  0  0  0  0  0  0  0  # atno 27217 bound_to 6635
  186.9633   -8.8654   37.1714 LP  0  0  0  0  0  0  0  0  0  0  0  0  # atno 27218 bound_to 8295
  188.5784   -7.3400   47.2742 LP  0  0  0  0  0  0  0  0  0  0  0  0  # atno 27219 bound_to 10084
  187.2577   -7.5438   48.3760 LP  0  0  0  0  0  0  0  0  0  0  0  0  # atno 27220 bound_to 10084
  187.4230   -4.5312   44.1558 LP  0  0  0  0  0  0  0  0  0  0  0  0  # atno 27221 bound_to 10167
  188.5960   -6.0412   40.1922 LP  0  0  0  0  0  0  0  0  0  0  0  0  # atno 27222 bound_to 10170
  187.3909   -6.4080   41.3810 LP  0  0  0  0  0  0  0  0  0  0  0  0  # atno 27223 bound_to 10170
  195.6216   -8.9501   49.5338 LP  0  0  0  0  0  0  0  0  0  0  0  0  # atno 27224 bound_to 7920
  191.0738   -7.2559   49.5149 LP  0  0  0  0  0  0  0  0  0  0  0  0  # atno 27225 bound_to 7923
  192.0253   -7.2365   50.9621 LP  0  0  0  0  0  0  0  0  0  0  0  0  # atno 27226 bound_to 7923
  199.1841  -11.8724   38.8835 LP  0  0  0  0  0  0  0  0  0  0  0  0  # atno 27227 bound_to 6365
  198.4627  -10.4118   38.2951 LP  0  0  0  0  0  0  0  0  0  0  0  0  # atno 27228 bound_to 6365
  196.8386   -6.0253   42.2561 LP  0  0  0  0  0  0  0  0  0  0  0  0  # atno 27229 bound_to 6784
  196.7091   -6.2866   47.5594 LP  0  0  0  0  0  0  0  0  0  0  0  0  # atno 27230 bound_to 7788
  195.1831   -6.1545   48.3679 LP  0  0  0  0  0  0  0  0  0  0  0  0  # atno 27231 bound_to 7788
  194.9638   -6.1565   50.4680 LP  0  0  0  0  0  0  0  0  0  0  0  0  # atno 27232 bound_to 7715
  194.2177   -6.7666   51.9072 LP  0  0  0  0  0  0  0  0  0  0  0  0  # atno 27233 bound_to 7715
  196.8952   -7.0810   50.9882 LP  0  0  0  0  0  0  0  0  0  0  0  0  # atno 27234 bound_to 7873
  197.5973   -8.9736   51.6367 LP  0  0  0  0  0  0  0  0  0  0  0  0  # atno 27235 bound_to 7878
  199.2214   -8.8184   51.5672 LP  0  0  0  0  0  0  0  0  0  0  0  0  # atno 27236 bound_to 7878

> <Gold.Score>
     Fitness  S(hb_ext) S(vdw_ext)  S(hb_int)    S(int)      intcor
     27.58      10.21      13.35       0.00      -0.99      -0.76

> <Gold.Goldscore.Fitness>
27.5750

> <Gold.Goldscore.Internal.Vdw>
-1.2549

> <Gold.Goldscore.Internal.Torsion>
-0.4936

> <Gold.Goldscore.External.Vdw>
13.3481

> <Gold.Goldscore.Internal.HBond>
0.0000

> <Gold.Goldscore.External.HBond>
10.2113

> <Gold.Goldscore.Internal.Correction>
-0.7585

> <Gold.Goldscore.Hbonds>
donor molecule, donor type, donor heavy atom, donor atom, acceptor molecule, acceptor atom, score
      P1  H  6792  6848       L1    11  0.47
      P1  H  8150  8180       L1    17  0.69
      L1  H     8    22       P1  8092  1.00

> <Gold.Goldscore.Internal.Vdw.Weighted>
-1.2549

> <Gold.Goldscore.Internal.Torsion.Weighted>
-0.4936

> <Gold.Goldscore.External.Vdw.Weighted>
18.3537

> <Gold.Goldscore.Internal.HBond.Weighted>
0.0000

> <Gold.Goldscore.External.HBond.Weighted>
10.2113

> <Gold.Goldscore.Internal.Correction.Weighted>
-0.7585

> <Gold.Rescore>
     Score     S(PLP)   S(hbond)     S(cho)   S(metal)  DE(clash)   DE(tors)     intcor
     28.20     -21.22       2.89       0.00       0.00       0.36       0.67       ----

> <Gold.PLP.Fitness>
28.2007

> <Gold.PLP.PLP>
-21.2191

> <Gold.PLP.part.hbond>
-3.0000

> <Gold.PLP.part.metal>
0.0000

> <Gold.PLP.part.buried>
-5.9835

> <Gold.PLP.part.nonpolar>
-13.0694

> <Gold.PLP.part.repulsive>
0.4596

> <Gold.PLP.ligand.clash>
0.3557

> <Gold.PLP.ligand.torsion>
0.6705

> <Gold.PLP.Chemscore.Hbond>
2.8928

> <Gold.PLP.Chemscore.CHOScore>
0.0000

> <Gold.PLP.Chemscore.Metal>
0.0000

> <Gold.Chemscore.Hbonds>
donor molecule, donor type, donor heavy atom, donor atom, acceptor molecule, acceptor atom, score
      L1  H     8    22       P1  8092  0.98
      P1  H  6792  6848       L1    11  0.83
      P1  H  8150  8180       L1    17  1.00

> <Gold.PLP.Chemscore.Internal.Correction>
   9.000000E+99

