#       Name:                CT1002167954
#       Creating user name   hitesit
#       Creation time:       Sun Apr 16 20:23:33 2023


#       File generated by GOLD software.
#

@<TRIPOS>MOLECULE
CT1002167954|ligand_prepared|mol2|1|dock2
    29    30     1
SMALL
NO_CHARGES


@<TRIPOS>ATOM
      1 C1         191.3770 -13.8327  44.6370 C.3            1 RES1               0.0000
      2 C2         190.5475 -13.4861  45.8902 C.ar           1 RES1               0.0000
      3 C3         190.5830 -13.3154  43.4410 C.2            1 RES1               0.0000
      4 C4         192.7321 -13.1590  44.8225 C.2            1 RES1               0.0000
      5 C5         191.6190 -15.3483  44.4474 C.3            1 RES1               0.0000
      6 C6         189.5488 -14.3452  46.3389 C.ar           1 RES1               0.0000
      7 C7         190.7707 -12.3142  46.6082 C.ar           1 RES1               0.0000
      8 N8         191.0411 -12.1930  42.8163 N.am           1 RES1               0.0000
      9 O9         189.5490 -13.8612  43.0762 O.2            1 RES1               0.0000
     10 N10        193.0716 -12.1509  43.9586 N.am           1 RES1               0.0000
     11 O11        193.5018 -13.4807  45.7193 O.2            1 RES1               0.0000
     12 C12        192.6288 -15.6766  43.3590 C.3            1 RES1               0.0000
     13 C13        188.8023 -14.0452  47.4663 C.ar           1 RES1               0.0000
     14 C14        190.0228 -12.0161  47.7353 C.ar           1 RES1               0.0000
     15 C15        192.2747 -11.6167  42.9831 C.2            1 RES1               0.0000
     16 C16        189.0390 -12.8808  48.1654 C.ar           1 RES1               0.0000
     17 O17        192.6303 -10.6740  42.2817 O.2            1 RES1               0.0000
     18 H18        191.9725 -15.7708  45.3961 H              1 RES1               0.0000
     19 H19        190.6648 -15.8301  44.2007 H              1 RES1               0.0000
     20 H20        189.3465 -15.2649  45.8001 H              1 RES1               0.0000
     21 H21        191.5388 -11.6186  46.2877 H              1 RES1               0.0000
     22 H22        190.4078 -11.7402  42.1649 H              1 RES1               0.0000
     23 H23        194.0050 -11.7629  44.0513 H              1 RES1               0.0000
     24 H24        192.7612 -16.7526  43.2675 H              1 RES1               0.0000
     25 H25        192.2968 -15.2930  42.3964 H              1 RES1               0.0000
     26 H26        193.5968 -15.2340  43.5847 H              1 RES1               0.0000
     27 H27        188.0283 -14.7284  47.7999 H              1 RES1               0.0000
     28 H28        190.2122 -11.0983  48.2821 H              1 RES1               0.0000
     29 H29        188.4544 -12.6463  49.0488 H              1 RES1               0.0000
@<TRIPOS>BOND
    1    1    2 1     
    2    1    3 1     
    3    1    4 1     
    4    1    5 1     
    5    2    6 ar    
    6    2    7 ar    
    7    3    8 1     
    8    3    9 2     
    9    4   10 1     
   10    4   11 2     
   11    5   12 1     
   12    5   18 1     
   13    5   19 1     
   14    6   13 ar    
   15    6   20 1     
   16    7   14 ar    
   17    7   21 1     
   18    8   15 1     
   19    8   22 1     
   20   10   15 1     
   21   10   23 1     
   22   12   24 1     
   23   12   25 1     
   24   12   26 1     
   25   13   16 ar    
   26   13   27 1     
   27   14   16 ar    
   28   14   28 1     
   29   15   17 2     
   30   16   29 1     
@<TRIPOS>SUBSTRUCTURE
      1 RES1           1
@<TRIPOS>SET
DONOR_HYDROGENS      STATIC     ATOMS    <user>   **** ""
2 22 23
ATOM$RED        STATIC     ATOMS    COLORGROUP SYSTEM
2 22 23
@<TRIPOS>COMMENT
> <Gold.Version>
2022.3.0

> <Gold.Id.Protein>
unknown|4v3u_clean|pdb

> <Gold.Protein.RotatedTorsions>
[ 6601 6555 6556 6557 ] final  -14.42 input  119.23 | X-H torsion
[ 8042 8007 8008 8009 ] final  -31.17 input   55.11 | X-H torsion
[ 8121 8084 8085 8086 ] final -138.72 input   97.66 | X-H torsion
[ 8180 8150 8151 8152 ] final  -95.58 input   74.82 | X-H torsion
[ 8257 8218 8219 8220 ] final  -30.92 input   76.36 | X-H torsion
[ 9569 9518 9517 9515 ] final  -68.03 input   59.97 | X-H torsion
[ 6689 6635 6636 6637 ] final   18.12 input  125.14 | X-H torsion
[ 8319 8295 8296 8297 ] final  166.81 input   97.98 | X-H torsion
[ 10213 10167 10168 10169 ] final  111.86 input   38.66 | X-H torsion
[ 7960 7920 7921 7922 ] final -168.06 input   85.79 | X-H torsion
[ 6837 6784 6785 6786 ] final   99.80 input  126.65 | X-H torsion
[ 7896 7873 7874 7875 ] final  172.09 input  103.19 | X-H torsion
[ 7900 7878 7877 7874 ] final  169.09 input   60.02 | X-H torsion
[ 27201 6558 6557 6556 ] final   40.12 input    0.00 | X-H torsion
[ 27203 7876 7875 7874 ] final   24.24 input   -0.00 | X-H torsion
[ 27206 8010 8009 8008 ] final -116.06 input    0.00 | X-H torsion
[ 27209 8087 8086 8085 ] final -146.06 input    0.00 | X-H torsion
[ 27212 8153 8152 8151 ] final -161.86 input   -0.00 | X-H torsion
[ 27219 10084 10083 10082 ] final -164.71 input    0.00 | X-H torsion
[ 27222 10170 10169 10168 ] final  -87.49 input    0.00 | X-H torsion
[ 27225 7923 7922 7921 ] final  -70.55 input   -0.00 | X-H torsion
[ 27227 6365 6364 6363 ] final  123.24 input    0.00 | X-H torsion
[ 27230 7788 7787 7786 ] final  134.46 input    0.00 | X-H torsion
[ 27232 7715 7714 7713 ] final -171.77 input    0.00 | X-H torsion

> <Gold.Protein.ActiveResidues>
 THR404  ILE407  TYR408  ALA410  LYS411  TRP414  GLN425  TRP426  SER427  LYS428 
 LEU429  GLN430  VAL431  PHE432  ASP433  TYR453  SER462  ALA463  ILE464 

> <Gold.Protein.RotatedAtoms>
  196.7035   -8.5141   37.8581 H   0  0  0  0  0  0  0  0  0  0  0  0  # atno 6601 bound_to 6555
  197.7196   -8.5117   39.3755 H   0  0  0  0  0  0  0  0  0  0  0  0  # atno 6689 bound_to 6635
  197.1155   -5.9309   42.1828 H   0  0  0  0  0  0  0  0  0  0  0  0  # atno 6837 bound_to 6784
  198.1726   -6.6651   50.2243 H   0  0  0  0  0  0  0  0  0  0  0  0  # atno 7896 bound_to 7873
  199.0367  -10.0979   51.5755 H   0  0  0  0  0  0  0  0  0  0  0  0  # atno 7900 bound_to 7878
  195.7575   -9.2641   50.6303 H   0  0  0  0  0  0  0  0  0  0  0  0  # atno 7960 bound_to 7920
  192.5801   -9.3396   48.4201 H   0  0  0  0  0  0  0  0  0  0  0  0  # atno 8042 bound_to 8007
  190.7225   -9.0349   46.8621 H   0  0  0  0  0  0  0  0  0  0  0  0  # atno 8121 bound_to 8084
  189.3567   -8.8243   43.5863 H   0  0  0  0  0  0  0  0  0  0  0  0  # atno 8180 bound_to 8150
  189.0436   -8.2455   39.8146 H   0  0  0  0  0  0  0  0  0  0  0  0  # atno 8257 bound_to 8218
  188.4917   -9.6187   37.5323 H   0  0  0  0  0  0  0  0  0  0  0  0  # atno 8319 bound_to 8295
  185.6153  -11.8327   48.7901 H   0  0  0  0  0  0  0  0  0  0  0  0  # atno 9569 bound_to 9518
  188.8951   -5.1657   43.8849 H   0  0  0  0  0  0  0  0  0  0  0  0  # atno 10213 bound_to 10167
  195.3977   -9.6506   37.6018 LP  0  0  0  0  0  0  0  0  0  0  0  0  # atno 27200 bound_to 6555
  196.1468   -7.9666   41.9599 LP  0  0  0  0  0  0  0  0  0  0  0  0  # atno 27201 bound_to 6558
  197.5081   -7.0678   41.3776 LP  0  0  0  0  0  0  0  0  0  0  0  0  # atno 27202 bound_to 6558
  196.4356  -10.5982   48.2507 LP  0  0  0  0  0  0  0  0  0  0  0  0  # atno 27203 bound_to 7876
  194.7371  -10.2801   48.3694 LP  0  0  0  0  0  0  0  0  0  0  0  0  # atno 27204 bound_to 7876
  193.6953   -8.0003   48.5736 LP  0  0  0  0  0  0  0  0  0  0  0  0  # atno 27205 bound_to 8007
  192.1357   -9.3216   44.6356 LP  0  0  0  0  0  0  0  0  0  0  0  0  # atno 27206 bound_to 8010
  192.6496  -10.0901   46.1003 LP  0  0  0  0  0  0  0  0  0  0  0  0  # atno 27207 bound_to 8010
  189.9644   -7.5837   46.2504 LP  0  0  0  0  0  0  0  0  0  0  0  0  # atno 27208 bound_to 8084
  188.4285   -7.2258   42.9513 LP  0  0  0  0  0  0  0  0  0  0  0  0  # atno 27209 bound_to 8087
  188.9735   -6.8622   44.5546 LP  0  0  0  0  0  0  0  0  0  0  0  0  # atno 27210 bound_to 8087
  190.3488  -10.1502   43.0279 LP  0  0  0  0  0  0  0  0  0  0  0  0  # atno 27211 bound_to 8150
  188.4118  -10.7129   39.4826 LP  0  0  0  0  0  0  0  0  0  0  0  0  # atno 27212 bound_to 8153
  189.3642  -11.0686   40.8849 LP  0  0  0  0  0  0  0  0  0  0  0  0  # atno 27213 bound_to 8153
  187.7850   -8.1421   41.0210 LP  0  0  0  0  0  0  0  0  0  0  0  0  # atno 27214 bound_to 8218
  186.5362  -10.7955   47.9388 LP  0  0  0  0  0  0  0  0  0  0  0  0  # atno 27215 bound_to 9518
  186.1399  -12.2481   47.3066 LP  0  0  0  0  0  0  0  0  0  0  0  0  # atno 27216 bound_to 9518
  197.9473  -10.0156   40.2379 LP  0  0  0  0  0  0  0  0  0  0  0  0  # atno 27217 bound_to 6635
  186.8980   -9.0243   37.1146 LP  0  0  0  0  0  0  0  0  0  0  0  0  # atno 27218 bound_to 8295
  188.0287   -7.3376   46.9725 LP  0  0  0  0  0  0  0  0  0  0  0  0  # atno 27219 bound_to 10084
  187.8075   -7.5462   48.6777 LP  0  0  0  0  0  0  0  0  0  0  0  0  # atno 27220 bound_to 10084
  187.1617   -4.9613   43.7663 LP  0  0  0  0  0  0  0  0  0  0  0  0  # atno 27221 bound_to 10167
  188.7556   -6.0547   40.4121 LP  0  0  0  0  0  0  0  0  0  0  0  0  # atno 27222 bound_to 10170
  187.2313   -6.3945   41.1612 LP  0  0  0  0  0  0  0  0  0  0  0  0  # atno 27223 bound_to 10170
  195.2013   -7.7754   49.8956 LP  0  0  0  0  0  0  0  0  0  0  0  0  # atno 27224 bound_to 7920
  191.0796   -7.9304   50.4855 LP  0  0  0  0  0  0  0  0  0  0  0  0  # atno 27225 bound_to 7923
  192.0195   -6.5620   49.9914 LP  0  0  0  0  0  0  0  0  0  0  0  0  # atno 27226 bound_to 7923
  199.6731  -11.0671   38.4398 LP  0  0  0  0  0  0  0  0  0  0  0  0  # atno 27227 bound_to 6365
  197.9737  -11.2171   38.7388 LP  0  0  0  0  0  0  0  0  0  0  0  0  # atno 27228 bound_to 6365
  196.2294   -4.4681   42.5505 LP  0  0  0  0  0  0  0  0  0  0  0  0  # atno 27229 bound_to 6784
  196.6005   -6.6942   47.6517 LP  0  0  0  0  0  0  0  0  0  0  0  0  # atno 27230 bound_to 7788
  195.2917   -5.7469   48.2757 LP  0  0  0  0  0  0  0  0  0  0  0  0  # atno 27231 bound_to 7788
  195.1655   -6.4102   50.5418 LP  0  0  0  0  0  0  0  0  0  0  0  0  # atno 27232 bound_to 7715
  194.0160   -6.5129   51.8334 LP  0  0  0  0  0  0  0  0  0  0  0  0  # atno 27233 bound_to 7715
  196.4422   -6.7565   50.4100 LP  0  0  0  0  0  0  0  0  0  0  0  0  # atno 27234 bound_to 7873
  197.5226   -9.5048   51.6410 LP  0  0  0  0  0  0  0  0  0  0  0  0  # atno 27235 bound_to 7878
  198.7991   -8.4880   51.5845 LP  0  0  0  0  0  0  0  0  0  0  0  0  # atno 27236 bound_to 7878

> <Gold.Score>
     Fitness  S(hb_ext) S(vdw_ext)  S(hb_int)    S(int)      intcor
     30.37       6.71      17.78       0.00      -0.79      -0.77

> <Gold.Goldscore.Fitness>
30.3744

> <Gold.Goldscore.Internal.Vdw>
-1.0350

> <Gold.Goldscore.Internal.Torsion>
-0.5193

> <Gold.Goldscore.External.Vdw>
17.7847

> <Gold.Goldscore.Internal.HBond>
0.0000

> <Gold.Goldscore.External.HBond>
6.7096

> <Gold.Goldscore.Internal.Correction>
-0.7653

> <Gold.Goldscore.Hbonds>
donor molecule, donor type, donor heavy atom, donor atom, acceptor molecule, acceptor atom, score
      P1  H  6792  6848       L1    11  0.93
      P1  H  8091  8119       L1     9  0.01
      L1  H     8    22       P1  8153  0.55

> <Gold.Goldscore.Internal.Vdw.Weighted>
-1.0350

> <Gold.Goldscore.Internal.Torsion.Weighted>
-0.5193

> <Gold.Goldscore.External.Vdw.Weighted>
24.4539

> <Gold.Goldscore.Internal.HBond.Weighted>
0.0000

> <Gold.Goldscore.External.HBond.Weighted>
6.7096

> <Gold.Goldscore.Internal.Correction.Weighted>
-0.7653

> <Gold.Rescore>
     Score     S(PLP)   S(hbond)     S(cho)   S(metal)  DE(clash)   DE(tors)     intcor
     23.32     -22.46       0.85       0.00       0.00       0.33       0.68       ----

> <Gold.PLP.Fitness>
23.3154

> <Gold.PLP.PLP>
-22.4566

> <Gold.PLP.part.hbond>
-3.6417

> <Gold.PLP.part.metal>
0.0000

> <Gold.PLP.part.buried>
-4.4518

> <Gold.PLP.part.nonpolar>
-15.3392

> <Gold.PLP.part.repulsive>
0.5413

> <Gold.PLP.ligand.clash>
0.3263

> <Gold.PLP.ligand.torsion>
0.6794

> <Gold.PLP.Chemscore.Hbond>
0.8480

> <Gold.PLP.Chemscore.CHOScore>
0.0000

> <Gold.PLP.Chemscore.Metal>
0.0000

> <Gold.Chemscore.Hbonds>
donor molecule, donor type, donor heavy atom, donor atom, acceptor molecule, acceptor atom, score
      P1  H  6792  6848       L1    11  0.32
      P1  H  8091  8119       L1     9  0.56

> <Gold.PLP.Chemscore.Internal.Correction>
   9.000000E+99

