#       Name:                CT1002167954
#       Creating user name   hitesit
#       Creation time:       Sun Apr 16 20:23:37 2023


#       File generated by GOLD software.
#

@<TRIPOS>MOLECULE
CT1002167954|ligand_prepared|mol2|1|dock9
    29    30     1
SMALL
NO_CHARGES


@<TRIPOS>ATOM
      1 C1         190.8863 -13.5576  47.6392 C.3            1 RES1               0.0000
      2 C2         190.5366 -13.8105  46.1585 C.ar           1 RES1               0.0000
      3 C3         192.0844 -14.4482  47.9547 C.2            1 RES1               0.0000
      4 C4         191.1715 -12.0648  47.7613 C.2            1 RES1               0.0000
      5 C5         189.7427 -13.9073  48.6198 C.3            1 RES1               0.0000
      6 C6         189.9122 -14.9918  45.7696 C.ar           1 RES1               0.0000
      7 C7         190.8293 -12.8724  45.1722 C.ar           1 RES1               0.0000
      8 N8         193.3013 -13.8468  48.0872 N.am           1 RES1               0.0000
      9 O9         191.9701 -15.6642  48.0466 O.2            1 RES1               0.0000
     10 N10        192.4472 -11.6787  48.0795 N.am           1 RES1               0.0000
     11 O11        190.3069 -11.2189  47.5685 O.2            1 RES1               0.0000
     12 C12        188.3675 -13.4732  48.1377 C.3            1 RES1               0.0000
     13 C13        189.5893 -15.2257  44.4432 C.ar           1 RES1               0.0000
     14 C14        190.5058 -13.1084  43.8462 C.ar           1 RES1               0.0000
     15 C15        193.5322 -12.5009  48.2177 C.2            1 RES1               0.0000
     16 C16        189.8854 -14.2841  43.4808 C.ar           1 RES1               0.0000
     17 O17        194.6594 -12.0742  48.4508 O.2            1 RES1               0.0000
     18 H18        189.7344 -14.9924  48.7801 H              1 RES1               0.0000
     19 H19        189.9461 -13.4273  49.5851 H              1 RES1               0.0000
     20 H20        189.6736 -15.7455  46.5126 H              1 RES1               0.0000
     21 H21        191.3181 -11.9407  45.4363 H              1 RES1               0.0000
     22 H22        194.1148 -14.4538  48.0893 H              1 RES1               0.0000
     23 H23        192.6024 -10.6865  48.2270 H              1 RES1               0.0000
     24 H24        187.6020 -13.7423  48.8624 H              1 RES1               0.0000
     25 H25        188.3322 -12.3955  47.9920 H              1 RES1               0.0000
     26 H26        188.1217 -13.9513  47.1917 H              1 RES1               0.0000
     27 H27        189.1024 -16.1532  44.1606 H              1 RES1               0.0000
     28 H28        190.7412 -12.3648  43.0920 H              1 RES1               0.0000
     29 H29        189.6320 -14.4674  42.4418 H              1 RES1               0.0000
@<TRIPOS>BOND
    1    1    2 1     
    2    1    3 1     
    3    1    4 1     
    4    1    5 1     
    5    2    6 ar    
    6    2    7 ar    
    7    3    8 1     
    8    3    9 2     
    9    4   10 1     
   10    4   11 2     
   11    5   12 1     
   12    5   18 1     
   13    5   19 1     
   14    6   13 ar    
   15    6   20 1     
   16    7   14 ar    
   17    7   21 1     
   18    8   15 1     
   19    8   22 1     
   20   10   15 1     
   21   10   23 1     
   22   12   24 1     
   23   12   25 1     
   24   12   26 1     
   25   13   16 ar    
   26   13   27 1     
   27   14   16 ar    
   28   14   28 1     
   29   15   17 2     
   30   16   29 1     
@<TRIPOS>SUBSTRUCTURE
      1 RES1           1
@<TRIPOS>SET
DONOR_HYDROGENS      STATIC     ATOMS    <user>   **** ""
2 22 23
ATOM$RED        STATIC     ATOMS    COLORGROUP SYSTEM
2 22 23
@<TRIPOS>COMMENT
> <Gold.Version>
2022.3.0

> <Gold.Id.Protein>
unknown|4v3u_clean|pdb

> <Gold.Protein.RotatedTorsions>
[ 6601 6555 6556 6557 ] final   46.75 input  119.23 | X-H torsion
[ 8042 8007 8008 8009 ] final  169.41 input   55.11 | X-H torsion
[ 8121 8084 8085 8086 ] final   77.43 input   97.66 | X-H torsion
[ 8180 8150 8151 8152 ] final  -68.72 input   74.82 | X-H torsion
[ 8257 8218 8219 8220 ] final   55.94 input   76.36 | X-H torsion
[ 9569 9518 9517 9515 ] final   63.08 input   59.97 | X-H torsion
[ 6689 6635 6636 6637 ] final    4.47 input  125.14 | X-H torsion
[ 8319 8295 8296 8297 ] final  -72.62 input   97.98 | X-H torsion
[ 10213 10167 10168 10169 ] final  175.82 input   38.66 | X-H torsion
[ 7960 7920 7921 7922 ] final -113.04 input   85.79 | X-H torsion
[ 6837 6784 6785 6786 ] final -160.42 input  126.65 | X-H torsion
[ 7896 7873 7874 7875 ] final  -78.25 input  103.19 | X-H torsion
[ 7900 7878 7877 7874 ] final  156.46 input   60.02 | X-H torsion
[ 27201 6558 6557 6556 ] final   34.69 input    0.00 | X-H torsion
[ 27203 7876 7875 7874 ] final  141.24 input   -0.00 | X-H torsion
[ 27206 8010 8009 8008 ] final  157.11 input    0.00 | X-H torsion
[ 27209 8087 8086 8085 ] final  -77.29 input    0.00 | X-H torsion
[ 27212 8153 8152 8151 ] final -139.25 input   -0.00 | X-H torsion
[ 27219 10084 10083 10082 ] final  -32.41 input    0.00 | X-H torsion
[ 27222 10170 10169 10168 ] final -172.92 input    0.00 | X-H torsion
[ 27225 7923 7922 7921 ] final  132.39 input   -0.00 | X-H torsion
[ 27227 6365 6364 6363 ] final   21.45 input    0.00 | X-H torsion
[ 27230 7788 7787 7786 ] final  135.40 input    0.00 | X-H torsion
[ 27232 7715 7714 7713 ] final -129.40 input    0.00 | X-H torsion

> <Gold.Protein.ActiveResidues>
 THR404  ILE407  TYR408  ALA410  LYS411  TRP414  GLN425  TRP426  SER427  LYS428 
 LEU429  GLN430  VAL431  PHE432  ASP433  TYR453  SER462  ALA463  ILE464 

> <Gold.Protein.RotatedAtoms>
  196.8702   -9.4008   37.7994 H   0  0  0  0  0  0  0  0  0  0  0  0  # atno 6601 bound_to 6555
  197.6120   -8.4579   39.5484 H   0  0  0  0  0  0  0  0  0  0  0  0  # atno 6689 bound_to 6635
  195.8913   -5.5410   42.6217 H   0  0  0  0  0  0  0  0  0  0  0  0  # atno 6837 bound_to 6784
  196.9151   -6.3210   49.6389 H   0  0  0  0  0  0  0  0  0  0  0  0  # atno 7896 bound_to 7873
  198.8625  -10.2077   51.5832 H   0  0  0  0  0  0  0  0  0  0  0  0  # atno 7900 bound_to 7878
  195.7157   -9.2381   49.8093 H   0  0  0  0  0  0  0  0  0  0  0  0  # atno 7960 bound_to 7920
  193.5004   -7.9038   48.7999 H   0  0  0  0  0  0  0  0  0  0  0  0  # atno 8042 bound_to 8007
  189.6338   -7.7734   46.6368 H   0  0  0  0  0  0  0  0  0  0  0  0  # atno 8121 bound_to 8084
  189.0831   -9.0919   43.4371 H   0  0  0  0  0  0  0  0  0  0  0  0  # atno 8180 bound_to 8150
  188.3048   -7.3535   40.1744 H   0  0  0  0  0  0  0  0  0  0  0  0  # atno 8257 bound_to 8218
  187.4791   -8.4533   37.4169 H   0  0  0  0  0  0  0  0  0  0  0  0  # atno 8319 bound_to 8295
  186.2389  -12.1165   47.2290 H   0  0  0  0  0  0  0  0  0  0  0  0  # atno 9569 bound_to 9518
  188.4409   -4.4853   44.3489 H   0  0  0  0  0  0  0  0  0  0  0  0  # atno 10213 bound_to 10167
  195.2360   -8.7910   37.6587 LP  0  0  0  0  0  0  0  0  0  0  0  0  # atno 27200 bound_to 6555
  196.1003   -7.9208   41.9103 LP  0  0  0  0  0  0  0  0  0  0  0  0  # atno 27201 bound_to 6558
  197.5546   -7.1135   41.4273 LP  0  0  0  0  0  0  0  0  0  0  0  0  # atno 27202 bound_to 6558
  195.1514  -10.8533   48.9340 LP  0  0  0  0  0  0  0  0  0  0  0  0  # atno 27203 bound_to 7876
  196.0213  -10.0249   47.6861 LP  0  0  0  0  0  0  0  0  0  0  0  0  # atno 27204 bound_to 7876
  192.8023   -9.3936   48.2051 LP  0  0  0  0  0  0  0  0  0  0  0  0  # atno 27205 bound_to 8007
  191.7116  -10.2325   45.2738 LP  0  0  0  0  0  0  0  0  0  0  0  0  # atno 27206 bound_to 8010
  193.0737   -9.1792   45.4620 LP  0  0  0  0  0  0  0  0  0  0  0  0  # atno 27207 bound_to 8010
  191.0272   -8.8152   46.4704 LP  0  0  0  0  0  0  0  0  0  0  0  0  # atno 27208 bound_to 8084
  187.9016   -7.3769   43.7613 LP  0  0  0  0  0  0  0  0  0  0  0  0  # atno 27209 bound_to 8087
  189.5005   -6.7111   43.7446 LP  0  0  0  0  0  0  0  0  0  0  0  0  # atno 27210 bound_to 8087
  190.6159   -9.8889   43.1735 LP  0  0  0  0  0  0  0  0  0  0  0  0  # atno 27211 bound_to 8150
  188.7263  -10.6932   39.3562 LP  0  0  0  0  0  0  0  0  0  0  0  0  # atno 27212 bound_to 8153
  189.0497  -11.0883   41.0113 LP  0  0  0  0  0  0  0  0  0  0  0  0  # atno 27213 bound_to 8153
  188.5088   -9.0161   40.6685 LP  0  0  0  0  0  0  0  0  0  0  0  0  # atno 27214 bound_to 8218
  185.5788  -11.9927   48.7114 LP  0  0  0  0  0  0  0  0  0  0  0  0  # atno 27215 bound_to 9518
  186.4694  -10.7651   48.1060 LP  0  0  0  0  0  0  0  0  0  0  0  0  # atno 27216 bound_to 9518
  198.0521  -10.0679   40.0695 LP  0  0  0  0  0  0  0  0  0  0  0  0  # atno 27217 bound_to 6635
  187.8751  -10.1488   37.2259 LP  0  0  0  0  0  0  0  0  0  0  0  0  # atno 27218 bound_to 8295
  188.4778   -7.4848   48.4845 LP  0  0  0  0  0  0  0  0  0  0  0  0  # atno 27219 bound_to 10084
  187.3583   -7.3990   47.1657 LP  0  0  0  0  0  0  0  0  0  0  0  0  # atno 27220 bound_to 10084
  187.6023   -5.6214   43.3162 LP  0  0  0  0  0  0  0  0  0  0  0  0  # atno 27221 bound_to 10167
  187.6621   -6.1408   39.9909 LP  0  0  0  0  0  0  0  0  0  0  0  0  # atno 27222 bound_to 10170
  188.3248   -6.3084   41.5824 LP  0  0  0  0  0  0  0  0  0  0  0  0  # atno 27223 bound_to 10170
  195.2417   -7.8005   50.6890 LP  0  0  0  0  0  0  0  0  0  0  0  0  # atno 27224 bound_to 7920
  191.8090   -6.6016   49.7216 LP  0  0  0  0  0  0  0  0  0  0  0  0  # atno 27225 bound_to 7923
  191.2901   -7.8909   50.7553 LP  0  0  0  0  0  0  0  0  0  0  0  0  # atno 27226 bound_to 7923
  198.7774  -11.9226   38.9618 LP  0  0  0  0  0  0  0  0  0  0  0  0  # atno 27227 bound_to 6365
  198.8694  -10.3617   38.2168 LP  0  0  0  0  0  0  0  0  0  0  0  0  # atno 27228 bound_to 6365
  197.4180   -4.8466   42.1243 LP  0  0  0  0  0  0  0  0  0  0  0  0  # atno 27229 bound_to 6784
  196.5940   -6.7060   47.6562 LP  0  0  0  0  0  0  0  0  0  0  0  0  # atno 27230 bound_to 7788
  195.2982   -5.7351   48.2712 LP  0  0  0  0  0  0  0  0  0  0  0  0  # atno 27231 bound_to 7788
  195.3004   -6.8843   50.9276 LP  0  0  0  0  0  0  0  0  0  0  0  0  # atno 27232 bound_to 7715
  193.8810   -6.0388   51.4477 LP  0  0  0  0  0  0  0  0  0  0  0  0  # atno 27233 bound_to 7715
  197.6917   -7.0984   50.9916 LP  0  0  0  0  0  0  0  0  0  0  0  0  # atno 27234 bound_to 7873
  197.5147   -9.2976   51.6409 LP  0  0  0  0  0  0  0  0  0  0  0  0  # atno 27235 bound_to 7878
  198.9824   -8.5847   51.5769 LP  0  0  0  0  0  0  0  0  0  0  0  0  # atno 27236 bound_to 7878

> <Gold.Score>
     Fitness  S(hb_ext) S(vdw_ext)  S(hb_int)    S(int)      intcor
     23.41       6.00      14.91       0.00      -3.08      -0.76

> <Gold.Goldscore.Fitness>
23.4149

> <Gold.Goldscore.Internal.Vdw>
-2.9761

> <Gold.Goldscore.Internal.Torsion>
-0.8633

> <Gold.Goldscore.External.Vdw>
14.9060

> <Gold.Goldscore.Internal.HBond>
0.0000

> <Gold.Goldscore.External.HBond>
6.0000

> <Gold.Goldscore.Internal.Correction>
-0.7585

> <Gold.Goldscore.Hbonds>
donor molecule, donor type, donor heavy atom, donor atom, acceptor molecule, acceptor atom, score
      L1  H    10    23       P1  8007  1.00

> <Gold.Goldscore.Internal.Vdw.Weighted>
-2.9761

> <Gold.Goldscore.Internal.Torsion.Weighted>
-0.8633

> <Gold.Goldscore.External.Vdw.Weighted>
20.4958

> <Gold.Goldscore.Internal.HBond.Weighted>
0.0000

> <Gold.Goldscore.External.HBond.Weighted>
6.0000

> <Gold.Goldscore.Internal.Correction.Weighted>
-0.7585

> <Gold.Rescore>
     Score     S(PLP)   S(hbond)     S(cho)   S(metal)  DE(clash)   DE(tors)     intcor
     19.28     -17.95       0.99       0.00       0.00       0.94       0.35       ----

> <Gold.PLP.Fitness>
19.2799

> <Gold.PLP.PLP>
-17.9494

> <Gold.PLP.part.hbond>
-2.0000

> <Gold.PLP.part.metal>
0.0000

> <Gold.PLP.part.buried>
-2.6171

> <Gold.PLP.part.nonpolar>
-14.1826

> <Gold.PLP.part.repulsive>
0.5398

> <Gold.PLP.ligand.clash>
0.9444

> <Gold.PLP.ligand.torsion>
0.3494

> <Gold.PLP.Chemscore.Hbond>
0.9913

> <Gold.PLP.Chemscore.CHOScore>
0.0000

> <Gold.PLP.Chemscore.Metal>
0.0000

> <Gold.Chemscore.Hbonds>
donor molecule, donor type, donor heavy atom, donor atom, acceptor molecule, acceptor atom, score
      L1  H    10    23       P1  8007  0.49
      P1  H  6792  6847       L1    17  0.27

> <Gold.PLP.Chemscore.Internal.Correction>
   9.000000E+99

