#       Name:                CT1002167954
#       Creating user name   hitesit
#       Creation time:       Sun Apr 16 20:23:36 2023


#       File generated by GOLD software.
#

@<TRIPOS>MOLECULE
CT1002167954|ligand_prepared|mol2|1|dock7
    29    30     1
SMALL
NO_CHARGES


@<TRIPOS>ATOM
      1 C1         191.7288 -13.3499  46.2511 C.3            1 RES1               0.0000
      2 C2         192.3814 -14.5265  47.0051 C.ar           1 RES1               0.0000
      3 C3         190.2349 -13.4232  46.5533 C.2            1 RES1               0.0000
      4 C4         192.4064 -12.0849  46.7661 C.2            1 RES1               0.0000
      5 C5         191.9231 -13.4056  44.7179 C.3            1 RES1               0.0000
      6 C6         192.4951 -14.5036  48.3919 C.ar           1 RES1               0.0000
      7 C7         192.8710 -15.6409  46.3290 C.ar           1 RES1               0.0000
      8 N8         189.7185 -12.5003  47.4143 N.am           1 RES1               0.0000
      9 O9         189.5284 -14.3016  46.0743 O.2            1 RES1               0.0000
     10 N10        191.6454 -11.1913  47.4733 N.am           1 RES1               0.0000
     11 O11        193.5963 -11.8618  46.5801 O.2            1 RES1               0.0000
     12 C12        191.3326 -12.2136  43.9813 C.3            1 RES1               0.0000
     13 C13        193.0747 -15.5578  49.0783 C.ar           1 RES1               0.0000
     14 C14        193.4504 -16.6940  47.0174 C.ar           1 RES1               0.0000
     15 C15        190.3395 -11.3563  47.8471 C.2            1 RES1               0.0000
     16 C16        193.5522 -16.6537  48.3917 C.ar           1 RES1               0.0000
     17 O17        189.7383 -10.5321  48.5300 O.2            1 RES1               0.0000
     18 H18        192.9968 -13.4590  44.4997 H              1 RES1               0.0000
     19 H19        191.4574 -14.3226  44.3360 H              1 RES1               0.0000
     20 H20        192.1272 -13.6485  48.9490 H              1 RES1               0.0000
     21 H21        192.8025 -15.6938  45.2478 H              1 RES1               0.0000
     22 H22        188.7841 -12.6771  47.7693 H              1 RES1               0.0000
     23 H23        192.0939 -10.3226  47.7462 H              1 RES1               0.0000
     24 H24        191.4966 -12.3027  42.9094 H              1 RES1               0.0000
     25 H25        190.2609 -12.1447  44.1556 H              1 RES1               0.0000
     26 H26        191.7912 -11.2862  44.3183 H              1 RES1               0.0000
     27 H27        193.1536 -15.5206  50.1598 H              1 RES1               0.0000
     28 H28        193.8254 -17.5542  46.4729 H              1 RES1               0.0000
     29 H29        194.0058 -17.4796  48.9297 H              1 RES1               0.0000
@<TRIPOS>BOND
    1    1    2 1     
    2    1    3 1     
    3    1    4 1     
    4    1    5 1     
    5    2    6 ar    
    6    2    7 ar    
    7    3    8 1     
    8    3    9 2     
    9    4   10 1     
   10    4   11 2     
   11    5   12 1     
   12    5   18 1     
   13    5   19 1     
   14    6   13 ar    
   15    6   20 1     
   16    7   14 ar    
   17    7   21 1     
   18    8   15 1     
   19    8   22 1     
   20   10   15 1     
   21   10   23 1     
   22   12   24 1     
   23   12   25 1     
   24   12   26 1     
   25   13   16 ar    
   26   13   27 1     
   27   14   16 ar    
   28   14   28 1     
   29   15   17 2     
   30   16   29 1     
@<TRIPOS>SUBSTRUCTURE
      1 RES1           1
@<TRIPOS>SET
DONOR_HYDROGENS      STATIC     ATOMS    <user>   **** ""
2 22 23
ATOM$RED        STATIC     ATOMS    COLORGROUP SYSTEM
2 22 23
@<TRIPOS>COMMENT
> <Gold.Version>
2022.3.0

> <Gold.Id.Protein>
unknown|4v3u_clean|pdb

> <Gold.Protein.RotatedTorsions>
[ 6601 6555 6556 6557 ] final   33.76 input  119.23 | X-H torsion
[ 8042 8007 8008 8009 ] final  174.42 input   55.11 | X-H torsion
[ 8121 8084 8085 8086 ] final  179.30 input   97.66 | X-H torsion
[ 8180 8150 8151 8152 ] final  -59.01 input   74.82 | X-H torsion
[ 8257 8218 8219 8220 ] final   63.16 input   76.36 | X-H torsion
[ 9569 9518 9517 9515 ] final  132.81 input   59.97 | X-H torsion
[ 6689 6635 6636 6637 ] final -155.30 input  125.14 | X-H torsion
[ 8319 8295 8296 8297 ] final   99.66 input   97.98 | X-H torsion
[ 10213 10167 10168 10169 ] final   64.82 input   38.66 | X-H torsion
[ 7960 7920 7921 7922 ] final  -21.58 input   85.79 | X-H torsion
[ 6837 6784 6785 6786 ] final   67.43 input  126.65 | X-H torsion
[ 7896 7873 7874 7875 ] final  -45.86 input  103.19 | X-H torsion
[ 7900 7878 7877 7874 ] final   55.56 input   60.02 | X-H torsion
[ 27201 6558 6557 6556 ] final    2.23 input    0.00 | X-H torsion
[ 27203 7876 7875 7874 ] final    6.76 input   -0.00 | X-H torsion
[ 27206 8010 8009 8008 ] final  -58.82 input    0.00 | X-H torsion
[ 27209 8087 8086 8085 ] final -178.99 input    0.00 | X-H torsion
[ 27212 8153 8152 8151 ] final  -16.30 input   -0.00 | X-H torsion
[ 27219 10084 10083 10082 ] final  -10.01 input    0.00 | X-H torsion
[ 27222 10170 10169 10168 ] final   60.08 input    0.00 | X-H torsion
[ 27225 7923 7922 7921 ] final -159.88 input   -0.00 | X-H torsion
[ 27227 6365 6364 6363 ] final  176.26 input    0.00 | X-H torsion
[ 27230 7788 7787 7786 ] final   95.02 input    0.00 | X-H torsion
[ 27232 7715 7714 7713 ] final  -90.80 input    0.00 | X-H torsion

> <Gold.Protein.ActiveResidues>
 THR404  ILE407  TYR408  ALA410  LYS411  TRP414  GLN425  TRP426  SER427  LYS428 
 LEU429  GLN430  VAL431  PHE432  ASP433  TYR453  SER462  ALA463  ILE464 

> <Gold.Protein.RotatedAtoms>
  196.9165   -9.2065   37.8212 H   0  0  0  0  0  0  0  0  0  0  0  0  # atno 6601 bound_to 6555
  197.9047   -9.9902   40.3288 H   0  0  0  0  0  0  0  0  0  0  0  0  # atno 6689 bound_to 6635
  197.4269   -5.5560   42.0976 H   0  0  0  0  0  0  0  0  0  0  0  0  # atno 6837 bound_to 6784
  196.5567   -6.4740   49.9320 H   0  0  0  0  0  0  0  0  0  0  0  0  # atno 7896 bound_to 7873
  197.5505   -9.6075   51.6378 H   0  0  0  0  0  0  0  0  0  0  0  0  # atno 7900 bound_to 7878
  195.2760   -8.0820   49.5000 H   0  0  0  0  0  0  0  0  0  0  0  0  # atno 7960 bound_to 7920
  193.4429   -7.9017   48.8521 H   0  0  0  0  0  0  0  0  0  0  0  0  # atno 8042 bound_to 8007
  190.1786   -8.9177   47.1655 H   0  0  0  0  0  0  0  0  0  0  0  0  # atno 8121 bound_to 8084
  189.0234   -9.2137   43.3740 H   0  0  0  0  0  0  0  0  0  0  0  0  # atno 8180 bound_to 8150
  188.2248   -7.3478   40.2513 H   0  0  0  0  0  0  0  0  0  0  0  0  # atno 8257 bound_to 8218
  187.7785  -10.1873   37.1579 H   0  0  0  0  0  0  0  0  0  0  0  0  # atno 8319 bound_to 8295
  186.6238  -11.1352   47.4158 H   0  0  0  0  0  0  0  0  0  0  0  0  # atno 9569 bound_to 9518
  188.5836   -5.6354   43.4551 H   0  0  0  0  0  0  0  0  0  0  0  0  # atno 10213 bound_to 10167
  195.1911   -8.9794   37.6376 LP  0  0  0  0  0  0  0  0  0  0  0  0  # atno 27200 bound_to 6555
  195.9685   -7.5879   41.5844 LP  0  0  0  0  0  0  0  0  0  0  0  0  # atno 27201 bound_to 6558
  197.6865   -7.4465   41.7532 LP  0  0  0  0  0  0  0  0  0  0  0  0  # atno 27202 bound_to 6558
  196.4130  -10.4268   48.0522 LP  0  0  0  0  0  0  0  0  0  0  0  0  # atno 27203 bound_to 7876
  194.7597  -10.4514   48.5679 LP  0  0  0  0  0  0  0  0  0  0  0  0  # atno 27204 bound_to 7876
  192.8580   -9.3957   48.1545 LP  0  0  0  0  0  0  0  0  0  0  0  0  # atno 27205 bound_to 8007
  192.8153   -9.0365   45.0168 LP  0  0  0  0  0  0  0  0  0  0  0  0  # atno 27206 bound_to 8010
  191.9701  -10.3753   45.7191 LP  0  0  0  0  0  0  0  0  0  0  0  0  # atno 27207 bound_to 8010
  190.4954   -7.6980   45.9543 LP  0  0  0  0  0  0  0  0  0  0  0  0  # atno 27208 bound_to 8084
  188.8810   -7.0408   42.9059 LP  0  0  0  0  0  0  0  0  0  0  0  0  # atno 27209 bound_to 8087
  188.5210   -7.0472   44.6001 LP  0  0  0  0  0  0  0  0  0  0  0  0  # atno 27210 bound_to 8087
  190.6743   -9.7699   43.2352 LP  0  0  0  0  0  0  0  0  0  0  0  0  # atno 27211 bound_to 8150
  189.6895  -10.9883   40.4968 LP  0  0  0  0  0  0  0  0  0  0  0  0  # atno 27212 bound_to 8153
  188.0864  -10.7932   39.8707 LP  0  0  0  0  0  0  0  0  0  0  0  0  # atno 27213 bound_to 8153
  188.5872   -9.0217   40.5931 LP  0  0  0  0  0  0  0  0  0  0  0  0  # atno 27214 bound_to 8218
  185.7939  -12.4874   47.7782 LP  0  0  0  0  0  0  0  0  0  0  0  0  # atno 27215 bound_to 9518
  185.8667  -11.2585   48.8511 LP  0  0  0  0  0  0  0  0  0  0  0  0  # atno 27216 bound_to 9518
  197.7671   -8.5760   39.3098 LP  0  0  0  0  0  0  0  0  0  0  0  0  # atno 27217 bound_to 6635
  187.5862   -8.4757   37.4758 LP  0  0  0  0  0  0  0  0  0  0  0  0  # atno 27218 bound_to 8295
  188.1845   -7.5204   48.6454 LP  0  0  0  0  0  0  0  0  0  0  0  0  # atno 27219 bound_to 10084
  187.6516   -7.3634   47.0048 LP  0  0  0  0  0  0  0  0  0  0  0  0  # atno 27220 bound_to 10084
  187.4638   -4.5057   44.1833 LP  0  0  0  0  0  0  0  0  0  0  0  0  # atno 27221 bound_to 10167
  187.5610   -6.4058   41.5148 LP  0  0  0  0  0  0  0  0  0  0  0  0  # atno 27222 bound_to 10170
  188.4259   -6.0434   40.0585 LP  0  0  0  0  0  0  0  0  0  0  0  0  # atno 27223 bound_to 10170
  195.6666   -8.9178   50.9880 LP  0  0  0  0  0  0  0  0  0  0  0  0  # atno 27224 bound_to 7920
  191.0995   -7.2169   49.4992 LP  0  0  0  0  0  0  0  0  0  0  0  0  # atno 27225 bound_to 7923
  191.9996   -7.2755   50.9778 LP  0  0  0  0  0  0  0  0  0  0  0  0  # atno 27226 bound_to 7923
  199.2304  -10.4726   38.2204 LP  0  0  0  0  0  0  0  0  0  0  0  0  # atno 27227 bound_to 6365
  198.4165  -11.8117   38.9583 LP  0  0  0  0  0  0  0  0  0  0  0  0  # atno 27228 bound_to 6365
  195.9271   -4.8321   42.6332 LP  0  0  0  0  0  0  0  0  0  0  0  0  # atno 27229 bound_to 6784
  196.7014   -6.1276   47.5503 LP  0  0  0  0  0  0  0  0  0  0  0  0  # atno 27230 bound_to 7788
  195.1908   -6.3135   48.3770 LP  0  0  0  0  0  0  0  0  0  0  0  0  # atno 27231 bound_to 7788
  195.0987   -7.1286   51.4044 LP  0  0  0  0  0  0  0  0  0  0  0  0  # atno 27232 bound_to 7715
  194.0828   -5.7945   50.9708 LP  0  0  0  0  0  0  0  0  0  0  0  0  # atno 27233 bound_to 7715
  198.0478   -6.9463   50.7005 LP  0  0  0  0  0  0  0  0  0  0  0  0  # atno 27234 bound_to 7873
  198.6981   -8.4547   51.5887 LP  0  0  0  0  0  0  0  0  0  0  0  0  # atno 27235 bound_to 7878
  199.1202  -10.0321   51.5741 LP  0  0  0  0  0  0  0  0  0  0  0  0  # atno 27236 bound_to 7878

> <Gold.Score>
     Fitness  S(hb_ext) S(vdw_ext)  S(hb_int)    S(int)      intcor
     25.58       5.45      14.85       0.00      -0.28      -0.76

> <Gold.Goldscore.Fitness>
25.5793

> <Gold.Goldscore.Internal.Vdw>
-0.6661

> <Gold.Goldscore.Internal.Torsion>
-0.3773

> <Gold.Goldscore.External.Vdw>
14.8486

> <Gold.Goldscore.Internal.HBond>
0.0000

> <Gold.Goldscore.External.HBond>
5.4474

> <Gold.Goldscore.Internal.Correction>
-0.7585

> <Gold.Goldscore.Hbonds>
donor molecule, donor type, donor heavy atom, donor atom, acceptor molecule, acceptor atom, score
      P1  H  6792  6848       L1    11  0.07
      P1  H  8084  8121       L1    17  0.01
      L1  H    10    23       P1  8007  0.83

> <Gold.Goldscore.Internal.Vdw.Weighted>
-0.6661

> <Gold.Goldscore.Internal.Torsion.Weighted>
-0.3773

> <Gold.Goldscore.External.Vdw.Weighted>
20.4168

> <Gold.Goldscore.Internal.HBond.Weighted>
0.0000

> <Gold.Goldscore.External.HBond.Weighted>
5.4474

> <Gold.Goldscore.Internal.Correction.Weighted>
-0.7585

> <Gold.Rescore>
     Score     S(PLP)   S(hbond)     S(cho)   S(metal)  DE(clash)   DE(tors)     intcor
     15.95     -14.52       1.31       0.00       0.00       0.00       1.25       ----

> <Gold.PLP.Fitness>
15.9465

> <Gold.PLP.PLP>
-14.5183

> <Gold.PLP.part.hbond>
-2.6023

> <Gold.PLP.part.metal>
0.0000

> <Gold.PLP.part.buried>
-4.3033

> <Gold.PLP.part.nonpolar>
-9.4800

> <Gold.PLP.part.repulsive>
0.4545

> <Gold.PLP.ligand.clash>
0.0000

> <Gold.PLP.ligand.torsion>
1.2483

> <Gold.PLP.Chemscore.Hbond>
1.3083

> <Gold.PLP.Chemscore.CHOScore>
0.0000

> <Gold.PLP.Chemscore.Metal>
0.0000

> <Gold.Chemscore.Hbonds>
donor molecule, donor type, donor heavy atom, donor atom, acceptor molecule, acceptor atom, score
      L1  H    10    23       P1  8007  0.85
      P1  H  6792  6848       L1    11  0.51
      P1  H  8084  8121       L1    17  0.50

> <Gold.PLP.Chemscore.Internal.Correction>
   9.000000E+99

