#       Name:                CT1002167954
#       Creating user name   hitesit
#       Creation time:       Sun Apr 16 20:23:33 2023


#       File generated by GOLD software.
#

@<TRIPOS>MOLECULE
CT1002167954|ligand_prepared|mol2|1|dock1
    29    30     1
SMALL
NO_CHARGES


@<TRIPOS>ATOM
      1 C1         191.3138 -13.8276  44.6668 C.3            1 RES1               0.0000
      2 C2         190.4765 -13.4616  45.9092 C.ar           1 RES1               0.0000
      3 C3         190.5434 -13.2996  43.4601 C.2            1 RES1               0.0000
      4 C4         192.6789 -13.1785  44.8659 C.2            1 RES1               0.0000
      5 C5         191.5298 -15.3481  44.4847 C.3            1 RES1               0.0000
      6 C6         189.5063 -14.3346  46.3922 C.ar           1 RES1               0.0000
      7 C7         190.6642 -12.2578  46.5833 C.ar           1 RES1               0.0000
      8 N8         191.0294 -12.1879  42.8373 N.am           1 RES1               0.0000
      9 O9         189.5037 -13.8273  43.0850 O.2            1 RES1               0.0000
     10 N10        193.0471 -12.1797  44.0030 N.am           1 RES1               0.0000
     11 O11        193.4322 -13.5114  45.7726 O.2            1 RES1               0.0000
     12 C12        192.5712 -15.6978  43.4333 C.3            1 RES1               0.0000
     13 C13        188.7531 -14.0172  47.5104 C.ar           1 RES1               0.0000
     14 C14        189.9098 -11.9423  47.7012 C.ar           1 RES1               0.0000
     15 C15        192.2714 -11.6340  43.0166 C.2            1 RES1               0.0000
     16 C16        188.9546 -12.8212  48.1658 C.ar           1 RES1               0.0000
     17 O17        192.6526 -10.7003  42.3165 O.2            1 RES1               0.0000
     18 H18        191.8393 -15.7782  45.4451 H              1 RES1               0.0000
     19 H19        190.5751 -15.8091  44.2029 H              1 RES1               0.0000
     20 H20        189.3319 -15.2793  45.8881 H              1 RES1               0.0000
     21 H21        191.4093 -11.5506  46.2350 H              1 RES1               0.0000
     22 H22        190.4122 -11.7256  42.1773 H              1 RES1               0.0000
     23 H23        193.9863 -11.8088  44.1052 H              1 RES1               0.0000
     24 H24        192.6836 -16.7764  43.3457 H              1 RES1               0.0000
     25 H25        192.2829 -15.3069  42.4598 H              1 RES1               0.0000
     26 H26        193.5396 -15.2763  43.6946 H              1 RES1               0.0000
     27 H27        188.0017 -14.7117  47.8712 H              1 RES1               0.0000
     28 H28        190.0713 -10.9996  48.2135 H              1 RES1               0.0000
     29 H29        188.3647 -12.5729  49.0420 H              1 RES1               0.0000
@<TRIPOS>BOND
    1    1    2 1     
    2    1    3 1     
    3    1    4 1     
    4    1    5 1     
    5    2    6 ar    
    6    2    7 ar    
    7    3    8 1     
    8    3    9 2     
    9    4   10 1     
   10    4   11 2     
   11    5   12 1     
   12    5   18 1     
   13    5   19 1     
   14    6   13 ar    
   15    6   20 1     
   16    7   14 ar    
   17    7   21 1     
   18    8   15 1     
   19    8   22 1     
   20   10   15 1     
   21   10   23 1     
   22   12   24 1     
   23   12   25 1     
   24   12   26 1     
   25   13   16 ar    
   26   13   27 1     
   27   14   16 ar    
   28   14   28 1     
   29   15   17 2     
   30   16   29 1     
@<TRIPOS>SUBSTRUCTURE
      1 RES1           1
@<TRIPOS>SET
DONOR_HYDROGENS      STATIC     ATOMS    <user>   **** ""
2 22 23
ATOM$RED        STATIC     ATOMS    COLORGROUP SYSTEM
2 22 23
@<TRIPOS>COMMENT
> <Gold.Version>
2022.3.0

> <Gold.Id.Protein>
unknown|4v3u_clean|pdb

> <Gold.Protein.RotatedTorsions>
[ 6601 6555 6556 6557 ] final  -17.26 input  119.23 | X-H torsion
[ 8042 8007 8008 8009 ] final  -78.61 input   55.11 | X-H torsion
[ 8121 8084 8085 8086 ] final    7.43 input   97.66 | X-H torsion
[ 8180 8150 8151 8152 ] final -144.15 input   74.82 | X-H torsion
[ 8257 8218 8219 8220 ] final  -27.64 input   76.36 | X-H torsion
[ 9569 9518 9517 9515 ] final  121.50 input   59.97 | X-H torsion
[ 6689 6635 6636 6637 ] final  -59.21 input  125.14 | X-H torsion
[ 8319 8295 8296 8297 ] final  -44.25 input   97.98 | X-H torsion
[ 10213 10167 10168 10169 ] final   77.95 input   38.66 | X-H torsion
[ 7960 7920 7921 7922 ] final    4.22 input   85.79 | X-H torsion
[ 6837 6784 6785 6786 ] final -162.86 input  126.65 | X-H torsion
[ 7896 7873 7874 7875 ] final   59.68 input  103.19 | X-H torsion
[ 7900 7878 7877 7874 ] final   51.70 input   60.02 | X-H torsion
[ 27201 6558 6557 6556 ] final -155.96 input    0.00 | X-H torsion
[ 27203 7876 7875 7874 ] final  129.69 input   -0.00 | X-H torsion
[ 27206 8010 8009 8008 ] final   73.62 input    0.00 | X-H torsion
[ 27209 8087 8086 8085 ] final  -19.61 input    0.00 | X-H torsion
[ 27212 8153 8152 8151 ] final   14.63 input   -0.00 | X-H torsion
[ 27219 10084 10083 10082 ] final  -10.74 input    0.00 | X-H torsion
[ 27222 10170 10169 10168 ] final    3.03 input    0.00 | X-H torsion
[ 27225 7923 7922 7921 ] final  113.32 input   -0.00 | X-H torsion
[ 27227 6365 6364 6363 ] final -106.48 input    0.00 | X-H torsion
[ 27230 7788 7787 7786 ] final  155.11 input    0.00 | X-H torsion
[ 27232 7715 7714 7713 ] final  -10.01 input    0.00 | X-H torsion

> <Gold.Protein.ActiveResidues>
 THR404  ILE407  TYR408  ALA410  LYS411  TRP414  GLN425  TRP426  SER427  LYS428 
 LEU429  GLN430  VAL431  PHE432  ASP433  TYR453  SER462  ALA463  ILE464 

> <Gold.Protein.RotatedAtoms>
  196.6738   -8.4817   37.8577 H   0  0  0  0  0  0  0  0  0  0  0  0  # atno 6601 bound_to 6555
  197.3546   -8.7941   40.3819 H   0  0  0  0  0  0  0  0  0  0  0  0  # atno 6689 bound_to 6635
  195.9057   -5.5754   42.6150 H   0  0  0  0  0  0  0  0  0  0  0  0  # atno 6837 bound_to 6784
  197.0699   -7.1017   51.0633 H   0  0  0  0  0  0  0  0  0  0  0  0  # atno 7896 bound_to 7873
  197.5362   -9.5459   51.6382 H   0  0  0  0  0  0  0  0  0  0  0  0  # atno 7900 bound_to 7878
  195.1874   -7.8129   49.7787 H   0  0  0  0  0  0  0  0  0  0  0  0  # atno 7960 bound_to 7920
  192.4121   -8.8843   48.9443 H   0  0  0  0  0  0  0  0  0  0  0  0  # atno 8042 bound_to 8007
  190.3879   -7.6349   45.9723 H   0  0  0  0  0  0  0  0  0  0  0  0  # atno 8121 bound_to 8084
  190.0704   -8.7266   43.6862 H   0  0  0  0  0  0  0  0  0  0  0  0  # atno 8180 bound_to 8150
  189.0347   -8.1971   39.8033 H   0  0  0  0  0  0  0  0  0  0  0  0  # atno 8257 bound_to 8218
  187.1160   -8.6299   37.2501 H   0  0  0  0  0  0  0  0  0  0  0  0  # atno 8319 bound_to 8295
  186.6053  -11.2829   47.3067 H   0  0  0  0  0  0  0  0  0  0  0  0  # atno 9569 bound_to 9518
  188.7215   -5.5317   43.5621 H   0  0  0  0  0  0  0  0  0  0  0  0  # atno 10213 bound_to 10167
  195.4264   -9.6821   37.6022 LP  0  0  0  0  0  0  0  0  0  0  0  0  # atno 27200 bound_to 6555
  197.6267   -7.2135   41.5307 LP  0  0  0  0  0  0  0  0  0  0  0  0  # atno 27201 bound_to 6558
  196.0283   -7.8209   41.8068 LP  0  0  0  0  0  0  0  0  0  0  0  0  # atno 27202 bound_to 6558
  195.3067  -10.9229   48.9717 LP  0  0  0  0  0  0  0  0  0  0  0  0  # atno 27203 bound_to 7876
  195.8660   -9.9553   47.6485 LP  0  0  0  0  0  0  0  0  0  0  0  0  # atno 27204 bound_to 7876
  193.8584   -8.4421   48.0650 LP  0  0  0  0  0  0  0  0  0  0  0  0  # atno 27205 bound_to 8007
  192.5336  -10.1769   46.0808 LP  0  0  0  0  0  0  0  0  0  0  0  0  # atno 27206 bound_to 8010
  192.2517   -9.2348   44.6550 LP  0  0  0  0  0  0  0  0  0  0  0  0  # atno 27207 bound_to 8010
  190.2911   -8.9504   47.1190 LP  0  0  0  0  0  0  0  0  0  0  0  0  # atno 27208 bound_to 8084
  188.2582   -7.1665   44.4871 LP  0  0  0  0  0  0  0  0  0  0  0  0  # atno 27209 bound_to 8087
  189.1438   -6.9215   43.0188 LP  0  0  0  0  0  0  0  0  0  0  0  0  # atno 27210 bound_to 8087
  189.6519  -10.2457   42.9303 LP  0  0  0  0  0  0  0  0  0  0  0  0  # atno 27211 bound_to 8150
  189.4075  -11.0630   40.8549 LP  0  0  0  0  0  0  0  0  0  0  0  0  # atno 27212 bound_to 8153
  188.3684  -10.7186   39.5126 LP  0  0  0  0  0  0  0  0  0  0  0  0  # atno 27213 bound_to 8153
  187.7937   -8.1895   41.0321 LP  0  0  0  0  0  0  0  0  0  0  0  0  # atno 27214 bound_to 8218
  185.7134  -12.4849   47.9457 LP  0  0  0  0  0  0  0  0  0  0  0  0  # atno 27215 bound_to 9518
  185.9658  -11.1122   48.7934 LP  0  0  0  0  0  0  0  0  0  0  0  0  # atno 27216 bound_to 9518
  198.3027   -9.7406   39.2581 LP  0  0  0  0  0  0  0  0  0  0  0  0  # atno 27217 bound_to 6635
  188.2254   -9.9783   37.3869 LP  0  0  0  0  0  0  0  0  0  0  0  0  # atno 27218 bound_to 8295
  188.1949   -7.5194   48.6420 LP  0  0  0  0  0  0  0  0  0  0  0  0  # atno 27219 bound_to 10084
  187.6412   -7.3644   47.0082 LP  0  0  0  0  0  0  0  0  0  0  0  0  # atno 27220 bound_to 10084
  187.3300   -4.6063   44.0795 LP  0  0  0  0  0  0  0  0  0  0  0  0  # atno 27221 bound_to 10167
  188.3798   -6.2966   41.5584 LP  0  0  0  0  0  0  0  0  0  0  0  0  # atno 27222 bound_to 10170
  187.6071   -6.1526   40.0149 LP  0  0  0  0  0  0  0  0  0  0  0  0  # atno 27223 bound_to 10170
  195.7522   -9.1779   50.7186 LP  0  0  0  0  0  0  0  0  0  0  0  0  # atno 27224 bound_to 7920
  191.9884   -6.5611   49.9419 LP  0  0  0  0  0  0  0  0  0  0  0  0  # atno 27225 bound_to 7923
  191.1107   -7.9314   50.5351 LP  0  0  0  0  0  0  0  0  0  0  0  0  # atno 27226 bound_to 7923
  198.1746  -10.5943   38.4194 LP  0  0  0  0  0  0  0  0  0  0  0  0  # atno 27227 bound_to 6365
  199.4723  -11.6900   38.7592 LP  0  0  0  0  0  0  0  0  0  0  0  0  # atno 27228 bound_to 6365
  197.4040   -4.8132   42.1309 LP  0  0  0  0  0  0  0  0  0  0  0  0  # atno 27229 bound_to 6784
  196.4197   -6.9185   47.7674 LP  0  0  0  0  0  0  0  0  0  0  0  0  # atno 27230 bound_to 7788
  195.4725   -5.5226   48.1599 LP  0  0  0  0  0  0  0  0  0  0  0  0  # atno 27231 bound_to 7788
  194.1773   -6.7242   51.9018 LP  0  0  0  0  0  0  0  0  0  0  0  0  # atno 27232 bound_to 7715
  195.0042   -6.1989   50.4734 LP  0  0  0  0  0  0  0  0  0  0  0  0  # atno 27233 bound_to 7715
  197.5379   -6.3227   49.5763 LP  0  0  0  0  0  0  0  0  0  0  0  0  # atno 27234 bound_to 7873
  198.7589   -8.4732   51.5862 LP  0  0  0  0  0  0  0  0  0  0  0  0  # atno 27235 bound_to 7878
  199.0737  -10.0755   51.5762 LP  0  0  0  0  0  0  0  0  0  0  0  0  # atno 27236 bound_to 7878

> <Gold.Score>
     Fitness  S(hb_ext) S(vdw_ext)  S(hb_int)    S(int)      intcor
     30.73       6.08      18.36       0.00      -0.59      -0.81

> <Gold.Goldscore.Fitness>
30.7334

> <Gold.Goldscore.Internal.Vdw>
-0.8286

> <Gold.Goldscore.Internal.Torsion>
-0.5664

> <Gold.Goldscore.External.Vdw>
18.3565

> <Gold.Goldscore.Internal.HBond>
0.0000

> <Gold.Goldscore.External.HBond>
6.0809

> <Gold.Goldscore.Internal.Correction>
-0.8073

> <Gold.Goldscore.Hbonds>
donor molecule, donor type, donor heavy atom, donor atom, acceptor molecule, acceptor atom, score
      P1  H  6792  6848       L1    11  0.82
      P1  H  8091  8119       L1     9  0.01
      L1  H     8    22       P1  8153  0.56

> <Gold.Goldscore.Internal.Vdw.Weighted>
-0.8286

> <Gold.Goldscore.Internal.Torsion.Weighted>
-0.5664

> <Gold.Goldscore.External.Vdw.Weighted>
25.2401

> <Gold.Goldscore.Internal.HBond.Weighted>
0.0000

> <Gold.Goldscore.External.HBond.Weighted>
6.0809

> <Gold.Goldscore.Internal.Correction.Weighted>
-0.8073

> <Gold.Rescore>
     Score     S(PLP)   S(hbond)     S(cho)   S(metal)  DE(clash)   DE(tors)     intcor
     22.88     -22.14       0.88       0.00       0.00       0.00       0.95       ----

> <Gold.PLP.Fitness>
22.8786

> <Gold.PLP.PLP>
-22.1390

> <Gold.PLP.part.hbond>
-3.7203

> <Gold.PLP.part.metal>
0.0000

> <Gold.PLP.part.buried>
-4.3973

> <Gold.PLP.part.nonpolar>
-14.9210

> <Gold.PLP.part.repulsive>
0.5403

> <Gold.PLP.ligand.clash>
0.0000

> <Gold.PLP.ligand.torsion>
0.9502

> <Gold.PLP.Chemscore.Hbond>
0.8800

> <Gold.PLP.Chemscore.CHOScore>
0.0000

> <Gold.PLP.Chemscore.Metal>
0.0000

> <Gold.Chemscore.Hbonds>
donor molecule, donor type, donor heavy atom, donor atom, acceptor molecule, acceptor atom, score
      P1  H  6792  6848       L1    11  0.15
      P1  H  8091  8119       L1     9  0.54

> <Gold.PLP.Chemscore.Internal.Correction>
   9.000000E+99

