#       Name:                CT1002167954
#       Creating user name   hitesit
#       Creation time:       Sun Apr 16 20:23:34 2023


#       File generated by GOLD software.
#

@<TRIPOS>MOLECULE
CT1002167954|ligand_prepared|mol2|1|dock4
    29    30     1
SMALL
NO_CHARGES


@<TRIPOS>ATOM
      1 C1         190.0667 -11.9371  50.2938 C.3            1 RES1               0.0000
      2 C2         189.6235 -10.5262  50.7317 C.ar           1 RES1               0.0000
      3 C3         189.2968 -12.2501  49.0141 C.2            1 RES1               0.0000
      4 C4         191.5788 -11.8714  50.1098 C.2            1 RES1               0.0000
      5 C5         189.7594 -13.0395  51.3340 C.3            1 RES1               0.0000
      6 C6         189.9014 -10.0623  52.0140 C.ar           1 RES1               0.0000
      7 C7         188.9395  -9.6776  49.8652 C.ar           1 RES1               0.0000
      8 N8         189.9862 -12.2169  47.8379 N.am           1 RES1               0.0000
      9 O9         188.0946 -12.4837  49.0326 O.2            1 RES1               0.0000
     10 N10        192.0798 -12.0409  48.8457 N.am           1 RES1               0.0000
     11 O11        192.3398 -11.6577  51.0455 O.2            1 RES1               0.0000
     12 C12        190.0403 -14.4483  50.8355 C.3            1 RES1               0.0000
     13 C13        189.5123  -8.7948  52.4147 C.ar           1 RES1               0.0000
     14 C14        188.5512  -8.4106  50.2680 C.ar           1 RES1               0.0000
     15 C15        191.3501 -12.1801  47.6966 C.2            1 RES1               0.0000
     16 C16        188.8374  -7.9681  51.5420 C.ar           1 RES1               0.0000
     17 O17        191.8722 -12.2730  46.5893 O.2            1 RES1               0.0000
     18 H18        190.3624 -12.8557  52.2318 H              1 RES1               0.0000
     19 H19        188.7026 -12.9704  51.6200 H              1 RES1               0.0000
     20 H20        190.4294 -10.6996  52.7154 H              1 RES1               0.0000
     21 H21        188.7026 -10.0050  48.8586 H              1 RES1               0.0000
     22 H22        189.4368 -12.2196  46.9844 H              1 RES1               0.0000
     23 H23        193.0902 -12.0658  48.7527 H              1 RES1               0.0000
     24 H24        189.8079 -15.1828  51.6037 H              1 RES1               0.0000
     25 H25        189.4385 -14.6740  49.9576 H              1 RES1               0.0000
     26 H26        191.0885 -14.5601  50.5658 H              1 RES1               0.0000
     27 H27        189.7388  -8.4518  53.4188 H              1 RES1               0.0000
     28 H28        188.0197  -7.7635  49.5781 H              1 RES1               0.0000
     29 H29        188.5331  -6.9751  51.8560 H              1 RES1               0.0000
@<TRIPOS>BOND
    1    1    2 1     
    2    1    3 1     
    3    1    4 1     
    4    1    5 1     
    5    2    6 ar    
    6    2    7 ar    
    7    3    8 1     
    8    3    9 2     
    9    4   10 1     
   10    4   11 2     
   11    5   12 1     
   12    5   18 1     
   13    5   19 1     
   14    6   13 ar    
   15    6   20 1     
   16    7   14 ar    
   17    7   21 1     
   18    8   15 1     
   19    8   22 1     
   20   10   15 1     
   21   10   23 1     
   22   12   24 1     
   23   12   25 1     
   24   12   26 1     
   25   13   16 ar    
   26   13   27 1     
   27   14   16 ar    
   28   14   28 1     
   29   15   17 2     
   30   16   29 1     
@<TRIPOS>SUBSTRUCTURE
      1 RES1           1
@<TRIPOS>SET
DONOR_HYDROGENS      STATIC     ATOMS    <user>   **** ""
2 22 23
ATOM$RED        STATIC     ATOMS    COLORGROUP SYSTEM
2 22 23
@<TRIPOS>COMMENT
> <Gold.Version>
2022.3.0

> <Gold.Id.Protein>
unknown|4v3u_clean|pdb

> <Gold.Protein.RotatedTorsions>
[ 6601 6555 6556 6557 ] final -172.26 input  119.23 | X-H torsion
[ 8042 8007 8008 8009 ] final -162.63 input   55.11 | X-H torsion
[ 8121 8084 8085 8086 ] final  -27.02 input   97.66 | X-H torsion
[ 8180 8150 8151 8152 ] final  -86.48 input   74.82 | X-H torsion
[ 8257 8218 8219 8220 ] final -100.70 input   76.36 | X-H torsion
[ 9569 9518 9517 9515 ] final  -86.34 input   59.97 | X-H torsion
[ 6689 6635 6636 6637 ] final -138.36 input  125.14 | X-H torsion
[ 8319 8295 8296 8297 ] final   49.03 input   97.98 | X-H torsion
[ 10213 10167 10168 10169 ] final  113.13 input   38.66 | X-H torsion
[ 7960 7920 7921 7922 ] final  138.69 input   85.79 | X-H torsion
[ 6837 6784 6785 6786 ] final -174.81 input  126.65 | X-H torsion
[ 7896 7873 7874 7875 ] final  123.07 input  103.19 | X-H torsion
[ 7900 7878 7877 7874 ] final -102.04 input   60.02 | X-H torsion
[ 27201 6558 6557 6556 ] final -107.80 input    0.00 | X-H torsion
[ 27203 7876 7875 7874 ] final  -98.62 input   -0.00 | X-H torsion
[ 27206 8010 8009 8008 ] final  106.35 input    0.00 | X-H torsion
[ 27209 8087 8086 8085 ] final   29.59 input    0.00 | X-H torsion
[ 27212 8153 8152 8151 ] final  139.06 input   -0.00 | X-H torsion
[ 27219 10084 10083 10082 ] final  -14.67 input    0.00 | X-H torsion
[ 27222 10170 10169 10168 ] final  160.89 input    0.00 | X-H torsion
[ 27225 7923 7922 7921 ] final  122.73 input   -0.00 | X-H torsion
[ 27227 6365 6364 6363 ] final -173.63 input    0.00 | X-H torsion
[ 27230 7788 7787 7786 ] final -122.03 input    0.00 | X-H torsion
[ 27232 7715 7714 7713 ] final   91.15 input    0.00 | X-H torsion

> <Gold.Protein.ActiveResidues>
 THR404  ILE407  TYR408  ALA410  LYS411  TRP414  GLN425  TRP426  SER427  LYS428 
 LEU429  GLN430  VAL431  PHE432  ASP433  TYR453  SER462  ALA463  ILE464 

> <Gold.Protein.RotatedAtoms>
  195.2048   -9.3740   37.6219 H   0  0  0  0  0  0  0  0  0  0  0  0  # atno 6601 bound_to 6555
  197.7619   -9.8415   40.4887 H   0  0  0  0  0  0  0  0  0  0  0  0  # atno 6689 bound_to 6635
  195.9952   -5.7322   42.5757 H   0  0  0  0  0  0  0  0  0  0  0  0  # atno 6837 bound_to 6784
  197.9522   -6.9928   50.8325 H   0  0  0  0  0  0  0  0  0  0  0  0  # atno 7896 bound_to 7873
  199.1974   -8.7968   51.5659 H   0  0  0  0  0  0  0  0  0  0  0  0  # atno 7900 bound_to 7878
  195.5582   -8.6726   51.1275 H   0  0  0  0  0  0  0  0  0  0  0  0  # atno 7960 bound_to 7920
  193.1576   -7.9649   49.0504 H   0  0  0  0  0  0  0  0  0  0  0  0  # atno 8042 bound_to 8007
  190.8130   -7.9329   45.9027 H   0  0  0  0  0  0  0  0  0  0  0  0  # atno 8121 bound_to 8084
  189.2483   -8.9011   43.5413 H   0  0  0  0  0  0  0  0  0  0  0  0  # atno 8180 bound_to 8150
  188.7563   -9.0036   40.4157 H   0  0  0  0  0  0  0  0  0  0  0  0  # atno 8257 bound_to 8218
  187.0977   -9.8966   36.9763 H   0  0  0  0  0  0  0  0  0  0  0  0  # atno 8319 bound_to 8295
  185.7110  -11.5605   48.8646 H   0  0  0  0  0  0  0  0  0  0  0  0  # atno 9569 bound_to 9518
  188.8958   -5.1505   43.8972 H   0  0  0  0  0  0  0  0  0  0  0  0  # atno 10213 bound_to 10167
  196.8505   -8.8170   37.8308 LP  0  0  0  0  0  0  0  0  0  0  0  0  # atno 27200 bound_to 6555
  197.1259   -6.8909   41.1504 LP  0  0  0  0  0  0  0  0  0  0  0  0  # atno 27201 bound_to 6558
  196.5291   -8.1435   42.1871 LP  0  0  0  0  0  0  0  0  0  0  0  0  # atno 27202 bound_to 6558
  195.1722   -9.8942   47.7794 LP  0  0  0  0  0  0  0  0  0  0  0  0  # atno 27203 bound_to 7876
  196.0005  -10.9840   48.8407 LP  0  0  0  0  0  0  0  0  0  0  0  0  # atno 27204 bound_to 7876
  193.1350   -9.3344   47.9620 LP  0  0  0  0  0  0  0  0  0  0  0  0  # atno 27205 bound_to 8007
  192.1319  -10.3597   45.8725 LP  0  0  0  0  0  0  0  0  0  0  0  0  # atno 27206 bound_to 8010
  192.6534   -9.0521   44.8634 LP  0  0  0  0  0  0  0  0  0  0  0  0  # atno 27207 bound_to 8010
  189.8761   -8.6594   47.1870 LP  0  0  0  0  0  0  0  0  0  0  0  0  # atno 27208 bound_to 8084
  188.9157   -6.8845   44.5766 LP  0  0  0  0  0  0  0  0  0  0  0  0  # atno 27209 bound_to 8087
  188.4863   -7.2035   42.9293 LP  0  0  0  0  0  0  0  0  0  0  0  0  # atno 27210 bound_to 8087
  190.4546  -10.0752   43.0719 LP  0  0  0  0  0  0  0  0  0  0  0  0  # atno 27211 bound_to 8150
  188.0231  -10.8739   40.2258 LP  0  0  0  0  0  0  0  0  0  0  0  0  # atno 27212 bound_to 8153
  189.7528  -10.9077   40.1417 LP  0  0  0  0  0  0  0  0  0  0  0  0  # atno 27213 bound_to 8153
  188.0665   -7.3993   40.4321 LP  0  0  0  0  0  0  0  0  0  0  0  0  # atno 27214 bound_to 8218
  186.6094  -10.9125   47.6724 LP  0  0  0  0  0  0  0  0  0  0  0  0  # atno 27215 bound_to 9518
  185.9704  -12.4052   47.4980 LP  0  0  0  0  0  0  0  0  0  0  0  0  # atno 27216 bound_to 9518
  197.9062   -8.7209   39.1542 LP  0  0  0  0  0  0  0  0  0  0  0  0  # atno 27217 bound_to 6635
  188.2431   -8.7561   37.6510 LP  0  0  0  0  0  0  0  0  0  0  0  0  # atno 27218 bound_to 8295
  188.2504   -7.5138   48.6216 LP  0  0  0  0  0  0  0  0  0  0  0  0  # atno 27219 bound_to 10084
  187.5857   -7.3700   47.0286 LP  0  0  0  0  0  0  0  0  0  0  0  0  # atno 27220 bound_to 10084
  187.1610   -4.9761   43.7544 LP  0  0  0  0  0  0  0  0  0  0  0  0  # atno 27221 bound_to 10167
  187.3470   -6.2217   40.2104 LP  0  0  0  0  0  0  0  0  0  0  0  0  # atno 27222 bound_to 10170
  188.6399   -6.2275   41.3629 LP  0  0  0  0  0  0  0  0  0  0  0  0  # atno 27223 bound_to 10170
  195.3939   -8.3470   49.4151 LP  0  0  0  0  0  0  0  0  0  0  0  0  # atno 27224 bound_to 7920
  191.9048   -6.5718   49.8275 LP  0  0  0  0  0  0  0  0  0  0  0  0  # atno 27225 bound_to 7923
  191.1944   -7.9207   50.6495 LP  0  0  0  0  0  0  0  0  0  0  0  0  # atno 27226 bound_to 7923
  199.0912  -10.4110   38.2102 LP  0  0  0  0  0  0  0  0  0  0  0  0  # atno 27227 bound_to 6365
  198.5556  -11.8732   38.9685 LP  0  0  0  0  0  0  0  0  0  0  0  0  # atno 27228 bound_to 6365
  197.3171   -4.6610   42.1691 LP  0  0  0  0  0  0  0  0  0  0  0  0  # atno 27229 bound_to 6784
  195.4107   -6.8121   48.3004 LP  0  0  0  0  0  0  0  0  0  0  0  0  # atno 27230 bound_to 7788
  196.4815   -5.6290   47.6269 LP  0  0  0  0  0  0  0  0  0  0  0  0  # atno 27231 bound_to 7788
  194.1001   -5.7895   50.9475 LP  0  0  0  0  0  0  0  0  0  0  0  0  # atno 27232 bound_to 7715
  195.0814   -7.1336   51.4277 LP  0  0  0  0  0  0  0  0  0  0  0  0  # atno 27233 bound_to 7715
  196.6612   -6.4308   49.8056 LP  0  0  0  0  0  0  0  0  0  0  0  0  # atno 27234 bound_to 7873
  198.5753  -10.3003   51.5979 LP  0  0  0  0  0  0  0  0  0  0  0  0  # atno 27235 bound_to 7878
  197.5846   -9.0027   51.6373 LP  0  0  0  0  0  0  0  0  0  0  0  0  # atno 27236 bound_to 7878

> <Gold.Score>
     Fitness  S(hb_ext) S(vdw_ext)  S(hb_int)    S(int)      intcor
     30.38       6.00      18.66       0.00      -1.27      -0.76

> <Gold.Goldscore.Fitness>
30.3850

> <Gold.Goldscore.Internal.Vdw>
-1.5768

> <Gold.Goldscore.Internal.Torsion>
-0.4500

> <Gold.Goldscore.External.Vdw>
18.6569

> <Gold.Goldscore.Internal.HBond>
0.0000

> <Gold.Goldscore.External.HBond>
6.0000

> <Gold.Goldscore.Internal.Correction>
-0.7585

> <Gold.Goldscore.Hbonds>
donor molecule, donor type, donor heavy atom, donor atom, acceptor molecule, acceptor atom, score
      L1  H     8    22       P1  8092  1.00

> <Gold.Goldscore.Internal.Vdw.Weighted>
-1.5768

> <Gold.Goldscore.Internal.Torsion.Weighted>
-0.4500

> <Gold.Goldscore.External.Vdw.Weighted>
25.6532

> <Gold.Goldscore.Internal.HBond.Weighted>
0.0000

> <Gold.Goldscore.External.HBond.Weighted>
6.0000

> <Gold.Goldscore.Internal.Correction.Weighted>
-0.7585

> <Gold.Rescore>
     Score     S(PLP)   S(hbond)     S(cho)   S(metal)  DE(clash)   DE(tors)     intcor
     33.34     -31.95       1.00       0.00       0.00       0.74       0.44       ----

> <Gold.PLP.Fitness>
33.3416

> <Gold.PLP.PLP>
-31.9540

> <Gold.PLP.part.hbond>
-1.6760

> <Gold.PLP.part.metal>
0.0000

> <Gold.PLP.part.buried>
-5.7022

> <Gold.PLP.part.nonpolar>
-25.2013

> <Gold.PLP.part.repulsive>
0.3820

> <Gold.PLP.ligand.clash>
0.7383

> <Gold.PLP.ligand.torsion>
0.4371

> <Gold.PLP.Chemscore.Hbond>
1.0000

> <Gold.PLP.Chemscore.CHOScore>
0.0000

> <Gold.PLP.Chemscore.Metal>
0.0000

> <Gold.Chemscore.Hbonds>
donor molecule, donor type, donor heavy atom, donor atom, acceptor molecule, acceptor atom, score
      L1  H     8    22       P1  8092  0.73

> <Gold.PLP.Chemscore.Internal.Correction>
   9.000000E+99

