@<TRIPOS>MOLECULE
C:GOL805
    14    13     1     0     1
SMALL
NO_CHARGES
****
Generated from the CSD

@<TRIPOS>ATOM
     1 C1     223.1110 342.1590 -107.9100   C.3       1 GOL805   0.0000
     2 O1     222.2560 343.2390 -107.6030   O.3       1 GOL805   0.0000
     3 C2     224.1320 342.0410 -106.7880   C.3       1 GOL805   0.0000
     4 O2     225.1810 341.1460 -107.1210   O.3       1 GOL805   0.0000
     5 C3     223.3930 341.6490 -105.5160   C.3       1 GOL805   0.0000
     6 O3     222.1570 342.3270 -105.4730   O.3       1 GOL805   0.0000
     7 H1     223.6189 342.3456 -108.8550   H         1 GOL805   0.0000
     8 H2     222.5335 341.2387 -107.9838   H         1 GOL805   0.0000
     9 H3     221.6141 342.0760 -106.2656   H         1 GOL805   0.0000
    10 H4     223.9902 341.9239 -104.6478   H         1 GOL805   0.0000
    11 H5     223.2196 340.5739 -105.5116   H         1 GOL805   0.0000
    12 H6     225.6484 341.4718 -107.9343   H         1 GOL805   0.0000
    13 H7     224.5701 343.0254 -106.6300   H         1 GOL805   0.0000
    14 H8     222.7892 344.0738 -107.5331   H         1 GOL805   0.0000
@<TRIPOS>BOND
     1     1     2    1
     2     1     3    1
     3     3     4    1
     4     3     5    1
     5     5     6    1
     6     1     7    1
     7     1     8    1
     8     6     9    1
     9     5    10    1
    10     5    11    1
    11     4    12    1
    12     3    13    1
    13     2    14    1
@<TRIPOS>SUBSTRUCTURE
     1 GOL805      1 GROUP             0 C     GOL     0  
@<TRIPOS>SET
CCDC_LIGAND STATIC ATOMS
14 1 2 3 4 5 6 7 8 9 \
10 11 12 13 14 
