@<TRIPOS>MOLECULE
C:GOL804
    14    13     1     0     1
SMALL
NO_CHARGES
****
Generated from the CSD

@<TRIPOS>ATOM
     1 C1     226.3860 355.9060 -95.1250   C.3       1 GOL804   0.0000
     2 O1     225.0700 356.1260 -94.6570   O.3       1 GOL804   0.0000
     3 C2     227.4200 356.1590 -94.0250   C.3       1 GOL804   0.0000
     4 O2     227.1480 357.3690 -93.3610   O.3       1 GOL804   0.0000
     5 C3     228.8310 356.1830 -94.6170   C.3       1 GOL804   0.0000
     6 O3     229.6740 357.1620 -94.0490   O.3       1 GOL804   0.0000
     7 H1     226.5830 356.5793 -95.9579   H         1 GOL804   0.0000
     8 H2     226.4739 354.8746 -95.4633   H         1 GOL804   0.0000
     9 H3     229.7673 356.9936 -93.0748   H         1 GOL804   0.0000
    10 H4     224.9804 357.0664 -94.3509   H         1 GOL804   0.0000
    11 H5     226.2449 357.3255 -92.9505   H         1 GOL804   0.0000
    12 H6     228.7511 356.3778 -95.6855   H         1 GOL804   0.0000
    13 H7     229.2855 355.2061 -94.4591   H         1 GOL804   0.0000
    14 H8     227.3618 355.3468 -93.3019   H         1 GOL804   0.0000
@<TRIPOS>BOND
     1     1     2    1
     2     1     3    1
     3     3     4    1
     4     3     5    1
     5     5     6    1
     6     1     7    1
     7     1     8    1
     8     6     9    1
     9     2    10    1
    10     4    11    1
    11     5    12    1
    12     5    13    1
    13     3    14    1
@<TRIPOS>SUBSTRUCTURE
     1 GOL804      1 GROUP             0 C     GOL     0  
@<TRIPOS>SET
CCDC_LIGAND STATIC ATOMS
14 1 2 3 4 5 6 7 8 9 \
10 11 12 13 14 
