@<TRIPOS>MOLECULE
A:GOL805
    14    13     1     0     1
SMALL
NO_CHARGES
****
Generated from the CSD

@<TRIPOS>ATOM
     1 C1     248.8650 363.7190 -67.9850   C.3       1 GOL805   0.0000
     2 O1     248.4260 362.3700 -68.0340   O.3       1 GOL805   0.0000
     3 C2     249.8090 364.0030 -69.1540   C.3       1 GOL805   0.0000
     4 O2     250.8780 364.8790 -68.8140   O.3       1 GOL805   0.0000
     5 C3     248.9770 364.5070 -70.3200   C.3       1 GOL805   0.0000
     6 O3     247.7400 363.8280 -70.2750   O.3       1 GOL805   0.0000
     7 H1     251.4178 364.4751 -68.0850   H         1 GOL805   0.0000
     8 H2     247.2869 364.0223 -69.4130   H         1 GOL805   0.0000
     9 H3     249.4849 364.2952 -71.2598   H         1 GOL805   0.0000
    10 H4     248.8170 365.5802 -70.2277   H         1 GOL805   0.0000
    11 H5     250.2494 363.0535 -69.4548   H         1 GOL805   0.0000
    12 H6     249.3895 363.8940 -67.0468   H         1 GOL805   0.0000
    13 H7     248.0030 364.3815 -68.0480   H         1 GOL805   0.0000
    14 H8     249.2107 361.7642 -67.9755   H         1 GOL805   0.0000
@<TRIPOS>BOND
     1     1     2    1
     2     1     3    1
     3     3     4    1
     4     3     5    1
     5     5     6    1
     6     4     7    1
     7     6     8    1
     8     5     9    1
     9     5    10    1
    10     3    11    1
    11     1    12    1
    12     1    13    1
    13     2    14    1
@<TRIPOS>SUBSTRUCTURE
     1 GOL805      1 GROUP             0 A     GOL     0  
@<TRIPOS>SET
CCDC_LIGAND STATIC ATOMS
14 1 2 3 4 5 6 7 8 9 \
10 11 12 13 14 
