@<TRIPOS>MOLECULE
A:GOL804
    14    13     1     0     1
SMALL
NO_CHARGES
****
Generated from the CSD

@<TRIPOS>ATOM
     1 C1     252.4220 349.9240 -82.3730   C.3       1 GOL804   0.0000
     2 O1     253.5800 349.6870 -81.5950   O.3       1 GOL804   0.0000
     3 C2     251.3550 350.6400 -81.5450   C.3       1 GOL804   0.0000
     4 O2     251.7040 350.6990 -80.1770   O.3       1 GOL804   0.0000
     5 C3     250.0000 349.9560 -81.6630   C.3       1 GOL804   0.0000
     6 O3     249.2510 350.3040 -80.5170   O.3       1 GOL804   0.0000
     7 H1     252.5602 351.1914 -80.0748   H         1 GOL804   0.0000
     8 H2     250.1308 348.8758 -81.7085   H         1 GOL804   0.0000
     9 H3     249.4873 350.2977 -82.5609   H         1 GOL804   0.0000
    10 H4     253.3442 349.1200 -80.8147   H         1 GOL804   0.0000
    11 H5     249.1410 351.2902 -80.4804   H         1 GOL804   0.0000
    12 H6     251.2582 351.6585 -81.9181   H         1 GOL804   0.0000
    13 H7     252.0248 348.9722 -82.7227   H         1 GOL804   0.0000
    14 H8     252.6863 350.5434 -83.2288   H         1 GOL804   0.0000
@<TRIPOS>BOND
     1     1     2    1
     2     1     3    1
     3     3     4    1
     4     3     5    1
     5     5     6    1
     6     4     7    1
     7     5     8    1
     8     5     9    1
     9     2    10    1
    10     6    11    1
    11     3    12    1
    12     1    13    1
    13     1    14    1
@<TRIPOS>SUBSTRUCTURE
     1 GOL804      1 GROUP             0 A     GOL     0  
@<TRIPOS>SET
CCDC_LIGAND STATIC ATOMS
14 1 2 3 4 5 6 7 8 9 \
10 11 12 13 14 
