@<TRIPOS>MOLECULE
B:K7U803
    30    31     1     0     1
SMALL
NO_CHARGES
****
Generated from the CSD

@<TRIPOS>ATOM
     1 N01    259.9620 316.4140 -58.2560   N.ar      1 K7U803   0.0000
     2 C02    261.0900 315.9240 -57.7210   C.ar      1 K7U803   0.0000
     3 N02    261.5440 316.4240 -56.5530   N.pl3     1 K7U803   0.0000
     4 C03    261.7830 314.9130 -58.3550   C.ar      1 K7U803   0.0000
     5 C04    261.3130 314.4040 -59.5480   C.ar      1 K7U803   0.0000
     6 C05    260.1500 314.9190 -60.0710   C.ar      1 K7U803   0.0000
     7 C06    259.4830 315.9370 -59.4160   C.ar      1 K7U803   0.0000
     8 C07    262.0260 313.2870 -60.2720   C.3       1 K7U803   0.0000
     9 C08    258.3740 316.3630 -59.9170   C.1       1 K7U803   0.0000
    10 C09    257.3420 316.6330 -60.4380   C.1       1 K7U803   0.0000
    11 C10    256.0200 316.8880 -61.0280   C.3       1 K7U803   0.0000
    12 N11    256.0910 317.9140 -62.0690   N.3       1 K7U803   0.0000
    13 C12    255.4670 317.4720 -63.3290   C.3       1 K7U803   0.0000
    14 C13    256.7790 317.7200 -64.0280   C.3       1 K7U803   0.0000
    15 C14    257.4200 318.0440 -62.6920   C.3       1 K7U803   0.0000
    16 F15    256.7620 318.7440 -64.8450   F         1 K7U803   0.0000
    17 F16    257.2010 316.6210 -64.6170   F         1 K7U803   0.0000
    18 H1     254.6490 318.1042 -63.6713   H         1 K7U803   0.0000
    19 H2     255.1466 316.4312 -63.3308   H         1 K7U803   0.0000
    20 H3     262.3969 316.0584 -56.1418   H         1 K7U803   0.0000
    21 H4     261.0326 317.1658 -56.0855   H         1 K7U803   0.0000
    22 H5     255.3410 317.2232 -60.2454   H         1 K7U803   0.0000
    23 H6     255.6426 315.9647 -61.4651   H         1 K7U803   0.0000
    24 H7     262.6977 314.5183 -57.9151   H         1 K7U803   0.0000
    25 H8     259.7531 314.5232 -61.0047   H         1 K7U803   0.0000
    26 H9     262.0693 312.4081 -59.6305   H         1 K7U803   0.0000
    27 H10    261.4856 313.0434 -61.1855   H         1 K7U803   0.0000
    28 H11    263.0374 313.6040 -60.5221   H         1 K7U803   0.0000
    29 H12    258.1503 317.3108 -62.3529   H         1 K7U803   0.0000
    30 H13    257.8514 319.0419 -62.6293   H         1 K7U803   0.0000
@<TRIPOS>BOND
     1     1     2   ar
     2     2     3    1
     3     2     4   ar
     4     4     5   ar
     5     5     6   ar
     6     1     7   ar
     7     6     7   ar
     8     5     8    1
     9     7     9    1
    10     9    10    3
    11    10    11    1
    12    11    12    1
    13    12    13    1
    14    13    14    1
    15    12    15    1
    16    14    15    1
    17    14    16    1
    18    14    17    1
    19    13    18    1
    20    13    19    1
    21     3    20    1
    22     3    21    1
    23    11    22    1
    24    11    23    1
    25     4    24    1
    26     6    25    1
    27     8    26    1
    28     8    27    1
    29     8    28    1
    30    15    29    1
    31    15    30    1
@<TRIPOS>SUBSTRUCTURE
     1 K7U803      1 GROUP             0 B     K7U     0  
@<TRIPOS>SET
CCDC_LIGAND STATIC ATOMS
30 1 2 3 4 5 6 7 8 9 \
10 11 12 13 14 15 16 17 18 19 \
20 21 22 23 24 25 26 27 28 29 \
30 
