@<TRIPOS>MOLECULE
C:K7U803
    30    31     1     0     1
SMALL
NO_CHARGES
****
Generated from the CSD

@<TRIPOS>ATOM
     1 N01    233.6760 355.4020 -117.2810   N.ar      1 K7U803   0.0000
     2 C02    232.4530 354.8570 -117.1680   C.ar      1 K7U803   0.0000
     3 N02    231.4790 355.2910 -117.9860   N.pl3     1 K7U803   0.0000
     4 C03    232.2130 353.8410 -116.2430   C.ar      1 K7U803   0.0000
     5 C04    233.2600 353.4220 -115.4320   C.ar      1 K7U803   0.0000
     6 C05    234.5020 354.0130 -115.5670   C.ar      1 K7U803   0.0000
     7 C06    234.7050 355.0210 -116.5030   C.ar      1 K7U803   0.0000
     8 C07    233.0790 352.3370 -114.4020   C.3       1 K7U803   0.0000
     9 C08    235.8960 355.5140 -116.6340   C.1       1 K7U803   0.0000
    10 C09    237.0490 355.7990 -116.7120   C.1       1 K7U803   0.0000
    11 C10    238.4930 356.1160 -116.7250   C.3       1 K7U803   0.0000
    12 N11    238.8510 357.0960 -115.6840   N.3       1 K7U803   0.0000
    13 C12    240.1340 356.8420 -114.9930   C.3       1 K7U803   0.0000
    14 C13    239.3930 356.8230 -113.6710   C.3       1 K7U803   0.0000
    15 C14    238.0840 356.9520 -114.4360   C.3       1 K7U803   0.0000
    16 F15    239.6670 357.8510 -112.8820   F         1 K7U803   0.0000
    17 F16    239.5260 355.6690 -113.0460   F         1 K7U803   0.0000
    18 H1     230.5468 354.8949 -117.9200   H         1 K7U803   0.0000
    19 H2     231.6756 356.0149 -118.6698   H         1 K7U803   0.0000
    20 H3     238.7544 356.5263 -117.6993   H         1 K7U803   0.0000
    21 H4     239.0560 355.1996 -116.5541   H         1 K7U803   0.0000
    22 H5     237.4539 356.0647 -114.3977   H         1 K7U803   0.0000
    23 H6     237.4942 357.8278 -114.1695   H         1 K7U803   0.0000
    24 H7     232.7663 351.4174 -114.8945   H         1 K7U803   0.0000
    25 H8     234.0214 352.1684 -113.8829   H         1 K7U803   0.0000
    26 H9     232.3185 352.6411 -113.6843   H         1 K7U803   0.0000
    27 H10    235.3274 353.6869 -114.9359   H         1 K7U803   0.0000
    28 H11    240.8606 357.6476 -115.0875   H         1 K7U803   0.0000
    29 H12    240.6047 355.8959 -115.2561   H         1 K7U803   0.0000
    30 H13    231.2270 353.3865 -116.1585   H         1 K7U803   0.0000
@<TRIPOS>BOND
     1     1     2   ar
     2     2     3    1
     3     2     4   ar
     4     4     5   ar
     5     5     6   ar
     6     1     7   ar
     7     6     7   ar
     8     5     8    1
     9     7     9    1
    10     9    10    3
    11    10    11    1
    12    11    12    1
    13    12    13    1
    14    13    14    1
    15    12    15    1
    16    14    15    1
    17    14    16    1
    18    14    17    1
    19     3    18    1
    20     3    19    1
    21    11    20    1
    22    11    21    1
    23    15    22    1
    24    15    23    1
    25     8    24    1
    26     8    25    1
    27     8    26    1
    28     6    27    1
    29    13    28    1
    30    13    29    1
    31     4    30    1
@<TRIPOS>SUBSTRUCTURE
     1 K7U803      1 GROUP             0 C     K7U     0  
@<TRIPOS>SET
CCDC_LIGAND STATIC ATOMS
30 1 2 3 4 5 6 7 8 9 \
10 11 12 13 14 15 16 17 18 19 \
20 21 22 23 24 25 26 27 28 29 \
30 
