@<TRIPOS>MOLECULE
D:GOL804
    14    13     1     0     1
SMALL
NO_CHARGES
****
Generated from the CSD

@<TRIPOS>ATOM
     1 C1     252.2340 388.2710 -100.8730   C.3       1 GOL804   0.0000
     2 O1     251.8640 388.6790 -99.5750   O.3       1 GOL804   0.0000
     3 C2     252.5260 389.4520 -101.7900   C.3       1 GOL804   0.0000
     4 O2     251.3480 389.8830 -102.4420   O.3       1 GOL804   0.0000
     5 C3     253.6000 389.0450 -102.7980   C.3       1 GOL804   0.0000
     6 O3     253.4500 389.7800 -103.9950   O.3       1 GOL804   0.0000
     7 H1     253.5056 387.9819 -103.0145   H         1 GOL804   0.0000
     8 H2     254.5837 389.2433 -102.3751   H         1 GOL804   0.0000
     9 H3     253.5375 390.7499 -103.8010   H         1 GOL804   0.0000
    10 H4     250.6776 390.1614 -101.7644   H         1 GOL804   0.0000
    11 H5     252.9094 390.2736 -101.1867   H         1 GOL804   0.0000
    12 H6     251.0455 389.2390 -99.6248   H         1 GOL804   0.0000
    13 H7     251.4205 387.6877 -101.3018   H         1 GOL804   0.0000
    14 H8     253.1274 387.6521 -100.8041   H         1 GOL804   0.0000
@<TRIPOS>BOND
     1     1     2    1
     2     1     3    1
     3     3     4    1
     4     3     5    1
     5     5     6    1
     6     5     7    1
     7     5     8    1
     8     6     9    1
     9     4    10    1
    10     3    11    1
    11     2    12    1
    12     1    13    1
    13     1    14    1
@<TRIPOS>SUBSTRUCTURE
     1 GOL804      1 GROUP             0 D     GOL     0  
@<TRIPOS>SET
CCDC_LIGAND STATIC ATOMS
14 1 2 3 4 5 6 7 8 9 \
10 11 12 13 14 
