@<TRIPOS>MOLECULE
B:GOL804
    14    13     1     0     1
SMALL
NO_CHARGES
****
Generated from the CSD

@<TRIPOS>ATOM
     1 C1     277.0720 317.2930 -75.4020   C.3       1 GOL804   0.0000
     2 O1     277.9750 318.0370 -76.1890   O.3       1 GOL804   0.0000
     3 C2     277.8940 316.5760 -74.3330   C.3       1 GOL804   0.0000
     4 O2     277.0970 316.2040 -73.2350   O.3       1 GOL804   0.0000
     5 C3     279.0630 317.4340 -73.8540   C.3       1 GOL804   0.0000
     6 O3     279.5720 316.8660 -72.6620   O.3       1 GOL804   0.0000
     7 H1     279.8810 315.9397 -72.8424   H         1 GOL804   0.0000
     8 H2     278.7197 318.4492 -73.6608   H         1 GOL804   0.0000
     9 H3     279.8419 317.4528 -74.6148   H         1 GOL804   0.0000
    10 H4     276.3767 315.5927 -73.5408   H         1 GOL804   0.0000
    11 H5     278.3021 315.6683 -74.7752   H         1 GOL804   0.0000
    12 H6     278.6336 317.4227 -76.6071   H         1 GOL804   0.0000
    13 H7     276.5483 316.5659 -76.0208   H         1 GOL804   0.0000
    14 H8     276.3487 317.9586 -74.9332   H         1 GOL804   0.0000
@<TRIPOS>BOND
     1     1     2    1
     2     1     3    1
     3     3     4    1
     4     3     5    1
     5     5     6    1
     6     6     7    1
     7     5     8    1
     8     5     9    1
     9     4    10    1
    10     3    11    1
    11     2    12    1
    12     1    13    1
    13     1    14    1
@<TRIPOS>SUBSTRUCTURE
     1 GOL804      1 GROUP             0 B     GOL     0  
@<TRIPOS>SET
CCDC_LIGAND STATIC ATOMS
14 1 2 3 4 5 6 7 8 9 \
10 11 12 13 14 
