@<TRIPOS>MOLECULE
D:K7U803
    30    31     1     0     1
SMALL
NO_CHARGES
****
Generated from the CSD

@<TRIPOS>ATOM
     1 N01    233.9460 389.8660 -117.5670   N.ar      1 K7U803   0.0000
     2 C02    235.0200 390.3790 -118.1960   C.ar      1 K7U803   0.0000
     3 N02    235.3820 389.8690 -119.3930   N.pl3     1 K7U803   0.0000
     4 C03    235.7380 391.4400 -117.6440   C.ar      1 K7U803   0.0000
     5 C04    235.3310 391.9460 -116.4190   C.ar      1 K7U803   0.0000
     6 C05    234.2280 391.3940 -115.7920   C.ar      1 K7U803   0.0000
     7 C06    233.5320 390.3520 -116.3810   C.ar      1 K7U803   0.0000
     8 C07    236.0470 393.0870 -115.7540   C.3       1 K7U803   0.0000
     9 C08    232.4860 389.8840 -115.7920   C.1       1 K7U803   0.0000
    10 C09    231.5010 389.4560 -115.2890   C.1       1 K7U803   0.0000
    11 C10    230.3180 388.9460 -114.5800   C.3       1 K7U803   0.0000
    12 N11    230.8510 388.1330 -113.4800   N.3       1 K7U803   0.0000
    13 C12    229.8300 387.6760 -112.5280   C.3       1 K7U803   0.0000
    14 C13    230.4450 388.5570 -111.4650   C.3       1 K7U803   0.0000
    15 C14    231.4500 389.0260 -112.4890   C.3       1 K7U803   0.0000
    16 F15    230.9990 387.8770 -110.4860   F         1 K7U803   0.0000
    17 F16    229.6450 389.5260 -111.0520   F         1 K7U803   0.0000
    18 H1     231.3719 390.0833 -112.7377   H         1 K7U803   0.0000
    19 H2     232.4830 388.7868 -112.2409   H         1 K7U803   0.0000
    20 H3     229.8726 386.6110 -112.3047   H         1 K7U803   0.0000
    21 H4     228.8116 387.9494 -112.8001   H         1 K7U803   0.0000
    22 H5     229.7075 388.3365 -115.2446   H         1 K7U803   0.0000
    23 H6     229.7206 389.7696 -114.1918   H         1 K7U803   0.0000
    24 H7     236.0162 393.9618 -116.4018   H         1 K7U803   0.0000
    25 H8     235.5605 393.3187 -114.8077   H         1 K7U803   0.0000
    26 H9     237.0834 392.8076 -115.5704   H         1 K7U803   0.0000
    27 H10    233.9046 391.7823 -114.8273   H         1 K7U803   0.0000
    28 H11    236.5979 391.8609 -118.1630   H         1 K7U803   0.0000
    29 H12    236.1891 390.2438 -119.8812   H         1 K7U803   0.0000
    30 H13    234.8469 389.1109 -119.8044   H         1 K7U803   0.0000
@<TRIPOS>BOND
     1     1     2   ar
     2     2     3    1
     3     2     4   ar
     4     4     5   ar
     5     5     6   ar
     6     1     7   ar
     7     6     7   ar
     8     5     8    1
     9     7     9    1
    10     9    10    3
    11    10    11    1
    12    11    12    1
    13    12    13    1
    14    13    14    1
    15    12    15    1
    16    14    15    1
    17    14    16    1
    18    14    17    1
    19    15    18    1
    20    15    19    1
    21    13    20    1
    22    13    21    1
    23    11    22    1
    24    11    23    1
    25     8    24    1
    26     8    25    1
    27     8    26    1
    28     6    27    1
    29     4    28    1
    30     3    29    1
    31     3    30    1
@<TRIPOS>SUBSTRUCTURE
     1 K7U803      1 GROUP             0 D     K7U     0  
@<TRIPOS>SET
CCDC_LIGAND STATIC ATOMS
30 1 2 3 4 5 6 7 8 9 \
10 11 12 13 14 15 16 17 18 19 \
20 21 22 23 24 25 26 27 28 29 \
30 
