#       Name:                CT1002167954
#       Creating user name   hitesit
#       Creation time:       Sun Apr 16 20:15:45 2023


#       File generated by GOLD software.
#

@<TRIPOS>MOLECULE
CT1002167954|ligand_prepared|mol2|1|dock7
    29    30     1
SMALL
NO_CHARGES


@<TRIPOS>ATOM
      1 C1          27.7932  -9.2232   3.0947 C.3            1 RES1               0.0000
      2 C2          26.7418 -10.0713   2.3503 C.ar           1 RES1               0.0000
      3 C3          27.6840  -9.6025   4.5686 C.2            1 RES1               0.0000
      4 C4          29.1391  -9.5616   2.4632 C.2            1 RES1               0.0000
      5 C5          27.5733  -7.6982   2.9624 C.3            1 RES1               0.0000
      6 C6          26.4146  -9.7925   1.0267 C.ar           1 RES1               0.0000
      7 C7          26.0938 -11.1354   2.9719 C.ar           1 RES1               0.0000
      8 N8          28.6731 -10.3793   5.0961 N.am           1 RES1               0.0000
      9 O9          26.7245  -9.2583   5.2477 O.2            1 RES1               0.0000
     10 N10         30.0700 -10.2006   3.2396 N.am           1 RES1               0.0000
     11 O11         29.3957  -9.2955   1.2955 O.2            1 RES1               0.0000
     12 C12         28.5531  -6.8648   3.7734 C.3            1 RES1               0.0000
     13 C13         25.4758 -10.5517   0.3481 C.ar           1 RES1               0.0000
     14 C14         25.1551 -11.8932   2.2915 C.ar           1 RES1               0.0000
     15 C15         29.8869 -10.6523   4.5182 C.2            1 RES1               0.0000
     16 C16         24.8458 -11.6027   0.9797 C.ar           1 RES1               0.0000
     17 O17         30.7538 -11.2673   5.1325 O.2            1 RES1               0.0000
     18 H18         27.6628  -7.4190   1.9053 H              1 RES1               0.0000
     19 H19         26.5531  -7.4590   3.2872 H              1 RES1               0.0000
     20 H20         26.8982  -8.9677   0.5139 H              1 RES1               0.0000
     21 H21         26.3205 -11.3815   4.0037 H              1 RES1               0.0000
     22 H22         28.4937 -10.7959   6.0041 H              1 RES1               0.0000
     23 H23         30.9843 -10.3537   2.8261 H              1 RES1               0.0000
     24 H24         28.3547  -5.8028   3.6450 H              1 RES1               0.0000
     25 H25         28.4735  -7.0987   4.8330 H              1 RES1               0.0000
     26 H26         29.5766  -7.0588   3.4594 H              1 RES1               0.0000
     27 H27         25.2349 -10.3181  -0.6838 H              1 RES1               0.0000
     28 H28         24.6613 -12.7191   2.7928 H              1 RES1               0.0000
     29 H29         24.1106 -12.1976   0.4478 H              1 RES1               0.0000
@<TRIPOS>BOND
    1    1    2 1     
    2    1    3 1     
    3    1    4 1     
    4    1    5 1     
    5    2    6 ar    
    6    2    7 ar    
    7    3    8 1     
    8    3    9 2     
    9    4   10 1     
   10    4   11 2     
   11    5   12 1     
   12    5   18 1     
   13    5   19 1     
   14    6   13 ar    
   15    6   20 1     
   16    7   14 ar    
   17    7   21 1     
   18    8   15 1     
   19    8   22 1     
   20   10   15 1     
   21   10   23 1     
   22   12   24 1     
   23   12   25 1     
   24   12   26 1     
   25   13   16 ar    
   26   13   27 1     
   27   14   16 ar    
   28   14   28 1     
   29   15   17 2     
   30   16   29 1     
@<TRIPOS>SUBSTRUCTURE
      1 RES1           1
@<TRIPOS>SET
DONOR_HYDROGENS      STATIC     ATOMS    <user>   **** ""
2 22 23
ATOM$RED        STATIC     ATOMS    COLORGROUP SYSTEM
2 22 23
@<TRIPOS>COMMENT
> <Gold.Version>
2022.3.0

> <Gold.Id.Protein>
unknown|3oxt_clean|pdb

> <Gold.Protein.RotatedTorsions>
[  568  565  563  560 ] final  -24.09 input   59.99 | X-H torsion
[  590  585  584  581 ] final  -33.40 input   60.02 | X-H torsion
[ 2787 2780 2778 2775 ] final -146.15 input   60.00 | X-H torsion
[ 2470 2461 2460 2458 ] final   65.15 input   59.98 | X-H torsion
[ 2545 2534 2533 2532 ] final  178.40 input   59.97 | X-H torsion
[ 1779 1770 1769 1767 ] final   63.03 input   59.98 | X-H torsion
[ 5059 5050 5049 5047 ] final   66.01 input   60.00 | X-H torsion

> <Gold.Protein.ActiveResidues>
 THR48   LEU49   GLY50   THR51   GLY52   SER53   PHE54   GLY55   ARG56   VAL57  
 MET58   LEU59   VAL60   HIS68   TYR69   ALA70   MET71   LYS72   ILE73   LEU74  
 ASP75   VAL79   GLU91   LEU95   VAL104  LYS105  MET118  VAL119  MET120  GLU121 
 TYR122  VAL123  PRO124  GLY125  GLY126  GLU127  TYR164  ASP166  LYS168  GLU170 
 ASN171  LEU172  LEU173  ILE174  ASP175  GLN181  VAL182  THR183  ASP184  PHE185 
 GLY186  PHE327  ASP328  TYR330 

> <Gold.Protein.RotatedAtoms>
   21.5171  -12.4468    6.3266 H   0  0  0  0  0  0  0  0  0  0  0  0  # atno 568  bound_to 565 
   18.3240  -11.5556   -1.3486 H   0  0  0  0  0  0  0  0  0  0  0  0  # atno 590  bound_to 585 
   35.8175  -12.1574   10.4958 H   0  0  0  0  0  0  0  0  0  0  0  0  # atno 1779 bound_to 1770
   28.6197   -2.6069   -2.9126 H   0  0  0  0  0  0  0  0  0  0  0  0  # atno 2470 bound_to 2461
   20.1019   -4.9402    0.4263 H   0  0  0  0  0  0  0  0  0  0  0  0  # atno 2545 bound_to 2534
   19.6016   -3.9840    1.6849 H   0  0  0  0  0  0  0  0  0  0  0  0  # atno 2546 bound_to 2534
   19.4895   -3.4301    0.1265 H   0  0  0  0  0  0  0  0  0  0  0  0  # atno 2547 bound_to 2534
   31.0639   -8.2761   -0.2922 H   0  0  0  0  0  0  0  0  0  0  0  0  # atno 2787 bound_to 2780
   24.4928  -10.0152    8.4609 H   0  0  0  0  0  0  0  0  0  0  0  0  # atno 5059 bound_to 5050
   20.7099  -13.6334    7.0939 LP  0  0  0  0  0  0  0  0  0  0  0  0  # atno 5371 bound_to 565 
   20.1511  -13.0464    5.6762 LP  0  0  0  0  0  0  0  0  0  0  0  0  # atno 5372 bound_to 565 
   17.0205  -10.8984   -2.0684 LP  0  0  0  0  0  0  0  0  0  0  0  0  # atno 5375 bound_to 585 
   17.6756  -12.2733   -2.6576 LP  0  0  0  0  0  0  0  0  0  0  0  0  # atno 5376 bound_to 585 
   32.4542   -7.7105   -0.9209 LP  0  0  0  0  0  0  0  0  0  0  0  0  # atno 5395 bound_to 2780
   31.0798   -7.6687   -1.8018 LP  0  0  0  0  0  0  0  0  0  0  0  0  # atno 5396 bound_to 2780
   27.2136   -3.3176   -3.3201 LP  0  0  0  0  0  0  0  0  0  0  0  0  # atno 5401 bound_to 2461
   27.2115   -1.9419   -2.4402 LP  0  0  0  0  0  0  0  0  0  0  0  0  # atno 5402 bound_to 2461
   36.0402  -10.5525   10.3452 LP  0  0  0  0  0  0  0  0  0  0  0  0  # atno 5439 bound_to 1770
   37.1958  -11.4792   11.0327 LP  0  0  0  0  0  0  0  0  0  0  0  0  # atno 5440 bound_to 1770
   24.3287   -9.5600   10.0140 LP  0  0  0  0  0  0  0  0  0  0  0  0  # atno 5465 bound_to 5050
   23.0062   -9.8283    9.0944 LP  0  0  0  0  0  0  0  0  0  0  0  0  # atno 5466 bound_to 5050

> <Gold.Score>
     Fitness  S(hb_ext) S(vdw_ext)  S(hb_int)    S(int)      intcor
     36.20       0.58      27.00       0.00      -1.50      -0.76

> <Gold.Goldscore.Fitness>
36.1986

> <Gold.Goldscore.Internal.Vdw>
-1.8602

> <Gold.Goldscore.Internal.Torsion>
-0.3946

> <Gold.Goldscore.External.Vdw>
26.9969

> <Gold.Goldscore.Internal.HBond>
0.0000

> <Gold.Goldscore.External.HBond>
0.5774

> <Gold.Goldscore.Internal.Correction>
-0.7552

> <Gold.Goldscore.Hbonds>
donor molecule, donor type, donor heavy atom, donor atom, acceptor molecule, acceptor atom, score
      P1  H  2780  2787       L1    11  0.24
      L1  H     8    22       P1   536  0.05

> <Gold.Goldscore.Internal.Vdw.Weighted>
-1.8602

> <Gold.Goldscore.Internal.Torsion.Weighted>
-0.3946

> <Gold.Goldscore.External.Vdw.Weighted>
37.1208

> <Gold.Goldscore.Internal.HBond.Weighted>
0.0000

> <Gold.Goldscore.External.HBond.Weighted>
0.5774

> <Gold.Goldscore.Internal.Correction.Weighted>
-0.7552

> <Gold.Rescore>
     Score     S(PLP)   S(hbond)     S(cho)   S(metal)  DE(clash)   DE(tors)     intcor
     25.27     -25.27       0.49       0.00       0.00       1.38       0.04       ----

> <Gold.PLP.Fitness>
25.2740

> <Gold.PLP.PLP>
-25.2657

> <Gold.PLP.part.hbond>
-0.5911

> <Gold.PLP.part.metal>
0.0000

> <Gold.PLP.part.buried>
-0.7594

> <Gold.PLP.part.nonpolar>
-28.6971

> <Gold.PLP.part.repulsive>
4.1272

> <Gold.PLP.ligand.clash>
1.3820

> <Gold.PLP.ligand.torsion>
0.0361

> <Gold.PLP.Chemscore.Hbond>
0.4875

> <Gold.PLP.Chemscore.CHOScore>
0.0000

> <Gold.PLP.Chemscore.Metal>
0.0000

> <Gold.PLP.Chemscore.Internal.Correction>
   9.000000E+99

