#       Name:                CT1002167954
#       Creating user name   hitesit
#       Creation time:       Sun Apr 16 20:15:43 2023


#       File generated by GOLD software.
#

@<TRIPOS>MOLECULE
CT1002167954|ligand_prepared|mol2|1|dock5
    29    30     1
SMALL
NO_CHARGES


@<TRIPOS>ATOM
      1 C1          27.7095  -9.2873   3.1475 C.3            1 RES1               0.0000
      2 C2          26.6776 -10.1766   2.4242 C.ar           1 RES1               0.0000
      3 C3          27.5830  -9.6066   4.6342 C.2            1 RES1               0.0000
      4 C4          29.0677  -9.6370   2.5495 C.2            1 RES1               0.0000
      5 C5          27.4760  -7.7715   2.9490 C.3            1 RES1               0.0000
      6 C6          26.3661  -9.9558   1.0860 C.ar           1 RES1               0.0000
      7 C7          26.0321 -11.2215   3.0801 C.ar           1 RES1               0.0000
      8 N8          28.5722 -10.3503   5.2071 N.am           1 RES1               0.0000
      9 O9          26.6103  -9.2449   5.2849 O.2            1 RES1               0.0000
     10 N10         29.9938 -10.2334   3.3646 N.am           1 RES1               0.0000
     11 O11         29.3384  -9.4166   1.3754 O.2            1 RES1               0.0000
     12 C12         28.4798  -6.8954   3.6819 C.3            1 RES1               0.0000
     13 C13         25.4449 -10.7525   0.4264 C.ar           1 RES1               0.0000
     14 C14         25.1110 -12.0168   2.4187 C.ar           1 RES1               0.0000
     15 C15         29.7969 -10.6337   4.6581 C.2            1 RES1               0.0000
     16 C16         24.8171 -11.7837   1.0920 C.ar           1 RES1               0.0000
     17 O17         30.6610 -11.2135   5.3094 O.2            1 RES1               0.0000
     18 H18         27.5254  -7.5440   1.8770 H              1 RES1               0.0000
     19 H19         26.4670  -7.5208   3.2989 H              1 RES1               0.0000
     20 H20         26.8483  -9.1474   0.5464 H              1 RES1               0.0000
     21 H21         26.2468 -11.4227   4.1242 H              1 RES1               0.0000
     22 H22         28.3839 -10.7309   6.1291 H              1 RES1               0.0000
     23 H23         30.9155 -10.3935   2.9706 H              1 RES1               0.0000
     24 H24         28.2707  -5.8418   3.5091 H              1 RES1               0.0000
     25 H25         28.4402  -7.0774   4.7539 H              1 RES1               0.0000
     26 H26         29.4923  -7.1004   3.3405 H              1 RES1               0.0000
     27 H27         25.2162 -10.5640  -0.6173 H              1 RES1               0.0000
     28 H28         24.6188 -12.8269   2.9467 H              1 RES1               0.0000
     29 H29         24.0958 -12.4078   0.5750 H              1 RES1               0.0000
@<TRIPOS>BOND
    1    1    2 1     
    2    1    3 1     
    3    1    4 1     
    4    1    5 1     
    5    2    6 ar    
    6    2    7 ar    
    7    3    8 1     
    8    3    9 2     
    9    4   10 1     
   10    4   11 2     
   11    5   12 1     
   12    5   18 1     
   13    5   19 1     
   14    6   13 ar    
   15    6   20 1     
   16    7   14 ar    
   17    7   21 1     
   18    8   15 1     
   19    8   22 1     
   20   10   15 1     
   21   10   23 1     
   22   12   24 1     
   23   12   25 1     
   24   12   26 1     
   25   13   16 ar    
   26   13   27 1     
   27   14   16 ar    
   28   14   28 1     
   29   15   17 2     
   30   16   29 1     
@<TRIPOS>SUBSTRUCTURE
      1 RES1           1
@<TRIPOS>SET
DONOR_HYDROGENS      STATIC     ATOMS    <user>   **** ""
2 22 23
ATOM$RED        STATIC     ATOMS    COLORGROUP SYSTEM
2 22 23
@<TRIPOS>COMMENT
> <Gold.Version>
2022.3.0

> <Gold.Id.Protein>
unknown|3oxt_clean|pdb

> <Gold.Protein.RotatedTorsions>
[  568  565  563  560 ] final   61.55 input   59.99 | X-H torsion
[  590  585  584  581 ] final -179.00 input   60.02 | X-H torsion
[ 2787 2780 2778 2775 ] final   81.00 input   60.00 | X-H torsion
[ 2470 2461 2460 2458 ] final  -45.19 input   59.98 | X-H torsion
[ 2545 2534 2533 2532 ] final  -41.65 input   59.97 | X-H torsion
[ 1779 1770 1769 1767 ] final   89.66 input   59.98 | X-H torsion
[ 5059 5050 5049 5047 ] final  -89.19 input   60.00 | X-H torsion

> <Gold.Protein.ActiveResidues>
 THR48   LEU49   GLY50   THR51   GLY52   SER53   PHE54   GLY55   ARG56   VAL57  
 MET58   LEU59   VAL60   HIS68   TYR69   ALA70   MET71   LYS72   ILE73   LEU74  
 ASP75   VAL79   GLU91   LEU95   VAL104  LYS105  MET118  VAL119  MET120  GLU121 
 TYR122  VAL123  PRO124  GLY125  GLY126  GLU127  TYR164  ASP166  LYS168  GLU170 
 ASN171  LEU172  LEU173  ILE174  ASP175  GLN181  VAL182  THR183  ASP184  PHE185 
 GLY186  PHE327  ASP328  TYR330 

> <Gold.Protein.RotatedAtoms>
   20.5307  -12.6613    5.5511 H   0  0  0  0  0  0  0  0  0  0  0  0  # atno 568  bound_to 565 
   16.9251  -11.1483   -2.3875 H   0  0  0  0  0  0  0  0  0  0  0  0  # atno 590  bound_to 585 
   36.1710  -12.3150   10.6859 H   0  0  0  0  0  0  0  0  0  0  0  0  # atno 1779 bound_to 1770
   27.3593   -3.3656   -3.3587 H   0  0  0  0  0  0  0  0  0  0  0  0  # atno 2470 bound_to 2461
   19.4885   -3.6948    1.5691 H   0  0  0  0  0  0  0  0  0  0  0  0  # atno 2545 bound_to 2534
   19.6023   -3.6590   -0.0845 H   0  0  0  0  0  0  0  0  0  0  0  0  # atno 2546 bound_to 2534
   20.1019   -4.9997    0.7529 H   0  0  0  0  0  0  0  0  0  0  0  0  # atno 2547 bound_to 2534
   32.4267   -7.6362   -1.1157 H   0  0  0  0  0  0  0  0  0  0  0  0  # atno 2787 bound_to 2780
   23.7637   -9.5460   10.0695 H   0  0  0  0  0  0  0  0  0  0  0  0  # atno 5059 bound_to 5050
   21.5758  -12.7367    6.7963 LP  0  0  0  0  0  0  0  0  0  0  0  0  # atno 5371 bound_to 565 
   20.2782  -13.7272    6.7545 LP  0  0  0  0  0  0  0  0  0  0  0  0  # atno 5372 bound_to 565 
   18.0021  -12.3684   -2.4151 LP  0  0  0  0  0  0  0  0  0  0  0  0  # atno 5375 bound_to 585 
   18.1021  -11.2133   -1.2651 LP  0  0  0  0  0  0  0  0  0  0  0  0  # atno 5376 bound_to 585 
   30.9123   -7.7473   -1.7005 LP  0  0  0  0  0  0  0  0  0  0  0  0  # atno 5395 bound_to 2780
   31.2492   -8.2763   -0.1928 LP  0  0  0  0  0  0  0  0  0  0  0  0  # atno 5396 bound_to 2780
   27.0814   -2.0203   -2.4862 LP  0  0  0  0  0  0  0  0  0  0  0  0  # atno 5401 bound_to 2461
   28.6126   -2.4753   -2.8249 LP  0  0  0  0  0  0  0  0  0  0  0  0  # atno 5402 bound_to 2461
   35.7151  -10.8191   10.2362 LP  0  0  0  0  0  0  0  0  0  0  0  0  # atno 5439 bound_to 1770
   37.1649  -11.0539   10.9501 LP  0  0  0  0  0  0  0  0  0  0  0  0  # atno 5440 bound_to 1770
   23.2337   -9.9747    8.5925 LP  0  0  0  0  0  0  0  0  0  0  0  0  # atno 5465 bound_to 5050
   24.8361   -9.8866    8.8946 LP  0  0  0  0  0  0  0  0  0  0  0  0  # atno 5466 bound_to 5050

> <Gold.Score>
     Fitness  S(hb_ext) S(vdw_ext)  S(hb_int)    S(int)      intcor
     35.32       0.13      26.79       0.00      -1.65      -0.76

> <Gold.Goldscore.Fitness>
35.3189

> <Gold.Goldscore.Internal.Vdw>
-2.0331

> <Gold.Goldscore.Internal.Torsion>
-0.3699

> <Gold.Goldscore.External.Vdw>
26.7900

> <Gold.Goldscore.Internal.HBond>
0.0000

> <Gold.Goldscore.External.HBond>
0.1305

> <Gold.Goldscore.Internal.Correction>
-0.7552

> <Gold.Goldscore.Hbonds>
donor molecule, donor type, donor heavy atom, donor atom, acceptor molecule, acceptor atom, score
      L1  H     8    22       P1   536  0.07

> <Gold.Goldscore.Internal.Vdw.Weighted>
-2.0331

> <Gold.Goldscore.Internal.Torsion.Weighted>
-0.3699

> <Gold.Goldscore.External.Vdw.Weighted>
36.8363

> <Gold.Goldscore.Internal.HBond.Weighted>
0.0000

> <Gold.Goldscore.External.HBond.Weighted>
0.1305

> <Gold.Goldscore.Internal.Correction.Weighted>
-0.7552

> <Gold.Rescore>
     Score     S(PLP)   S(hbond)     S(cho)   S(metal)  DE(clash)   DE(tors)     intcor
     28.30     -29.94       0.00       0.00       0.00       0.24       0.70       ----

> <Gold.PLP.Fitness>
28.2967

> <Gold.PLP.PLP>
-29.9359

> <Gold.PLP.part.hbond>
0.0000

> <Gold.PLP.part.metal>
0.0000

> <Gold.PLP.part.buried>
-3.8656

> <Gold.PLP.part.nonpolar>
-27.9392

> <Gold.PLP.part.repulsive>
0.3015

> <Gold.PLP.ligand.clash>
0.2372

> <Gold.PLP.ligand.torsion>
0.7010

> <Gold.PLP.Chemscore.Hbond>
0.0000

> <Gold.PLP.Chemscore.CHOScore>
0.0000

> <Gold.PLP.Chemscore.Metal>
0.0000

> <Gold.Chemscore.Hbonds>
donor molecule, donor type, donor heavy atom, donor atom, acceptor molecule, acceptor atom, score
      L1  H     8    22       P1   536  0.05

> <Gold.PLP.Chemscore.Internal.Correction>
   9.000000E+99

