#       Name:                CT1002167954
#       Creating user name   hitesit
#       Creation time:       Sun Apr 16 20:15:44 2023


#       File generated by GOLD software.
#

@<TRIPOS>MOLECULE
CT1002167954|ligand_prepared|mol2|1|dock6
    29    30     1
SMALL
NO_CHARGES


@<TRIPOS>ATOM
      1 C1          22.4207 -10.4876  -1.4859 C.3            1 RES1               0.0000
      2 C2          22.9864 -11.8987  -1.2257 C.ar           1 RES1               0.0000
      3 C3          21.2147 -10.3329  -0.5641 C.2            1 RES1               0.0000
      4 C4          23.5559  -9.5125  -1.1941 C.2            1 RES1               0.0000
      5 C5          21.9574 -10.2591  -2.9435 C.3            1 RES1               0.0000
      6 C6          23.9963 -12.0956  -0.2887 C.ar           1 RES1               0.0000
      7 C7          22.5075 -13.0116  -1.9119 C.ar           1 RES1               0.0000
      8 N8          21.3532  -9.5277   0.5279 N.am           1 RES1               0.0000
      9 O9          20.1707 -10.9392  -0.7705 O.2            1 RES1               0.0000
     10 N10         23.4104  -8.6562  -0.1342 N.am           1 RES1               0.0000
     11 O11         24.5822  -9.4892  -1.8623 O.2            1 RES1               0.0000
     12 C12         21.5960  -8.8149  -3.2527 C.3            1 RES1               0.0000
     13 C13         24.5069 -13.3597  -0.0442 C.ar           1 RES1               0.0000
     14 C14         23.0197 -14.2748  -1.6660 C.ar           1 RES1               0.0000
     15 C15         22.3737  -8.6406   0.7587 C.2            1 RES1               0.0000
     16 C16         24.0187 -14.4500  -0.7322 C.ar           1 RES1               0.0000
     17 O17         22.3401  -7.8766   1.7191 O.2            1 RES1               0.0000
     18 H18         22.7588 -10.5757  -3.6225 H              1 RES1               0.0000
     19 H19         21.0828 -10.8916  -3.1393 H              1 RES1               0.0000
     20 H20         24.3947 -11.2491   0.2607 H              1 RES1               0.0000
     21 H21         21.7225 -12.8973  -2.6517 H              1 RES1               0.0000
     22 H22         20.6313  -9.5911   1.2386 H              1 RES1               0.0000
     23 H23         24.1426  -7.9665   0.0017 H              1 RES1               0.0000
     24 H24         21.2778  -8.7100  -4.2878 H              1 RES1               0.0000
     25 H25         20.7845  -8.4748  -2.6127 H              1 RES1               0.0000
     26 H26         22.4506  -8.1607  -3.0930 H              1 RES1               0.0000
     27 H27         25.2941 -13.4921   0.6907 H              1 RES1               0.0000
     28 H28         22.6329 -15.1300  -2.2102 H              1 RES1               0.0000
     29 H29         24.4186 -15.4402  -0.5402 H              1 RES1               0.0000
@<TRIPOS>BOND
    1    1    2 1     
    2    1    3 1     
    3    1    4 1     
    4    1    5 1     
    5    2    6 ar    
    6    2    7 ar    
    7    3    8 1     
    8    3    9 2     
    9    4   10 1     
   10    4   11 2     
   11    5   12 1     
   12    5   18 1     
   13    5   19 1     
   14    6   13 ar    
   15    6   20 1     
   16    7   14 ar    
   17    7   21 1     
   18    8   15 1     
   19    8   22 1     
   20   10   15 1     
   21   10   23 1     
   22   12   24 1     
   23   12   25 1     
   24   12   26 1     
   25   13   16 ar    
   26   13   27 1     
   27   14   16 ar    
   28   14   28 1     
   29   15   17 2     
   30   16   29 1     
@<TRIPOS>SUBSTRUCTURE
      1 RES1           1
@<TRIPOS>SET
DONOR_HYDROGENS      STATIC     ATOMS    <user>   **** ""
2 22 23
ATOM$RED        STATIC     ATOMS    COLORGROUP SYSTEM
2 22 23
@<TRIPOS>COMMENT
> <Gold.Version>
2022.3.0

> <Gold.Id.Protein>
unknown|3oxt_clean|pdb

> <Gold.Protein.RotatedTorsions>
[  568  565  563  560 ] final  -13.69 input   59.99 | X-H torsion
[  590  585  584  581 ] final  -35.88 input   60.02 | X-H torsion
[ 2787 2780 2778 2775 ] final    6.93 input   60.00 | X-H torsion
[ 2470 2461 2460 2458 ] final  146.26 input   59.98 | X-H torsion
[ 2545 2534 2533 2532 ] final -156.58 input   59.97 | X-H torsion
[ 1779 1770 1769 1767 ] final  126.44 input   59.98 | X-H torsion
[ 5059 5050 5049 5047 ] final  100.42 input   60.00 | X-H torsion

> <Gold.Protein.ActiveResidues>
 THR48   LEU49   GLY50   THR51   GLY52   SER53   PHE54   GLY55   ARG56   VAL57  
 MET58   LEU59   VAL60   HIS68   TYR69   ALA70   MET71   LYS72   ILE73   LEU74  
 ASP75   VAL79   GLU91   LEU95   VAL104  LYS105  MET118  VAL119  MET120  GLU121 
 TYR122  VAL123  PRO124  GLY125  GLY126  GLU127  TYR164  ASP166  LYS168  GLU170 
 ASN171  LEU172  LEU173  ILE174  ASP175  GLN181  VAL182  THR183  ASP184  PHE185 
 GLY186  PHE327  ASP328  TYR330 

> <Gold.Protein.RotatedAtoms>
   21.4474  -12.3958    6.1803 H   0  0  0  0  0  0  0  0  0  0  0  0  # atno 568  bound_to 565 
   18.3072  -11.5216   -1.3346 H   0  0  0  0  0  0  0  0  0  0  0  0  # atno 590  bound_to 585 
   36.7044  -12.2131   10.9184 H   0  0  0  0  0  0  0  0  0  0  0  0  # atno 1779 bound_to 1770
   27.8272   -1.8396   -2.3972 H   0  0  0  0  0  0  0  0  0  0  0  0  # atno 2470 bound_to 2461
   20.0946   -4.9985    0.8367 H   0  0  0  0  0  0  0  0  0  0  0  0  # atno 2545 bound_to 2534
   19.4641   -3.6276    1.5236 H   0  0  0  0  0  0  0  0  0  0  0  0  # atno 2546 bound_to 2534
   19.6344   -3.7281   -0.1224 H   0  0  0  0  0  0  0  0  0  0  0  0  # atno 2547 bound_to 2534
   31.5912   -7.5249   -1.8650 H   0  0  0  0  0  0  0  0  0  0  0  0  # atno 2787 bound_to 2780
   23.9684  -10.0650    8.2905 H   0  0  0  0  0  0  0  0  0  0  0  0  # atno 5059 bound_to 5050
   20.8541  -13.5605    7.1498 LP  0  0  0  0  0  0  0  0  0  0  0  0  # atno 5371 bound_to 565 
   20.0771  -13.1707    5.7674 LP  0  0  0  0  0  0  0  0  0  0  0  0  # atno 5372 bound_to 565 
   17.0048  -10.9169   -2.1010 LP  0  0  0  0  0  0  0  0  0  0  0  0  # atno 5375 bound_to 585 
   17.7082  -12.2890   -2.6390 LP  0  0  0  0  0  0  0  0  0  0  0  0  # atno 5376 bound_to 585 
   30.7043   -8.2037   -0.6815 LP  0  0  0  0  0  0  0  0  0  0  0  0  # atno 5395 bound_to 2780
   32.2988   -7.9319   -0.4572 LP  0  0  0  0  0  0  0  0  0  0  0  0  # atno 5396 bound_to 2780
   28.4180   -3.1101   -3.2248 LP  0  0  0  0  0  0  0  0  0  0  0  0  # atno 5401 bound_to 2461
   26.8049   -2.9219   -3.0543 LP  0  0  0  0  0  0  0  0  0  0  0  0  # atno 5402 bound_to 2461
   35.4970  -11.3725   10.2232 LP  0  0  0  0  0  0  0  0  0  0  0  0  # atno 5439 bound_to 1770
   36.8458  -10.6032   10.7290 LP  0  0  0  0  0  0  0  0  0  0  0  0  # atno 5440 bound_to 1770
   24.7479   -9.6631    9.6606 LP  0  0  0  0  0  0  0  0  0  0  0  0  # atno 5465 bound_to 5050
   23.1155   -9.6751    9.6197 LP  0  0  0  0  0  0  0  0  0  0  0  0  # atno 5466 bound_to 5050

> <Gold.Score>
     Fitness  S(hb_ext) S(vdw_ext)  S(hb_int)    S(int)      intcor
     35.09       2.20      24.41       0.00      -0.69      -0.76

> <Gold.Goldscore.Fitness>
35.0856

> <Gold.Goldscore.Internal.Vdw>
-0.9566

> <Gold.Goldscore.Internal.Torsion>
-0.4838

> <Gold.Goldscore.External.Vdw>
24.4141

> <Gold.Goldscore.Internal.HBond>
0.0000

> <Gold.Goldscore.External.HBond>
2.2014

> <Gold.Goldscore.Internal.Correction>
-0.7552

> <Gold.Goldscore.Hbonds>
donor molecule, donor type, donor heavy atom, donor atom, acceptor molecule, acceptor atom, score
      P1  H   580   586       L1     9  0.10
      P1  H   585   590       L1     9  0.91
      L1  H    10    23       P1  2584  0.09

> <Gold.Goldscore.Internal.Vdw.Weighted>
-0.9566

> <Gold.Goldscore.Internal.Torsion.Weighted>
-0.4838

> <Gold.Goldscore.External.Vdw.Weighted>
33.5693

> <Gold.Goldscore.Internal.HBond.Weighted>
0.0000

> <Gold.Goldscore.External.HBond.Weighted>
2.2014

> <Gold.Goldscore.Internal.Correction.Weighted>
-0.7552

> <Gold.Rescore>
     Score     S(PLP)   S(hbond)     S(cho)   S(metal)  DE(clash)   DE(tors)     intcor
     24.16     -21.01       1.74       0.00       0.00       0.00       1.04       ----

> <Gold.PLP.Fitness>
24.1603

> <Gold.PLP.PLP>
-21.0131

> <Gold.PLP.part.hbond>
-1.3603

> <Gold.PLP.part.metal>
0.0000

> <Gold.PLP.part.buried>
-1.0711

> <Gold.PLP.part.nonpolar>
-28.5752

> <Gold.PLP.part.repulsive>
8.1574

> <Gold.PLP.ligand.clash>
0.0026

> <Gold.PLP.ligand.torsion>
1.0405

> <Gold.PLP.Chemscore.Hbond>
1.7436

> <Gold.PLP.Chemscore.CHOScore>
0.0000

> <Gold.PLP.Chemscore.Metal>
0.0000

> <Gold.Chemscore.Hbonds>
donor molecule, donor type, donor heavy atom, donor atom, acceptor molecule, acceptor atom, score
      P1  H   580   586       L1     9  0.93
      P1  H   585   590       L1     9  1.00
      P1  H   894   905       L1    11  0.09

> <Gold.PLP.Chemscore.Internal.Correction>
   9.000000E+99

