#       Name:                CT1002167954
#       Creating user name   hitesit
#       Creation time:       Sun Apr 16 20:15:41 2023


#       File generated by GOLD software.
#

@<TRIPOS>MOLECULE
CT1002167954|ligand_prepared|mol2|1|dock3
    29    30     1
SMALL
NO_CHARGES


@<TRIPOS>ATOM
      1 C1          25.3478  -8.9501   2.1784 C.3            1 RES1               0.0000
      2 C2          25.0029 -10.4225   1.8755 C.ar           1 RES1               0.0000
      3 C3          25.4509  -8.2476   0.8278 C.2            1 RES1               0.0000
      4 C4          24.2279  -8.4241   3.0693 C.2            1 RES1               0.0000
      5 C5          26.6853  -8.7639   2.9322 C.3            1 RES1               0.0000
      6 C6          25.2743 -11.4200   2.8073 C.ar           1 RES1               0.0000
      7 C7          24.4118 -10.7978   0.6721 C.ar           1 RES1               0.0000
      8 N8          24.4346  -7.4109   0.4716 N.am           1 RES1               0.0000
      9 O9          26.3902  -8.4553   0.0696 O.2            1 RES1               0.0000
     10 N10         23.4157  -7.4414   2.5670 N.am           1 RES1               0.0000
     11 O11         24.0310  -8.8636   4.1955 O.2            1 RES1               0.0000
     12 C12         27.1310  -7.3143   3.0412 C.3            1 RES1               0.0000
     13 C13         24.9632 -12.7442   2.5467 C.ar           1 RES1               0.0000
     14 C14         24.1018 -12.1228   0.4134 C.ar           1 RES1               0.0000
     15 C15         23.4491  -6.9325   1.2973 C.2            1 RES1               0.0000
     16 C16         24.3765 -13.0965   1.3500 C.ar           1 RES1               0.0000
     17 O17         22.6499  -6.0887   0.9021 O.2            1 RES1               0.0000
     18 H18         26.5818  -9.1785   3.9426 H              1 RES1               0.0000
     19 H19         27.4653  -9.3351   2.4137 H              1 RES1               0.0000
     20 H20         25.7380 -11.1622   3.7536 H              1 RES1               0.0000
     21 H21         24.1876 -10.0489  -0.0799 H              1 RES1               0.0000
     22 H22         24.4045  -7.1133  -0.4984 H              1 RES1               0.0000
     23 H23         22.7220  -7.0530   3.1981 H              1 RES1               0.0000
     24 H24         28.0741  -7.2401   3.5785 H              1 RES1               0.0000
     25 H25         27.2682  -6.8776   2.0541 H              1 RES1               0.0000
     26 H26         26.3900  -6.7219   3.5738 H              1 RES1               0.0000
     27 H27         25.1827 -13.5070   3.2866 H              1 RES1               0.0000
     28 H28         23.6406 -12.3955  -0.5301 H              1 RES1               0.0000
     29 H29         24.1326 -14.1339   1.1463 H              1 RES1               0.0000
@<TRIPOS>BOND
    1    1    2 1     
    2    1    3 1     
    3    1    4 1     
    4    1    5 1     
    5    2    6 ar    
    6    2    7 ar    
    7    3    8 1     
    8    3    9 2     
    9    4   10 1     
   10    4   11 2     
   11    5   12 1     
   12    5   18 1     
   13    5   19 1     
   14    6   13 ar    
   15    6   20 1     
   16    7   14 ar    
   17    7   21 1     
   18    8   15 1     
   19    8   22 1     
   20   10   15 1     
   21   10   23 1     
   22   12   24 1     
   23   12   25 1     
   24   12   26 1     
   25   13   16 ar    
   26   13   27 1     
   27   14   16 ar    
   28   14   28 1     
   29   15   17 2     
   30   16   29 1     
@<TRIPOS>SUBSTRUCTURE
      1 RES1           1
@<TRIPOS>SET
DONOR_HYDROGENS      STATIC     ATOMS    <user>   **** ""
2 22 23
ATOM$RED        STATIC     ATOMS    COLORGROUP SYSTEM
2 22 23
@<TRIPOS>COMMENT
> <Gold.Version>
2022.3.0

> <Gold.Id.Protein>
unknown|3oxt_clean|pdb

> <Gold.Protein.RotatedTorsions>
[  568  565  563  560 ] final -144.02 input   59.99 | X-H torsion
[  590  585  584  581 ] final   81.31 input   60.02 | X-H torsion
[ 2787 2780 2778 2775 ] final  173.84 input   60.00 | X-H torsion
[ 2470 2461 2460 2458 ] final  146.37 input   59.98 | X-H torsion
[ 2545 2534 2533 2532 ] final -121.32 input   59.97 | X-H torsion
[ 1779 1770 1769 1767 ] final   84.60 input   59.98 | X-H torsion
[ 5059 5050 5049 5047 ] final -114.54 input   60.00 | X-H torsion

> <Gold.Protein.ActiveResidues>
 THR48   LEU49   GLY50   THR51   GLY52   SER53   PHE54   GLY55   ARG56   VAL57  
 MET58   LEU59   VAL60   HIS68   TYR69   ALA70   MET71   LYS72   ILE73   LEU74  
 ASP75   VAL79   GLU91   LEU95   VAL104  LYS105  MET118  VAL119  MET120  GLU121 
 TYR122  VAL123  PRO124  GLY125  GLY126  GLU127  TYR164  ASP166  LYS168  GLU170 
 ASN171  LEU172  LEU173  ILE174  ASP175  GLN181  VAL182  THR183  ASP184  PHE185 
 GLY186  PHE327  ASP328  TYR330 

> <Gold.Protein.RotatedAtoms>
   20.7129  -13.6309    7.0880 H   0  0  0  0  0  0  0  0  0  0  0  0  # atno 568  bound_to 565 
   17.7433  -12.3017   -2.6111 H   0  0  0  0  0  0  0  0  0  0  0  0  # atno 590  bound_to 585 
   36.0983  -12.2995   10.6496 H   0  0  0  0  0  0  0  0  0  0  0  0  # atno 1779 bound_to 1770
   27.8255   -1.8394   -2.3970 H   0  0  0  0  0  0  0  0  0  0  0  0  # atno 2470 bound_to 2461
   19.9712   -4.8038    1.3685 H   0  0  0  0  0  0  0  0  0  0  0  0  # atno 2545 bound_to 2534
   19.3595   -3.2938    1.0610 H   0  0  0  0  0  0  0  0  0  0  0  0  # atno 2546 bound_to 2534
   19.8623   -4.2564   -0.1916 H   0  0  0  0  0  0  0  0  0  0  0  0  # atno 2547 bound_to 2534
   31.6798   -8.1999   -0.1338 H   0  0  0  0  0  0  0  0  0  0  0  0  # atno 2787 bound_to 2780
   23.3880   -9.5924    9.9106 H   0  0  0  0  0  0  0  0  0  0  0  0  # atno 5059 bound_to 5050
   20.1505  -13.0473    5.6768 LP  0  0  0  0  0  0  0  0  0  0  0  0  # atno 5371 bound_to 565 
   21.5202  -12.4405    6.3267 LP  0  0  0  0  0  0  0  0  0  0  0  0  # atno 5372 bound_to 565 
   18.2921  -11.4811   -1.3171 LP  0  0  0  0  0  0  0  0  0  0  0  0  # atno 5375 bound_to 585 
   16.9885  -10.9395   -2.1380 LP  0  0  0  0  0  0  0  0  0  0  0  0  # atno 5376 bound_to 585 
   32.2453   -7.5245   -1.5021 LP  0  0  0  0  0  0  0  0  0  0  0  0  # atno 5395 bound_to 2780
   30.6685   -7.9313   -1.3801 LP  0  0  0  0  0  0  0  0  0  0  0  0  # atno 5396 bound_to 2780
   28.4191   -3.1089   -3.2241 LP  0  0  0  0  0  0  0  0  0  0  0  0  # atno 5401 bound_to 2461
   26.8055   -2.9232   -3.0552 LP  0  0  0  0  0  0  0  0  0  0  0  0  # atno 5402 bound_to 2461
   35.7684  -10.7568   10.2511 LP  0  0  0  0  0  0  0  0  0  0  0  0  # atno 5439 bound_to 1770
   37.1848  -11.1319   10.9719 LP  0  0  0  0  0  0  0  0  0  0  0  0  # atno 5440 bound_to 1770
   23.5675  -10.0431    8.3579 LP  0  0  0  0  0  0  0  0  0  0  0  0  # atno 5465 bound_to 5050
   24.8809   -9.7714    9.2895 LP  0  0  0  0  0  0  0  0  0  0  0  0  # atno 5466 bound_to 5050

> <Gold.Score>
     Fitness  S(hb_ext) S(vdw_ext)  S(hb_int)    S(int)      intcor
     33.55       2.04      23.65       0.00      -1.01      -0.78

> <Gold.Goldscore.Fitness>
33.5480

> <Gold.Goldscore.Internal.Vdw>
-1.2911

> <Gold.Goldscore.Internal.Torsion>
-0.4991

> <Gold.Goldscore.External.Vdw>
23.6490

> <Gold.Goldscore.Internal.HBond>
0.0000

> <Gold.Goldscore.External.HBond>
2.0439

> <Gold.Goldscore.Internal.Correction>
-0.7769

> <Gold.Goldscore.Hbonds>
donor molecule, donor type, donor heavy atom, donor atom, acceptor molecule, acceptor atom, score
      L1  H     8    22       P1  2794  0.34

> <Gold.Goldscore.Internal.Vdw.Weighted>
-1.2911

> <Gold.Goldscore.Internal.Torsion.Weighted>
-0.4991

> <Gold.Goldscore.External.Vdw.Weighted>
32.5174

> <Gold.Goldscore.Internal.HBond.Weighted>
0.0000

> <Gold.Goldscore.External.HBond.Weighted>
2.0439

> <Gold.Goldscore.Internal.Correction.Weighted>
-0.7769

> <Gold.Rescore>
     Score     S(PLP)   S(hbond)     S(cho)   S(metal)  DE(clash)   DE(tors)     intcor
     26.53     -27.51       0.30       0.00       0.00       1.20       0.35       ----

> <Gold.PLP.Fitness>
26.5262

> <Gold.PLP.PLP>
-27.5105

> <Gold.PLP.part.hbond>
-1.5263

> <Gold.PLP.part.metal>
0.0000

> <Gold.PLP.part.buried>
-2.7924

> <Gold.PLP.part.nonpolar>
-26.7582

> <Gold.PLP.part.repulsive>
2.1951

> <Gold.PLP.ligand.clash>
1.2006

> <Gold.PLP.ligand.torsion>
0.3479

> <Gold.PLP.Chemscore.Hbond>
0.3040

> <Gold.PLP.Chemscore.CHOScore>
0.0000

> <Gold.PLP.Chemscore.Metal>
0.0000

> <Gold.Chemscore.Hbonds>
donor molecule, donor type, donor heavy atom, donor atom, acceptor molecule, acceptor atom, score
      L1  H     8    22       P1  2794  0.83

> <Gold.PLP.Chemscore.Internal.Correction>
   9.000000E+99

