#       Name:                CT1002167954
#       Creating user name   hitesit
#       Creation time:       Sun Apr 16 20:15:48 2023


#       File generated by GOLD software.
#

@<TRIPOS>MOLECULE
CT1002167954|ligand_prepared|mol2|1|dock10
    29    30     1
SMALL
NO_CHARGES


@<TRIPOS>ATOM
      1 C1          26.9359  -9.1843   2.3261 C.3            1 RES1               0.0000
      2 C2          28.3200  -9.6251   1.8075 C.ar           1 RES1               0.0000
      3 C3          26.2665  -8.4356   1.1773 C.2            1 RES1               0.0000
      4 C4          26.2112 -10.4589   2.7441 C.2            1 RES1               0.0000
      5 C5          26.9985  -8.2458   3.5537 C.3            1 RES1               0.0000
      6 C6          28.5591  -9.7474   0.4420 C.ar           1 RES1               0.0000
      7 C7          29.3664  -9.9097   2.6808 C.ar           1 RES1               0.0000
      8 N8          25.2572  -9.0687   0.5137 N.am           1 RES1               0.0000
      9 O9          26.6449  -7.3226   0.8334 O.2            1 RES1               0.0000
     10 N10         25.0963 -10.8250   2.0365 N.am           1 RES1               0.0000
     11 O11         26.6052 -11.1583   3.6692 O.2            1 RES1               0.0000
     12 C12         25.6758  -7.5683   3.8755 C.3            1 RES1               0.0000
     13 C13         29.8001 -10.1373  -0.0335 C.ar           1 RES1               0.0000
     14 C14         30.6067 -10.2997   2.2032 C.ar           1 RES1               0.0000
     15 C15         24.6042 -10.2042   0.9209 C.2            1 RES1               0.0000
     16 C16         30.8248 -10.4132   0.8466 C.ar           1 RES1               0.0000
     17 O17         23.6280 -10.6248   0.3067 O.2            1 RES1               0.0000
     18 H18         27.3190  -8.8274   4.4268 H              1 RES1               0.0000
     19 H19         27.7552  -7.4732   3.3693 H              1 RES1               0.0000
     20 H20         27.7641  -9.5368  -0.2656 H              1 RES1               0.0000
     21 H21         29.2174  -9.8281   3.7521 H              1 RES1               0.0000
     22 H22         24.9606  -8.6600  -0.3669 H              1 RES1               0.0000
     23 H23         24.5858 -11.6354   2.3727 H              1 RES1               0.0000
     24 H24         25.7752  -6.9215   4.7447 H              1 RES1               0.0000
     25 H25         25.3397  -6.9608   3.0378 H              1 RES1               0.0000
     26 H26         24.9060  -8.3070   4.0890 H              1 RES1               0.0000
     27 H27         29.9662 -10.2265  -1.1020 H              1 RES1               0.0000
     28 H28         31.4101 -10.5164   2.8995 H              1 RES1               0.0000
     29 H29         31.7970 -10.7183   0.4738 H              1 RES1               0.0000
@<TRIPOS>BOND
    1    1    2 1     
    2    1    3 1     
    3    1    4 1     
    4    1    5 1     
    5    2    6 ar    
    6    2    7 ar    
    7    3    8 1     
    8    3    9 2     
    9    4   10 1     
   10    4   11 2     
   11    5   12 1     
   12    5   18 1     
   13    5   19 1     
   14    6   13 ar    
   15    6   20 1     
   16    7   14 ar    
   17    7   21 1     
   18    8   15 1     
   19    8   22 1     
   20   10   15 1     
   21   10   23 1     
   22   12   24 1     
   23   12   25 1     
   24   12   26 1     
   25   13   16 ar    
   26   13   27 1     
   27   14   16 ar    
   28   14   28 1     
   29   15   17 2     
   30   16   29 1     
@<TRIPOS>SUBSTRUCTURE
      1 RES1           1
@<TRIPOS>SET
DONOR_HYDROGENS      STATIC     ATOMS    <user>   **** ""
2 22 23
ATOM$RED        STATIC     ATOMS    COLORGROUP SYSTEM
2 22 23
@<TRIPOS>COMMENT
> <Gold.Version>
2022.3.0

> <Gold.Id.Protein>
unknown|3oxt_clean|pdb

> <Gold.Protein.RotatedTorsions>
[  568  565  563  560 ] final  152.97 input   59.99 | X-H torsion
[  590  585  584  581 ] final -121.99 input   60.02 | X-H torsion
[ 2787 2780 2778 2775 ] final   -2.84 input   60.00 | X-H torsion
[ 2470 2461 2460 2458 ] final  167.79 input   59.98 | X-H torsion
[ 2545 2534 2533 2532 ] final  175.36 input   59.97 | X-H torsion
[ 1779 1770 1769 1767 ] final   34.97 input   59.98 | X-H torsion
[ 5059 5050 5049 5047 ] final   71.94 input   60.00 | X-H torsion

> <Gold.Protein.ActiveResidues>
 THR48   LEU49   GLY50   THR51   GLY52   SER53   PHE54   GLY55   ARG56   VAL57  
 MET58   LEU59   VAL60   HIS68   TYR69   ALA70   MET71   LYS72   ILE73   LEU74  
 ASP75   VAL79   GLU91   LEU95   VAL104  LYS105  MET118  VAL119  MET120  GLU121 
 TYR122  VAL123  PRO124  GLY125  GLY126  GLU127  TYR164  ASP166  LYS168  GLU170 
 ASN171  LEU172  LEU173  ILE174  ASP175  GLN181  VAL182  THR183  ASP184  PHE185 
 GLY186  PHE327  ASP328  TYR330 

> <Gold.Protein.RotatedAtoms>
   20.0580  -13.6194    6.3608 H   0  0  0  0  0  0  0  0  0  0  0  0  # atno 568  bound_to 565 
   17.3143  -10.7877   -1.6680 H   0  0  0  0  0  0  0  0  0  0  0  0  # atno 590  bound_to 585 
   35.5686  -11.8183   10.3253 H   0  0  0  0  0  0  0  0  0  0  0  0  # atno 1779 bound_to 1770
   27.4778   -1.8545   -2.3959 H   0  0  0  0  0  0  0  0  0  0  0  0  # atno 2470 bound_to 2461
   20.0979   -4.9221    0.3790 H   0  0  0  0  0  0  0  0  0  0  0  0  # atno 2545 bound_to 2534
   19.6206   -4.0306    1.6928 H   0  0  0  0  0  0  0  0  0  0  0  0  # atno 2546 bound_to 2534
   19.4745   -3.4017    0.1659 H   0  0  0  0  0  0  0  0  0  0  0  0  # atno 2547 bound_to 2534
   31.4352   -7.5566   -1.8743 H   0  0  0  0  0  0  0  0  0  0  0  0  # atno 2787 bound_to 2780
   24.4115  -10.0300    8.4103 H   0  0  0  0  0  0  0  0  0  0  0  0  # atno 5059 bound_to 5050
   20.9182  -12.4299    5.6582 LP  0  0  0  0  0  0  0  0  0  0  0  0  # atno 5371 bound_to 565 
   21.4117  -13.0694    7.0774 LP  0  0  0  0  0  0  0  0  0  0  0  0  # atno 5372 bound_to 565 
   17.2816  -11.9737   -2.7822 LP  0  0  0  0  0  0  0  0  0  0  0  0  # atno 5375 bound_to 585 
   18.4309  -11.9710   -1.6222 LP  0  0  0  0  0  0  0  0  0  0  0  0  # atno 5376 bound_to 585 
   30.7855   -8.2391   -0.5476 LP  0  0  0  0  0  0  0  0  0  0  0  0  # atno 5395 bound_to 2780
   32.3746   -7.8648   -0.5817 LP  0  0  0  0  0  0  0  0  0  0  0  0  # atno 5396 bound_to 2780
   28.5836   -2.8459   -3.0610 LP  0  0  0  0  0  0  0  0  0  0  0  0  # atno 5401 bound_to 2461
   26.9912   -3.1710   -3.2194 LP  0  0  0  0  0  0  0  0  0  0  0  0  # atno 5402 bound_to 2461
   36.4522  -10.4664   10.5235 LP  0  0  0  0  0  0  0  0  0  0  0  0  # atno 5439 bound_to 1770
   37.0345  -11.9069   11.0260 LP  0  0  0  0  0  0  0  0  0  0  0  0  # atno 5440 bound_to 1770
   24.4156   -9.5725    9.9714 LP  0  0  0  0  0  0  0  0  0  0  0  0  # atno 5465 bound_to 5050
   23.0012   -9.8010    9.1881 LP  0  0  0  0  0  0  0  0  0  0  0  0  # atno 5466 bound_to 5050

> <Gold.Score>
     Fitness  S(hb_ext) S(vdw_ext)  S(hb_int)    S(int)      intcor
     36.49       2.94      25.20       0.00      -1.10      -0.76

> <Gold.Goldscore.Fitness>
36.4919

> <Gold.Goldscore.Internal.Vdw>
-1.2307

> <Gold.Goldscore.Internal.Torsion>
-0.6274

> <Gold.Goldscore.External.Vdw>
25.2009

> <Gold.Goldscore.Internal.HBond>
0.0000

> <Gold.Goldscore.External.HBond>
2.9435

> <Gold.Goldscore.Internal.Correction>
-0.7552

> <Gold.Goldscore.Hbonds>
donor molecule, donor type, donor heavy atom, donor atom, acceptor molecule, acceptor atom, score
      L1  H     8    22       P1  2794  0.49

> <Gold.Goldscore.Internal.Vdw.Weighted>
-1.2307

> <Gold.Goldscore.Internal.Torsion.Weighted>
-0.6274

> <Gold.Goldscore.External.Vdw.Weighted>
34.6512

> <Gold.Goldscore.Internal.HBond.Weighted>
0.0000

> <Gold.Goldscore.External.HBond.Weighted>
2.9435

> <Gold.Goldscore.Internal.Correction.Weighted>
-0.7552

> <Gold.Rescore>
     Score     S(PLP)   S(hbond)     S(cho)   S(metal)  DE(clash)   DE(tors)     intcor
     29.83     -32.73       0.09       0.00       0.00       1.64       0.76       ----

> <Gold.PLP.Fitness>
29.8297

> <Gold.PLP.PLP>
-32.7271

> <Gold.PLP.part.hbond>
-1.8835

> <Gold.PLP.part.metal>
0.0000

> <Gold.PLP.part.buried>
-3.1729

> <Gold.PLP.part.nonpolar>
-28.2326

> <Gold.PLP.part.repulsive>
0.6045

> <Gold.PLP.ligand.clash>
1.6430

> <Gold.PLP.ligand.torsion>
0.7645

> <Gold.PLP.Chemscore.Hbond>
0.0915

> <Gold.PLP.Chemscore.CHOScore>
0.0000

> <Gold.PLP.Chemscore.Metal>
0.0000

> <Gold.Chemscore.Hbonds>
donor molecule, donor type, donor heavy atom, donor atom, acceptor molecule, acceptor atom, score
      L1  H     8    22       P1  2794  0.93

> <Gold.PLP.Chemscore.Internal.Correction>
   9.000000E+99

