#       Name:                CT1002167954
#       Creating user name   hitesit
#       Creation time:       Sun Apr 16 20:15:40 2023


#       File generated by GOLD software.
#

@<TRIPOS>MOLECULE
CT1002167954|ligand_prepared|mol2|1|dock2
    29    30     1
SMALL
NO_CHARGES


@<TRIPOS>ATOM
      1 C1          24.8408  -8.8742   2.0807 C.3            1 RES1               0.0000
      2 C2          24.7127 -10.3648   1.7059 C.ar           1 RES1               0.0000
      3 C3          25.0868  -8.1237   0.7751 C.2            1 RES1               0.0000
      4 C4          23.5394  -8.4967   2.7796 C.2            1 RES1               0.0000
      5 C5          26.0082  -8.5715   3.0488 C.3            1 RES1               0.0000
      6 C6          25.0149 -11.3572   2.6335 C.ar           1 RES1               0.0000
      7 C7          24.2919 -10.7622   0.4396 C.ar           1 RES1               0.0000
      8 N8          24.0577  -7.3881   0.2657 N.am           1 RES1               0.0000
      9 O9          26.1547  -8.2079   0.1811 O.2            1 RES1               0.0000
     10 N10         22.7185  -7.5899   2.1619 N.am           1 RES1               0.0000
     11 O11         23.2096  -8.9887   3.8517 O.2            1 RES1               0.0000
     12 C12         26.3498  -7.0935   3.1541 C.3            1 RES1               0.0000
     13 C13         24.8977 -12.6984   2.3081 C.ar           1 RES1               0.0000
     14 C14         24.1756 -12.1040   0.1161 C.ar           1 RES1               0.0000
     15 C15         22.9040  -7.0417   0.9220 C.2            1 RES1               0.0000
     16 C16         24.4776 -13.0726   1.0495 C.ar           1 RES1               0.0000
     17 O17         22.0932  -6.2750   0.4103 O.2            1 RES1               0.0000
     18 H18         25.7458  -8.9452   4.0462 H              1 RES1               0.0000
     19 H19         26.8982  -9.1162   2.7100 H              1 RES1               0.0000
     20 H20         25.3493 -11.0818   3.6282 H              1 RES1               0.0000
     21 H21         24.0499 -10.0175  -0.3111 H              1 RES1               0.0000
     22 H22         24.1548  -7.0657  -0.6919 H              1 RES1               0.0000
     23 H23         21.8926  -7.2964   2.6738 H              1 RES1               0.0000
     24 H24         27.1750  -6.9367   3.8456 H              1 RES1               0.0000
     25 H25         26.6400  -6.6945   2.1843 H              1 RES1               0.0000
     26 H26         25.4945  -6.5246   3.5126 H              1 RES1               0.0000
     27 H27         25.1379 -13.4568   3.0458 H              1 RES1               0.0000
     28 H28         23.8452 -12.3939  -0.8759 H              1 RES1               0.0000
     29 H29         24.3855 -14.1233   0.7949 H              1 RES1               0.0000
@<TRIPOS>BOND
    1    1    2 1     
    2    1    3 1     
    3    1    4 1     
    4    1    5 1     
    5    2    6 ar    
    6    2    7 ar    
    7    3    8 1     
    8    3    9 2     
    9    4   10 1     
   10    4   11 2     
   11    5   12 1     
   12    5   18 1     
   13    5   19 1     
   14    6   13 ar    
   15    6   20 1     
   16    7   14 ar    
   17    7   21 1     
   18    8   15 1     
   19    8   22 1     
   20   10   15 1     
   21   10   23 1     
   22   12   24 1     
   23   12   25 1     
   24   12   26 1     
   25   13   16 ar    
   26   13   27 1     
   27   14   16 ar    
   28   14   28 1     
   29   15   17 2     
   30   16   29 1     
@<TRIPOS>SUBSTRUCTURE
      1 RES1           1
@<TRIPOS>SET
DONOR_HYDROGENS      STATIC     ATOMS    <user>   **** ""
2 22 23
ATOM$RED        STATIC     ATOMS    COLORGROUP SYSTEM
2 22 23
@<TRIPOS>COMMENT
> <Gold.Version>
2022.3.0

> <Gold.Id.Protein>
unknown|3oxt_clean|pdb

> <Gold.Protein.RotatedTorsions>
[  568  565  563  560 ] final   89.60 input   59.99 | X-H torsion
[  590  585  584  581 ] final  -17.49 input   60.02 | X-H torsion
[ 2787 2780 2778 2775 ] final  118.65 input   60.00 | X-H torsion
[ 2470 2461 2460 2458 ] final  100.78 input   59.98 | X-H torsion
[ 2545 2534 2533 2532 ] final  128.44 input   59.97 | X-H torsion
[ 1779 1770 1769 1767 ] final -116.34 input   59.98 | X-H torsion
[ 5059 5050 5049 5047 ] final  116.89 input   60.00 | X-H torsion

> <Gold.Protein.ActiveResidues>
 THR48   LEU49   GLY50   THR51   GLY52   SER53   PHE54   GLY55   ARG56   VAL57  
 MET58   LEU59   VAL60   HIS68   TYR69   ALA70   MET71   LYS72   ILE73   LEU74  
 ASP75   VAL79   GLU91   LEU95   VAL104  LYS105  MET118  VAL119  MET120  GLU121 
 TYR122  VAL123  PRO124  GLY125  GLY126  GLU127  TYR164  ASP166  LYS168  GLU170 
 ASN171  LEU172  LEU173  ILE174  ASP175  GLN181  VAL182  THR183  ASP184  PHE185 
 GLY186  PHE327  ASP328  TYR330 

> <Gold.Protein.RotatedAtoms>
   20.2119  -12.9731    5.6354 H   0  0  0  0  0  0  0  0  0  0  0  0  # atno 568  bound_to 565 
   18.4021  -11.7726   -1.4671 H   0  0  0  0  0  0  0  0  0  0  0  0  # atno 590  bound_to 585 
   36.8764  -10.6337   10.7454 H   0  0  0  0  0  0  0  0  0  0  0  0  # atno 1779 bound_to 1770
   28.4439   -2.1501   -2.6150 H   0  0  0  0  0  0  0  0  0  0  0  0  # atno 2470 bound_to 2461
   19.9198   -4.4018   -0.1484 H   0  0  0  0  0  0  0  0  0  0  0  0  # atno 2545 bound_to 2534
   19.9188   -4.6998    1.4826 H   0  0  0  0  0  0  0  0  0  0  0  0  # atno 2546 bound_to 2534
   19.3545   -3.2528    0.9031 H   0  0  0  0  0  0  0  0  0  0  0  0  # atno 2547 bound_to 2534
   32.3583   -7.8731   -0.5643 H   0  0  0  0  0  0  0  0  0  0  0  0  # atno 2787 bound_to 2780
   23.7023  -10.0561    8.3207 H   0  0  0  0  0  0  0  0  0  0  0  0  # atno 5059 bound_to 5050
   21.5516  -12.4817    6.4178 LP  0  0  0  0  0  0  0  0  0  0  0  0  # atno 5371 bound_to 565 
   20.6234  -13.6683    7.0481 LP  0  0  0  0  0  0  0  0  0  0  0  0  # atno 5372 bound_to 565 
   17.1492  -10.8105   -1.8590 LP  0  0  0  0  0  0  0  0  0  0  0  0  # atno 5375 bound_to 585 
   17.4683  -12.1428   -2.7477 LP  0  0  0  0  0  0  0  0  0  0  0  0  # atno 5376 bound_to 585 
   31.4588   -7.5507   -1.8814 LP  0  0  0  0  0  0  0  0  0  0  0  0  # atno 5395 bound_to 2780
   30.7716   -8.2343   -0.5673 LP  0  0  0  0  0  0  0  0  0  0  0  0  # atno 5396 bound_to 2780
   27.7773   -3.4116   -3.3977 LP  0  0  0  0  0  0  0  0  0  0  0  0  # atno 5401 bound_to 2461
   26.8249   -2.3078   -2.6621 LP  0  0  0  0  0  0  0  0  0  0  0  0  # atno 5402 bound_to 2461
   36.6677  -12.2392   10.9082 LP  0  0  0  0  0  0  0  0  0  0  0  0  # atno 5439 bound_to 1770
   35.5019  -11.3272   10.2183 LP  0  0  0  0  0  0  0  0  0  0  0  0  # atno 5440 bound_to 1770
   24.8546   -9.7326    9.4224 LP  0  0  0  0  0  0  0  0  0  0  0  0  # atno 5465 bound_to 5050
   23.2770   -9.6145    9.8274 LP  0  0  0  0  0  0  0  0  0  0  0  0  # atno 5466 bound_to 5050

> <Gold.Score>
     Fitness  S(hb_ext) S(vdw_ext)  S(hb_int)    S(int)      intcor
     33.51       1.42      23.99       0.00      -0.89      -0.78

> <Gold.Goldscore.Fitness>
33.5060

> <Gold.Goldscore.Internal.Vdw>
-0.9923

> <Gold.Goldscore.Internal.Torsion>
-0.6798

> <Gold.Goldscore.External.Vdw>
23.9862

> <Gold.Goldscore.Internal.HBond>
0.0000

> <Gold.Goldscore.External.HBond>
1.4151

> <Gold.Goldscore.Internal.Correction>
-0.7819

> <Gold.Goldscore.Hbonds>
donor molecule, donor type, donor heavy atom, donor atom, acceptor molecule, acceptor atom, score
      L1  H     8    22       P1  2794  0.24

> <Gold.Goldscore.Internal.Vdw.Weighted>
-0.9923

> <Gold.Goldscore.Internal.Torsion.Weighted>
-0.6798

> <Gold.Goldscore.External.Vdw.Weighted>
32.9811

> <Gold.Goldscore.Internal.HBond.Weighted>
0.0000

> <Gold.Goldscore.External.HBond.Weighted>
1.4151

> <Gold.Goldscore.Internal.Correction.Weighted>
-0.7819

> <Gold.Rescore>
     Score     S(PLP)   S(hbond)     S(cho)   S(metal)  DE(clash)   DE(tors)     intcor
     29.18     -28.54       0.94       0.00       0.00       1.26       0.45       ----

> <Gold.PLP.Fitness>
29.1832

> <Gold.PLP.PLP>
-28.5419

> <Gold.PLP.part.hbond>
-1.6949

> <Gold.PLP.part.metal>
0.0000

> <Gold.PLP.part.buried>
0.2290

> <Gold.PLP.part.nonpolar>
-28.8197

> <Gold.PLP.part.repulsive>
1.6355

> <Gold.PLP.ligand.clash>
1.2578

> <Gold.PLP.ligand.torsion>
0.4540

> <Gold.PLP.Chemscore.Hbond>
0.9357

> <Gold.PLP.Chemscore.CHOScore>
0.0000

> <Gold.PLP.Chemscore.Metal>
0.0000

> <Gold.Chemscore.Hbonds>
donor molecule, donor type, donor heavy atom, donor atom, acceptor molecule, acceptor atom, score
      L1  H     8    22       P1  2794  0.44

> <Gold.PLP.Chemscore.Internal.Correction>
   9.000000E+99

