#       Name:                CT1002167954
#       Creating user name   hitesit
#       Creation time:       Sun Apr 16 20:15:39 2023


#       File generated by GOLD software.
#

@<TRIPOS>MOLECULE
CT1002167954|ligand_prepared|mol2|1|dock1
    29    30     1
SMALL
NO_CHARGES


@<TRIPOS>ATOM
      1 C1          20.5418  -9.8037  -2.2508 C.3            1 RES1               0.0000
      2 C2          21.5736 -10.8917  -1.8894 C.ar           1 RES1               0.0000
      3 C3          19.7084  -9.5693  -0.9943 C.2            1 RES1               0.0000
      4 C4          21.3440  -8.5878  -2.7011 C.2            1 RES1               0.0000
      5 C5          19.5911 -10.2024  -3.4035 C.3            1 RES1               0.0000
      6 C6          22.8005 -10.5470  -1.3303 C.ar           1 RES1               0.0000
      7 C7          21.3122 -12.2419  -2.1065 C.ar           1 RES1               0.0000
      8 N8          19.9277  -8.4184  -0.2963 N.am           1 RES1               0.0000
      9 O9          18.8993 -10.4000  -0.6001 O.2            1 RES1               0.0000
     10 N10         21.2830  -7.4568  -1.9298 N.am           1 RES1               0.0000
     11 O11         22.0415  -8.6043  -3.7078 O.2            1 RES1               0.0000
     12 C12         18.7183  -9.0610  -3.9010 C.3            1 RES1               0.0000
     13 C13         23.7312 -11.5172  -0.9974 C.ar           1 RES1               0.0000
     14 C14         22.2445 -13.2105  -1.7731 C.ar           1 RES1               0.0000
     15 C15         20.6355  -7.3269  -0.7314 C.2            1 RES1               0.0000
     16 C16         23.4538 -12.8494  -1.2181 C.ar           1 RES1               0.0000
     17 O17         20.6718  -6.2939  -0.0691 O.2            1 RES1               0.0000
     18 H18         20.1906 -10.5795  -4.2412 H              1 RES1               0.0000
     19 H19         18.9433 -11.0187  -3.0606 H              1 RES1               0.0000
     20 H20         23.0375  -9.5035  -1.1515 H              1 RES1               0.0000
     21 H21         20.3679 -12.5492  -2.5430 H              1 RES1               0.0000
     22 H22         19.5285  -8.3643   0.6354 H              1 RES1               0.0000
     23 H23         21.7647  -6.6356  -2.2818 H              1 RES1               0.0000
     24 H24         18.0707  -9.3946  -4.7091 H              1 RES1               0.0000
     25 H25         18.0900  -8.6782  -3.0994 H              1 RES1               0.0000
     26 H26         19.3299  -8.2417  -4.2730 H              1 RES1               0.0000
     27 H27         24.6820 -11.2277  -0.5621 H              1 RES1               0.0000
     28 H28         22.0222 -14.2578  -1.9491 H              1 RES1               0.0000
     29 H29         24.1829 -13.6092  -0.9568 H              1 RES1               0.0000
@<TRIPOS>BOND
    1    1    2 1     
    2    1    3 1     
    3    1    4 1     
    4    1    5 1     
    5    2    6 ar    
    6    2    7 ar    
    7    3    8 1     
    8    3    9 2     
    9    4   10 1     
   10    4   11 2     
   11    5   12 1     
   12    5   18 1     
   13    5   19 1     
   14    6   13 ar    
   15    6   20 1     
   16    7   14 ar    
   17    7   21 1     
   18    8   15 1     
   19    8   22 1     
   20   10   15 1     
   21   10   23 1     
   22   12   24 1     
   23   12   25 1     
   24   12   26 1     
   25   13   16 ar    
   26   13   27 1     
   27   14   16 ar    
   28   14   28 1     
   29   15   17 2     
   30   16   29 1     
@<TRIPOS>SUBSTRUCTURE
      1 RES1           1
@<TRIPOS>SET
DONOR_HYDROGENS      STATIC     ATOMS    <user>   **** ""
2 22 23
ATOM$RED        STATIC     ATOMS    COLORGROUP SYSTEM
2 22 23
@<TRIPOS>COMMENT
> <Gold.Version>
2022.3.0

> <Gold.Id.Protein>
unknown|3oxt_clean|pdb

> <Gold.Protein.RotatedTorsions>
[  568  565  563  560 ] final   99.66 input   59.99 | X-H torsion
[  590  585  584  581 ] final  118.76 input   60.02 | X-H torsion
[ 2787 2780 2778 2775 ] final   18.17 input   60.00 | X-H torsion
[ 2470 2461 2460 2458 ] final  -27.39 input   59.98 | X-H torsion
[ 2545 2534 2533 2532 ] final  176.98 input   59.97 | X-H torsion
[ 1779 1770 1769 1767 ] final  -54.58 input   59.98 | X-H torsion
[ 5059 5050 5049 5047 ] final -108.17 input   60.00 | X-H torsion

> <Gold.Protein.ActiveResidues>
 THR48   LEU49   GLY50   THR51   GLY52   SER53   PHE54   GLY55   ARG56   VAL57  
 MET58   LEU59   VAL60   HIS68   TYR69   ALA70   MET71   LYS72   ILE73   LEU74  
 ASP75   VAL79   GLU91   LEU95   VAL104  LYS105  MET118  VAL119  MET120  GLU121 
 TYR122  VAL123  PRO124  GLY125  GLY126  GLU127  TYR164  ASP166  LYS168  GLU170 
 ASN171  LEU172  LEU173  ILE174  ASP175  GLN181  VAL182  THR183  ASP184  PHE185 
 GLY186  PHE327  ASP328  TYR330 

> <Gold.Protein.RotatedAtoms>
   20.1279  -13.0930    5.7097 H   0  0  0  0  0  0  0  0  0  0  0  0  # atno 568  bound_to 565 
   17.2743  -11.9633   -2.7761 H   0  0  0  0  0  0  0  0  0  0  0  0  # atno 590  bound_to 585 
   36.0107  -10.5760   10.3324 H   0  0  0  0  0  0  0  0  0  0  0  0  # atno 1779 bound_to 1770
   27.6433   -3.4097   -3.3957 H   0  0  0  0  0  0  0  0  0  0  0  0  # atno 2470 bound_to 2461
   20.1002   -4.9320    0.4040 H   0  0  0  0  0  0  0  0  0  0  0  0  # atno 2545 bound_to 2534
   19.6105   -4.0058    1.6890 H   0  0  0  0  0  0  0  0  0  0  0  0  # atno 2546 bound_to 2534
   19.4824   -3.4165    0.1448 H   0  0  0  0  0  0  0  0  0  0  0  0  # atno 2547 bound_to 2534
   31.7683   -7.5014   -1.8233 H   0  0  0  0  0  0  0  0  0  0  0  0  # atno 2787 bound_to 2780
   23.4750   -9.5764    9.9653 H   0  0  0  0  0  0  0  0  0  0  0  0  # atno 5059 bound_to 5050
   21.4979  -12.4200    6.2742 LP  0  0  0  0  0  0  0  0  0  0  0  0  # atno 5371 bound_to 565 
   20.7617  -13.6093    7.1169 LP  0  0  0  0  0  0  0  0  0  0  0  0  # atno 5372 bound_to 565 
   18.4306  -11.9800   -1.6307 LP  0  0  0  0  0  0  0  0  0  0  0  0  # atno 5375 bound_to 585 
   17.3221  -10.7813   -1.6583 LP  0  0  0  0  0  0  0  0  0  0  0  0  # atno 5376 bound_to 585 
   30.6405   -8.1518   -0.8469 LP  0  0  0  0  0  0  0  0  0  0  0  0  # atno 5395 bound_to 2780
   32.1841   -8.0076   -0.3337 LP  0  0  0  0  0  0  0  0  0  0  0  0  # atno 5396 bound_to 2780
   26.8886   -2.2074   -2.5999 LP  0  0  0  0  0  0  0  0  0  0  0  0  # atno 5401 bound_to 2461
   28.5195   -2.2438   -2.6739 LP  0  0  0  0  0  0  0  0  0  0  0  0  # atno 5402 bound_to 2461
   37.2005  -11.4404   11.0286 LP  0  0  0  0  0  0  0  0  0  0  0  0  # atno 5439 bound_to 1770
   35.8409  -12.1841   10.5138 LP  0  0  0  0  0  0  0  0  0  0  0  0  # atno 5440 bound_to 1770
   23.4739  -10.0300    8.4031 LP  0  0  0  0  0  0  0  0  0  0  0  0  # atno 5465 bound_to 5050
   24.8868   -9.8007    9.1890 LP  0  0  0  0  0  0  0  0  0  0  0  0  # atno 5466 bound_to 5050

> <Gold.Score>
     Fitness  S(hb_ext) S(vdw_ext)  S(hb_int)    S(int)      intcor
     44.18      12.18      23.57       0.00      -0.41      -0.78

> <Gold.Goldscore.Fitness>
44.1829

> <Gold.Goldscore.Internal.Vdw>
-0.7054

> <Gold.Goldscore.Internal.Torsion>
-0.4874

> <Gold.Goldscore.External.Vdw>
23.5705

> <Gold.Goldscore.Internal.HBond>
0.0000

> <Gold.Goldscore.External.HBond>
12.1842

> <Gold.Goldscore.Internal.Correction>
-0.7819

> <Gold.Goldscore.Hbonds>
donor molecule, donor type, donor heavy atom, donor atom, acceptor molecule, acceptor atom, score
      P1  H   580   586       L1     9  0.74
      P1  H  2534  2545       L1    17  0.91
      L1  H    10    23       P1  2502  0.87

> <Gold.Goldscore.Internal.Vdw.Weighted>
-0.7054

> <Gold.Goldscore.Internal.Torsion.Weighted>
-0.4874

> <Gold.Goldscore.External.Vdw.Weighted>
32.4095

> <Gold.Goldscore.Internal.HBond.Weighted>
0.0000

> <Gold.Goldscore.External.HBond.Weighted>
12.1842

> <Gold.Goldscore.Internal.Correction.Weighted>
-0.7819

> <Gold.Rescore>
     Score     S(PLP)   S(hbond)     S(cho)   S(metal)  DE(clash)   DE(tors)     intcor
     43.82     -37.41       2.86       0.00       0.00       0.33       0.92       ----

> <Gold.PLP.Fitness>
43.8220

> <Gold.PLP.PLP>
-37.4085

> <Gold.PLP.part.hbond>
-5.0000

> <Gold.PLP.part.metal>
0.0000

> <Gold.PLP.part.buried>
-0.6946

> <Gold.PLP.part.nonpolar>
-34.2455

> <Gold.PLP.part.repulsive>
0.5165

> <Gold.PLP.ligand.clash>
0.3309

> <Gold.PLP.ligand.torsion>
0.9238

> <Gold.PLP.Chemscore.Hbond>
2.8640

> <Gold.PLP.Chemscore.CHOScore>
0.0000

> <Gold.PLP.Chemscore.Metal>
0.0000

> <Gold.Chemscore.Hbonds>
donor molecule, donor type, donor heavy atom, donor atom, acceptor molecule, acceptor atom, score
      L1  H    10    23       P1  2502  0.52
      P1  H   580   586       L1     9  0.91
      P1  H  2534  2545       L1    17  0.88

> <Gold.PLP.Chemscore.Internal.Correction>
   9.000000E+99

