#       Name:                CT1002167954
#       Creating user name   hitesit
#       Creation time:       Sun Apr 16 20:15:47 2023


#       File generated by GOLD software.
#

@<TRIPOS>MOLECULE
CT1002167954|ligand_prepared|mol2|1|dock9
    29    30     1
SMALL
NO_CHARGES


@<TRIPOS>ATOM
      1 C1          25.6650  -9.7918   1.1736 C.3            1 RES1               0.0000
      2 C2          25.1140 -11.0205   0.4217 C.ar           1 RES1               0.0000
      3 C3          26.0673 -10.2833   2.5610 C.2            1 RES1               0.0000
      4 C4          26.8275  -9.2666   0.3384 C.2            1 RES1               0.0000
      5 C5          24.6383  -8.6468   1.3367 C.3            1 RES1               0.0000
      6 C6          24.6507 -10.9025  -0.8852 C.ar           1 RES1               0.0000
      7 C7          25.0650 -12.2768   1.0199 C.ar           1 RES1               0.0000
      8 N8          27.3992 -10.4120   2.8241 N.am           1 RES1               0.0000
      9 O9          25.2278 -10.5911   3.3981 O.2            1 RES1               0.0000
     10 N10         28.0862  -9.3340   0.8758 N.am           1 RES1               0.0000
     11 O11         26.6668  -8.8103  -0.7869 O.2            1 RES1               0.0000
     12 C12         25.1032  -7.5337   2.2625 C.3            1 RES1               0.0000
     13 C13         24.1591 -12.0011  -1.5705 C.ar           1 RES1               0.0000
     14 C14         24.5728 -13.3742   0.3329 C.ar           1 RES1               0.0000
     15 C15         28.4286  -9.9111   2.0683 C.2            1 RES1               0.0000
     16 C16         24.1202 -13.2377  -0.9622 C.ar           1 RES1               0.0000
     17 O17         29.5902  -9.9817   2.4590 O.2            1 RES1               0.0000
     18 H18         24.4264  -8.2192   0.3490 H              1 RES1               0.0000
     19 H19         23.7029  -9.0646   1.7289 H              1 RES1               0.0000
     20 H20         24.6712  -9.9369  -1.3795 H              1 RES1               0.0000
     21 H21         25.4147 -12.4077   2.0384 H              1 RES1               0.0000
     22 H22         27.6535 -10.9285   3.6601 H              1 RES1               0.0000
     23 H23         28.8376  -8.9152   0.3370 H              1 RES1               0.0000
     24 H24         24.3460  -6.7565   2.3417 H              1 RES1               0.0000
     25 H25         25.2990  -7.9190   3.2610 H              1 RES1               0.0000
     26 H26         26.0183  -7.0786   1.8893 H              1 RES1               0.0000
     27 H27         23.8028 -11.8881  -2.5891 H              1 RES1               0.0000
     28 H28         24.5435 -14.3454   0.8158 H              1 RES1               0.0000
     29 H29         23.7354 -14.0982  -1.4994 H              1 RES1               0.0000
@<TRIPOS>BOND
    1    1    2 1     
    2    1    3 1     
    3    1    4 1     
    4    1    5 1     
    5    2    6 ar    
    6    2    7 ar    
    7    3    8 1     
    8    3    9 2     
    9    4   10 1     
   10    4   11 2     
   11    5   12 1     
   12    5   18 1     
   13    5   19 1     
   14    6   13 ar    
   15    6   20 1     
   16    7   14 ar    
   17    7   21 1     
   18    8   15 1     
   19    8   22 1     
   20   10   15 1     
   21   10   23 1     
   22   12   24 1     
   23   12   25 1     
   24   12   26 1     
   25   13   16 ar    
   26   13   27 1     
   27   14   16 ar    
   28   14   28 1     
   29   15   17 2     
   30   16   29 1     
@<TRIPOS>SUBSTRUCTURE
      1 RES1           1
@<TRIPOS>SET
DONOR_HYDROGENS      STATIC     ATOMS    <user>   **** ""
2 22 23
ATOM$RED        STATIC     ATOMS    COLORGROUP SYSTEM
2 22 23
@<TRIPOS>COMMENT
> <Gold.Version>
2022.3.0

> <Gold.Id.Protein>
unknown|3oxt_clean|pdb

> <Gold.Protein.RotatedTorsions>
[  568  565  563  560 ] final -102.35 input   59.99 | X-H torsion
[  590  585  584  581 ] final  159.50 input   60.02 | X-H torsion
[ 2787 2780 2778 2775 ] final  123.52 input   60.00 | X-H torsion
[ 2470 2461 2460 2458 ] final  -98.04 input   59.98 | X-H torsion
[ 2545 2534 2533 2532 ] final   36.86 input   59.97 | X-H torsion
[ 1779 1770 1769 1767 ] final -176.83 input   59.98 | X-H torsion
[ 5059 5050 5049 5047 ] final   90.54 input   60.00 | X-H torsion

> <Gold.Protein.ActiveResidues>
 THR48   LEU49   GLY50   THR51   GLY52   SER53   PHE54   GLY55   ARG56   VAL57  
 MET58   LEU59   VAL60   HIS68   TYR69   ALA70   MET71   LYS72   ILE73   LEU74  
 ASP75   VAL79   GLU91   LEU95   VAL104  LYS105  MET118  VAL119  MET120  GLU121 
 TYR122  VAL123  PRO124  GLY125  GLY126  GLU127  TYR164  ASP166  LYS168  GLU170 
 ASN171  LEU172  LEU173  ILE174  ASP175  GLN181  VAL182  THR183  ASP184  PHE185 
 GLY186  PHE327  ASP328  TYR330 

> <Gold.Protein.RotatedAtoms>
   21.2559  -13.2505    7.1527 H   0  0  0  0  0  0  0  0  0  0  0  0  # atno 568  bound_to 565 
   16.9562  -11.4210   -2.6038 H   0  0  0  0  0  0  0  0  0  0  0  0  # atno 590  bound_to 585 
   37.1911  -11.4768   11.0273 H   0  0  0  0  0  0  0  0  0  0  0  0  # atno 1779 bound_to 1770
   26.7879   -2.8627   -3.0193 H   0  0  0  0  0  0  0  0  0  0  0  0  # atno 2470 bound_to 2461
   19.3998   -3.2751    0.4367 H   0  0  0  0  0  0  0  0  0  0  0  0  # atno 2545 bound_to 2534
   20.0526   -4.7654    0.1181 H   0  0  0  0  0  0  0  0  0  0  0  0  # atno 2546 bound_to 2534
   19.7406   -4.3133    1.6822 H   0  0  0  0  0  0  0  0  0  0  0  0  # atno 2547 bound_to 2534
   32.3218   -7.9065   -0.5018 H   0  0  0  0  0  0  0  0  0  0  0  0  # atno 2787 bound_to 2780
   24.1286  -10.0599    8.3078 H   0  0  0  0  0  0  0  0  0  0  0  0  # atno 5059 bound_to 5050
   20.0026  -13.5033    6.1459 LP  0  0  0  0  0  0  0  0  0  0  0  0  # atno 5371 bound_to 565 
   21.1213  -12.3674    5.7925 LP  0  0  0  0  0  0  0  0  0  0  0  0  # atno 5372 bound_to 565 
   18.2291  -12.3278   -2.1495 LP  0  0  0  0  0  0  0  0  0  0  0  0  # atno 5375 bound_to 585 
   17.8437  -10.9794   -1.3129 LP  0  0  0  0  0  0  0  0  0  0  0  0  # atno 5376 bound_to 585 
   31.5372   -7.5343   -1.8780 LP  0  0  0  0  0  0  0  0  0  0  0  0  # atno 5395 bound_to 2780
   30.7299   -8.2171   -0.6336 LP  0  0  0  0  0  0  0  0  0  0  0  0  # atno 5396 bound_to 2780
   27.8977   -1.8461   -2.4002 LP  0  0  0  0  0  0  0  0  0  0  0  0  # atno 5401 bound_to 2461
   28.3716   -3.1558   -3.2526 LP  0  0  0  0  0  0  0  0  0  0  0  0  # atno 5402 bound_to 2461
   35.8143  -12.1637   10.4981 LP  0  0  0  0  0  0  0  0  0  0  0  0  # atno 5439 bound_to 1770
   36.0383  -10.5535   10.3444 LP  0  0  0  0  0  0  0  0  0  0  0  0  # atno 5440 bound_to 1770
   24.6514   -9.6265    9.7861 LP  0  0  0  0  0  0  0  0  0  0  0  0  # atno 5465 bound_to 5050
   23.0505   -9.7168    9.4767 LP  0  0  0  0  0  0  0  0  0  0  0  0  # atno 5466 bound_to 5050

> <Gold.Score>
     Fitness  S(hb_ext) S(vdw_ext)  S(hb_int)    S(int)      intcor
     32.15       0.37      25.53       0.00      -3.33      -0.76

> <Gold.Goldscore.Fitness>
32.1495

> <Gold.Goldscore.Internal.Vdw>
-3.5766

> <Gold.Goldscore.Internal.Torsion>
-0.5054

> <Gold.Goldscore.External.Vdw>
25.5283

> <Gold.Goldscore.Internal.HBond>
0.0000

> <Gold.Goldscore.External.HBond>
0.3749

> <Gold.Goldscore.Internal.Correction>
-0.7552

> <Gold.Goldscore.Hbonds>
donor molecule, donor type, donor heavy atom, donor atom, acceptor molecule, acceptor atom, score
      L1  H    10    23       P1  2780  0.19

> <Gold.Goldscore.Internal.Vdw.Weighted>
-3.5766

> <Gold.Goldscore.Internal.Torsion.Weighted>
-0.5054

> <Gold.Goldscore.External.Vdw.Weighted>
35.1014

> <Gold.Goldscore.Internal.HBond.Weighted>
0.0000

> <Gold.Goldscore.External.HBond.Weighted>
0.3749

> <Gold.Goldscore.Internal.Correction.Weighted>
-0.7552

> <Gold.Rescore>
     Score     S(PLP)   S(hbond)     S(cho)   S(metal)  DE(clash)   DE(tors)     intcor
     31.60     -33.35       0.00       0.00       0.00       1.37       0.19       ----

> <Gold.PLP.Fitness>
31.5966

> <Gold.PLP.PLP>
-33.3495

> <Gold.PLP.part.hbond>
-1.0000

> <Gold.PLP.part.metal>
0.0000

> <Gold.PLP.part.buried>
-4.4902

> <Gold.PLP.part.nonpolar>
-30.5199

> <Gold.PLP.part.repulsive>
1.7797

> <Gold.PLP.ligand.clash>
1.3720

> <Gold.PLP.ligand.torsion>
0.1904

> <Gold.PLP.Chemscore.Hbond>
0.0000

> <Gold.PLP.Chemscore.CHOScore>
0.0000

> <Gold.PLP.Chemscore.Metal>
0.0000

> <Gold.Chemscore.Hbonds>
donor molecule, donor type, donor heavy atom, donor atom, acceptor molecule, acceptor atom, score
      P1  H   894   905       L1    11  0.21

> <Gold.PLP.Chemscore.Internal.Correction>
   9.000000E+99

