#       Name:                CT1002167954
#       Creating user name   hitesit
#       Creation time:       Sun Apr 16 02:21:38 2023


#       File generated by GOLD software.
#

@<TRIPOS>MOLECULE
CT1002167954|ligand_prepared|mol2|1|dock6
    29    30     1
SMALL
NO_CHARGES


@<TRIPOS>ATOM
      1 C1          42.0032  31.6664  31.4549 C.3            1 RES1               0.0000
      2 C2          40.4650  31.7088  31.5597 C.ar           1 RES1               0.0000
      3 C3          42.4959  30.9118  32.6862 C.2            1 RES1               0.0000
      4 C4          42.3218  30.9760  30.1333 C.2            1 RES1               0.0000
      5 C5          42.6669  33.0630  31.4364 C.3            1 RES1               0.0000
      6 C6          39.8041  31.0142  32.5684 C.ar           1 RES1               0.0000
      7 C7          39.6950  32.4389  30.6583 C.ar           1 RES1               0.0000
      8 N8          42.9517  29.6390  32.5068 N.am           1 RES1               0.0000
      9 O9          42.4485  31.4117  33.8034 O.2            1 RES1               0.0000
     10 N10         42.9512  29.7596  30.1797 N.am           1 RES1               0.0000
     11 O11         42.0187  31.4666  29.0527 O.2            1 RES1               0.0000
     12 C12         44.1868  33.0194  31.4210 C.3            1 RES1               0.0000
     13 C13         38.4236  31.0505  32.6741 C.ar           1 RES1               0.0000
     14 C14         38.3145  32.4738  30.7656 C.ar           1 RES1               0.0000
     15 C15         43.2530  29.0456  31.3073 C.2            1 RES1               0.0000
     16 C16         37.6779  31.7806  31.7732 C.ar           1 RES1               0.0000
     17 O17         43.7703  27.9331  31.2664 O.2            1 RES1               0.0000
     18 H18         42.3203  33.6071  30.5492 H              1 RES1               0.0000
     19 H19         42.3388  33.6216  32.3217 H              1 RES1               0.0000
     20 H20         40.3740  30.4322  33.2851 H              1 RES1               0.0000
     21 H21         40.1742  32.9911  29.8570 H              1 RES1               0.0000
     22 H22         43.0802  29.0763  33.3417 H              1 RES1               0.0000
     23 H23         43.2198  29.3484  29.2914 H              1 RES1               0.0000
     24 H24         44.6014  34.0252  31.4084 H              1 RES1               0.0000
     25 H25         44.5670  32.5072  32.3024 H              1 RES1               0.0000
     26 H26         44.5486  32.4927  30.5404 H              1 RES1               0.0000
     27 H27         37.9274  30.5022  33.4680 H              1 RES1               0.0000
     28 H28         37.7316  33.0491  30.0540 H              1 RES1               0.0000
     29 H29         36.5965  31.8092  31.8564 H              1 RES1               0.0000
@<TRIPOS>BOND
    1    1    2 1     
    2    1    3 1     
    3    1    4 1     
    4    1    5 1     
    5    2    6 ar    
    6    2    7 ar    
    7    3    8 1     
    8    3    9 2     
    9    4   10 1     
   10    4   11 2     
   11    5   12 1     
   12    5   18 1     
   13    5   19 1     
   14    6   13 ar    
   15    6   20 1     
   16    7   14 ar    
   17    7   21 1     
   18    8   15 1     
   19    8   22 1     
   20   10   15 1     
   21   10   23 1     
   22   12   24 1     
   23   12   25 1     
   24   12   26 1     
   25   13   16 ar    
   26   13   27 1     
   27   14   16 ar    
   28   14   28 1     
   29   15   17 2     
   30   16   29 1     
@<TRIPOS>SUBSTRUCTURE
      1 RES1           1
@<TRIPOS>SET
DONOR_HYDROGENS      STATIC     ATOMS    <user>   **** ""
2 22 23
ATOM$RED        STATIC     ATOMS    COLORGROUP SYSTEM
2 22 23
@<TRIPOS>COMMENT
> <Gold.Version>
2022.3.0

> <Gold.Id.Protein>
unknown|2zaz_clean|pdb

> <Gold.Protein.RotatedTorsions>
[ 1651 1646 1644 1641 ] final  139.42 input   60.01 | X-H torsion
[ 2465 2462 2458 2455 ] final  166.02 input  -12.99 | X-H torsion

> <Gold.Protein.ActiveResidues>
 TRP18   SER28   PRO29   VAL30   GLY31   GLY36   SER37   VAL38   CYS39   ALA40  
 ALA41   ARG49   VAL50   ALA51   VAL52   LYS53   LYS54   LEU55   GLU71   LEU75  
 ILE84   GLY85   LEU86   LEU87   TYR103  LEU104  VAL105  THR106  HIS107  LEU108 
 MET109  GLY110  ALA111  ASP112  ASN115  HIS148  ASN155  ALA157  LYS165  ILE166 
 LEU167  ASP168  PHE169  GLY170  LEU171 

> <Gold.Protein.RotatedAtoms>
   40.7290   35.2228   32.8328 H   0  0  0  0  0  0  0  0  0  0  0  0  # atno 1651 bound_to 1646
   47.6912   25.4520   36.7990 H   0  0  0  0  0  0  0  0  0  0  0  0  # atno 2465 bound_to 2455 2458 2462
   40.1709   36.1293   31.6023 LP  0  0  0  0  0  0  0  0  0  0  0  0  # atno 5613 bound_to 1646
   39.7911   34.5435   31.6900 LP  0  0  0  0  0  0  0  0  0  0  0  0  # atno 5614 bound_to 1646
   48.1539   26.9076   36.0500 LP  0  0  0  0  0  0  0  0  0  0  0  0  # atno 5634 bound_to 2462
   46.6363   26.3526   35.8140 LP  0  0  0  0  0  0  0  0  0  0  0  0  # atno 5635 bound_to 2462

> <Gold.Score>
     Fitness  S(hb_ext) S(vdw_ext)  S(hb_int)    S(int)      intcor
     32.90       4.40      22.65       0.00      -2.64      -0.78

> <Gold.Goldscore.Fitness>
32.8991

> <Gold.Goldscore.Internal.Vdw>
-3.0356

> <Gold.Goldscore.Internal.Torsion>
-0.3896

> <Gold.Goldscore.External.Vdw>
22.6462

> <Gold.Goldscore.Internal.HBond>
0.0000

> <Gold.Goldscore.External.HBond>
4.4018

> <Gold.Goldscore.Internal.Correction>
-0.7838

> <Gold.Goldscore.Hbonds>
donor molecule, donor type, donor heavy atom, donor atom, acceptor molecule, acceptor atom, score
      L1  H     8    22       P1  2670  0.73

> <Gold.Goldscore.Internal.Vdw.Weighted>
-3.0356

> <Gold.Goldscore.Internal.Torsion.Weighted>
-0.3896

> <Gold.Goldscore.External.Vdw.Weighted>
31.1386

> <Gold.Goldscore.Internal.HBond.Weighted>
0.0000

> <Gold.Goldscore.External.HBond.Weighted>
4.4018

> <Gold.Goldscore.Internal.Correction.Weighted>
-0.7838

> <Gold.Rescore>
     Score     S(PLP)   S(hbond)     S(cho)   S(metal)  DE(clash)   DE(tors)     intcor
     35.07     -34.55       0.91       0.00       0.00       1.94       0.14       ----

> <Gold.PLP.Fitness>
35.0672

> <Gold.PLP.PLP>
-34.5537

> <Gold.PLP.part.hbond>
-0.8833

> <Gold.PLP.part.metal>
0.0000

> <Gold.PLP.part.buried>
-4.1901

> <Gold.PLP.part.nonpolar>
-31.6402

> <Gold.PLP.part.repulsive>
0.2484

> <Gold.PLP.ligand.clash>
1.9351

> <Gold.PLP.ligand.torsion>
0.1407

> <Gold.PLP.Chemscore.Hbond>
0.9100

> <Gold.PLP.Chemscore.CHOScore>
0.0000

> <Gold.PLP.Chemscore.Metal>
0.0000

> <Gold.Chemscore.Hbonds>
donor molecule, donor type, donor heavy atom, donor atom, acceptor molecule, acceptor atom, score
      L1  H     8    22       P1  2670  0.93

> <Gold.PLP.Chemscore.Internal.Correction>
   9.000000E+99

