#       Name:                CT1002167954
#       Creating user name   hitesit
#       Creation time:       Sun Apr 16 02:21:39 2023


#       File generated by GOLD software.
#

@<TRIPOS>MOLECULE
CT1002167954|ligand_prepared|mol2|1|dock7
    29    30     1
SMALL
NO_CHARGES


@<TRIPOS>ATOM
      1 C1          42.2481  32.1127  31.7593 C.3            1 RES1               0.0000
      2 C2          40.7768  32.1633  31.2994 C.ar           1 RES1               0.0000
      3 C3          43.0899  32.0050  30.4913 C.2            1 RES1               0.0000
      4 C4          42.4890  33.3879  32.5595 C.2            1 RES1               0.0000
      5 C5          42.5766  30.9074  32.6709 C.3            1 RES1               0.0000
      6 C6          40.4276  32.7954  30.1097 C.ar           1 RES1               0.0000
      7 C7          39.7598  31.5811  32.0513 C.ar           1 RES1               0.0000
      8 N8          43.7782  33.1132  30.0938 N.am           1 RES1               0.0000
      9 O9          43.1181  30.9753  29.8285 O.2            1 RES1               0.0000
     10 N10         43.3689  34.3077  32.0522 N.am           1 RES1               0.0000
     11 O11         41.9121  33.6121  33.6166 O.2            1 RES1               0.0000
     12 C12         44.0659  30.6370  32.8168 C.3            1 RES1               0.0000
     13 C13         39.1099  32.8413  29.6856 C.ar           1 RES1               0.0000
     14 C14         38.4427  31.6283  31.6254 C.ar           1 RES1               0.0000
     15 C15         44.0012  34.2421  30.8405 C.2            1 RES1               0.0000
     16 C16         38.1167  32.2575  30.4428 C.ar           1 RES1               0.0000
     17 O17         44.7363  35.1352  30.4293 O.2            1 RES1               0.0000
     18 H18         42.1520  31.0909  33.6656 H              1 RES1               0.0000
     19 H19         42.0938  30.0121  32.2602 H              1 RES1               0.0000
     20 H20         41.1953  33.2625  29.5018 H              1 RES1               0.0000
     21 H21         39.9927  31.0816  32.9856 H              1 RES1               0.0000
     22 H22         44.1626  33.1016  29.1544 H              1 RES1               0.0000
     23 H23         43.5715  35.1162  32.6316 H              1 RES1               0.0000
     24 H24         44.2408  29.7817  33.4661 H              1 RES1               0.0000
     25 H25         44.5161  30.4256  31.8491 H              1 RES1               0.0000
     26 H26         44.5739  31.4980  33.2462 H              1 RES1               0.0000
     27 H27         38.8584  33.3389  28.7548 H              1 RES1               0.0000
     28 H28         37.6642  31.1680  32.2249 H              1 RES1               0.0000
     29 H29         37.0846  32.2932  30.1101 H              1 RES1               0.0000
@<TRIPOS>BOND
    1    1    2 1     
    2    1    3 1     
    3    1    4 1     
    4    1    5 1     
    5    2    6 ar    
    6    2    7 ar    
    7    3    8 1     
    8    3    9 2     
    9    4   10 1     
   10    4   11 2     
   11    5   12 1     
   12    5   18 1     
   13    5   19 1     
   14    6   13 ar    
   15    6   20 1     
   16    7   14 ar    
   17    7   21 1     
   18    8   15 1     
   19    8   22 1     
   20   10   15 1     
   21   10   23 1     
   22   12   24 1     
   23   12   25 1     
   24   12   26 1     
   25   13   16 ar    
   26   13   27 1     
   27   14   16 ar    
   28   14   28 1     
   29   15   17 2     
   30   16   29 1     
@<TRIPOS>SUBSTRUCTURE
      1 RES1           1
@<TRIPOS>SET
DONOR_HYDROGENS      STATIC     ATOMS    <user>   **** ""
2 22 23
ATOM$RED        STATIC     ATOMS    COLORGROUP SYSTEM
2 22 23
@<TRIPOS>COMMENT
> <Gold.Version>
2022.3.0

> <Gold.Id.Protein>
unknown|2zaz_clean|pdb

> <Gold.Protein.RotatedTorsions>
[ 1651 1646 1644 1641 ] final  -63.24 input   60.01 | X-H torsion
[ 2465 2462 2458 2455 ] final -107.64 input  -12.99 | X-H torsion

> <Gold.Protein.ActiveResidues>
 TRP18   SER28   PRO29   VAL30   GLY31   GLY36   SER37   VAL38   CYS39   ALA40  
 ALA41   ARG49   VAL50   ALA51   VAL52   LYS53   LYS54   LEU55   GLU71   LEU75  
 ILE84   GLY85   LEU86   LEU87   TYR103  LEU104  VAL105  THR106  HIS107  LEU108 
 MET109  GLY110  ALA111  ASP112  ASN115  HIS148  ASN155  ALA157  LYS165  ILE166 
 LEU167  ASP168  PHE169  GLY170  LEU171 

> <Gold.Protein.RotatedAtoms>
   39.6865   35.0185   31.3364 H   0  0  0  0  0  0  0  0  0  0  0  0  # atno 1651 bound_to 1646
   46.6269   25.9041   36.7350 H   0  0  0  0  0  0  0  0  0  0  0  0  # atno 2465 bound_to 2455 2458 2462
   40.4986   34.6822   32.7055 LP  0  0  0  0  0  0  0  0  0  0  0  0  # atno 5613 bound_to 1646
   40.5138   36.1965   32.0946 LP  0  0  0  0  0  0  0  0  0  0  0  0  # atno 5614 bound_to 1646
   48.1001   25.7308   35.9021 LP  0  0  0  0  0  0  0  0  0  0  0  0  # atno 5634 bound_to 2462
   47.4287   27.2157   36.0063 LP  0  0  0  0  0  0  0  0  0  0  0  0  # atno 5635 bound_to 2462

> <Gold.Score>
     Fitness  S(hb_ext) S(vdw_ext)  S(hb_int)    S(int)      intcor
     38.91       2.00      27.31       0.00      -0.64      -0.78

> <Gold.Goldscore.Fitness>
38.9078

> <Gold.Goldscore.Internal.Vdw>
-0.6689

> <Gold.Goldscore.Internal.Torsion>
-0.7493

> <Gold.Goldscore.External.Vdw>
27.3096

> <Gold.Goldscore.Internal.HBond>
0.0000

> <Gold.Goldscore.External.HBond>
2.0000

> <Gold.Goldscore.Internal.Correction>
-0.7752

> <Gold.Goldscore.Hbonds>
donor molecule, donor type, donor heavy atom, donor atom, acceptor molecule, acceptor atom, score
      P1  H  1690  1698       L1    17  1.00

> <Gold.Goldscore.Internal.Vdw.Weighted>
-0.6689

> <Gold.Goldscore.Internal.Torsion.Weighted>
-0.7493

> <Gold.Goldscore.External.Vdw.Weighted>
37.5508

> <Gold.Goldscore.Internal.HBond.Weighted>
0.0000

> <Gold.Goldscore.External.HBond.Weighted>
2.0000

> <Gold.Goldscore.Internal.Correction.Weighted>
-0.7752

> <Gold.Rescore>
     Score     S(PLP)   S(hbond)     S(cho)   S(metal)  DE(clash)   DE(tors)     intcor
     38.01     -37.27       1.00       0.00       0.00       0.00       1.13       ----

> <Gold.PLP.Fitness>
38.0113

> <Gold.PLP.PLP>
-37.2696

> <Gold.PLP.part.hbond>
-1.0000

> <Gold.PLP.part.metal>
0.0000

> <Gold.PLP.part.buried>
-3.2980

> <Gold.PLP.part.nonpolar>
-32.3050

> <Gold.PLP.part.repulsive>
0.1773

> <Gold.PLP.ligand.clash>
0.0000

> <Gold.PLP.ligand.torsion>
1.1292

> <Gold.PLP.Chemscore.Hbond>
1.0000

> <Gold.PLP.Chemscore.CHOScore>
0.0000

> <Gold.PLP.Chemscore.Metal>
0.0000

> <Gold.Chemscore.Hbonds>
donor molecule, donor type, donor heavy atom, donor atom, acceptor molecule, acceptor atom, score
      P1  H  1690  1698       L1    17  0.71

> <Gold.PLP.Chemscore.Internal.Correction>
   9.000000E+99

