#       Name:                CT1002167954
#       Creating user name   hitesit
#       Creation time:       Sun Apr 16 20:15:40 2023


#       File generated by GOLD software.
#

@<TRIPOS>MOLECULE
CT1002167954|ligand_prepared|mol2|1|dock5
    29    30     1
SMALL
NO_CHARGES


@<TRIPOS>ATOM
      1 C1          27.0916   9.1116  -3.8901 C.3            1 RES1               0.0000
      2 C2          28.5504   9.6004  -3.7823 C.ar           1 RES1               0.0000
      3 C3          27.1612   7.6115  -4.1608 C.2            1 RES1               0.0000
      4 C4          26.4212   9.4750  -2.5699 C.2            1 RES1               0.0000
      5 C5          26.2914   9.7801  -5.0322 C.3            1 RES1               0.0000
      6 C6          29.3006   9.8498  -4.9276 C.ar           1 RES1               0.0000
      7 C7          29.1577   9.8086  -2.5468 C.ar           1 RES1               0.0000
      8 N8          26.8375   6.7693  -3.1382 N.am           1 RES1               0.0000
      9 O9          27.5327   7.1740  -5.2429 O.2            1 RES1               0.0000
     10 N10         26.0081   8.4524  -1.7566 N.am           1 RES1               0.0000
     11 O11         26.2620  10.6377  -2.2189 O.2            1 RES1               0.0000
     12 C12         24.8320   9.3569  -5.0877 C.3            1 RES1               0.0000
     13 C13         30.6096  10.2942  -4.8410 C.ar           1 RES1               0.0000
     14 C14         30.4669  10.2528  -2.4625 C.ar           1 RES1               0.0000
     15 C15         26.2135   7.1161  -1.9669 C.2            1 RES1               0.0000
     16 C16         31.1934  10.4964  -3.6086 C.ar           1 RES1               0.0000
     17 O17         25.8606   6.2585  -1.1624 O.2            1 RES1               0.0000
     18 H18         26.3388  10.8688  -4.9062 H              1 RES1               0.0000
     19 H19         26.7674   9.5323  -5.9890 H              1 RES1               0.0000
     20 H20         28.8588   9.6941  -5.9062 H              1 RES1               0.0000
     21 H21         28.6057   9.6224  -1.6318 H              1 RES1               0.0000
     22 H22         27.0820   5.7911  -3.2552 H              1 RES1               0.0000
     23 H23         25.5003   8.7114  -0.9167 H              1 RES1               0.0000
     24 H24         24.3168   9.8549  -5.9064 H              1 RES1               0.0000
     25 H25         24.7473   8.2826  -5.2375 H              1 RES1               0.0000
     26 H26         24.3212   9.6112  -4.1612 H              1 RES1               0.0000
     27 H27         31.1775  10.4831  -5.7460 H              1 RES1               0.0000
     28 H28         30.9226  10.4099  -1.4904 H              1 RES1               0.0000
     29 H29         32.2187  10.8448  -3.5410 H              1 RES1               0.0000
@<TRIPOS>BOND
    1    1    2 1     
    2    1    3 1     
    3    1    4 1     
    4    1    5 1     
    5    2    6 ar    
    6    2    7 ar    
    7    3    8 1     
    8    3    9 2     
    9    4   10 1     
   10    4   11 2     
   11    5   12 1     
   12    5   18 1     
   13    5   19 1     
   14    6   13 ar    
   15    6   20 1     
   16    7   14 ar    
   17    7   21 1     
   18    8   15 1     
   19    8   22 1     
   20   10   15 1     
   21   10   23 1     
   22   12   24 1     
   23   12   25 1     
   24   12   26 1     
   25   13   16 ar    
   26   13   27 1     
   27   14   16 ar    
   28   14   28 1     
   29   15   17 2     
   30   16   29 1     
@<TRIPOS>SUBSTRUCTURE
      1 RES1           1
@<TRIPOS>SET
DONOR_HYDROGENS      STATIC     ATOMS    <user>   **** ""
2 22 23
ATOM$RED        STATIC     ATOMS    COLORGROUP SYSTEM
2 22 23
@<TRIPOS>COMMENT
> <Gold.Version>
2022.3.0

> <Gold.Id.Protein>
unknown|3nx8_clean|pdb

> <Gold.Protein.RotatedTorsions>
[ 1751 1744 1743 1741 ] final  158.74 input   60.01 | X-H torsion
[ 2770 2763 2761 2758 ] final  -52.85 input   60.01 | X-H torsion
[ 5056 5047 5046 5044 ] final -100.60 input   59.99 | X-H torsion

> <Gold.Protein.ActiveResidues>
 LEU49   GLY50   THR51   GLY52   ARG56   VAL57   MET58   LEU59   VAL60   HIS68  
 TYR69   ALA70   MET71   LYS72   LEU95   VAL104  LYS105  MET118  VAL119  MET120 
 GLU121  TYR122  VAL123  PRO124  GLY125  GLY126  GLU127  GLU170  ASN171  LEU173 
 ILE174  GLN181  VAL182  THR183  ASP184  PHE327  TYR330 

> <Gold.Protein.RotatedAtoms>
   35.4853   12.3142  -11.4255 H   0  0  0  0  0  0  0  0  0  0  0  0  # atno 1751 bound_to 1744
   28.8312    8.1945    1.0057 H   0  0  0  0  0  0  0  0  0  0  0  0  # atno 2770 bound_to 2763
   22.3597    9.7678  -10.1504 H   0  0  0  0  0  0  0  0  0  0  0  0  # atno 5056 bound_to 5047
   33.9942   12.2568  -10.7762 LP  0  0  0  0  0  0  0  0  0  0  0  0  # atno 5370 bound_to 1744
   34.8696   10.8881  -10.9403 LP  0  0  0  0  0  0  0  0  0  0  0  0  # atno 5371 bound_to 1744
   29.6100    8.7543   -0.3093 LP  0  0  0  0  0  0  0  0  0  0  0  0  # atno 5378 bound_to 2763
   30.4513    8.3490    1.0303 LP  0  0  0  0  0  0  0  0  0  0  0  0  # atno 5379 bound_to 2763

> <Gold.Score>
     Fitness  S(hb_ext) S(vdw_ext)  S(hb_int)    S(int)      intcor
     32.93       0.44      24.73       0.00      -1.51      -0.76

> <Gold.Goldscore.Fitness>
32.9297

> <Gold.Goldscore.Internal.Vdw>
-1.8867

> <Gold.Goldscore.Internal.Torsion>
-0.3824

> <Gold.Goldscore.External.Vdw>
24.7277

> <Gold.Goldscore.Internal.HBond>
0.0000

> <Gold.Goldscore.External.HBond>
0.4396

> <Gold.Goldscore.Internal.Correction>
-0.7585

> <Gold.Goldscore.Hbonds>
donor molecule, donor type, donor heavy atom, donor atom, acceptor molecule, acceptor atom, score
      L1  H    10    23       P1  2777  0.07

> <Gold.Goldscore.Internal.Vdw.Weighted>
-1.8867

> <Gold.Goldscore.Internal.Torsion.Weighted>
-0.3824

> <Gold.Goldscore.External.Vdw.Weighted>
34.0006

> <Gold.Goldscore.Internal.HBond.Weighted>
0.0000

> <Gold.Goldscore.External.HBond.Weighted>
0.4396

> <Gold.Goldscore.Internal.Correction.Weighted>
-0.7585

> <Gold.Rescore>
     Score     S(PLP)   S(hbond)     S(cho)   S(metal)  DE(clash)   DE(tors)     intcor
     15.98     -16.97       0.27       0.00       0.00       0.00       0.91       ----

> <Gold.PLP.Fitness>
15.9815

> <Gold.PLP.PLP>
-16.9730

> <Gold.PLP.part.hbond>
-1.0000

> <Gold.PLP.part.metal>
0.0000

> <Gold.PLP.part.buried>
11.3256

> <Gold.PLP.part.nonpolar>
-34.3272

> <Gold.PLP.part.repulsive>
5.6821

> <Gold.PLP.ligand.clash>
0.0000

> <Gold.PLP.ligand.torsion>
0.9052

> <Gold.PLP.Chemscore.Hbond>
0.2730

> <Gold.PLP.Chemscore.CHOScore>
0.0000

> <Gold.PLP.Chemscore.Metal>
0.0000

> <Gold.Chemscore.Hbonds>
donor molecule, donor type, donor heavy atom, donor atom, acceptor molecule, acceptor atom, score
      L1  H     8    22       P1  2555  0.12

> <Gold.PLP.Chemscore.Internal.Correction>
   9.000000E+99

