#       Name:                CT1002167954
#       Creating user name   hitesit
#       Creation time:       Sun Apr 16 20:15:43 2023


#       File generated by GOLD software.
#

@<TRIPOS>MOLECULE
CT1002167954|ligand_prepared|mol2|1|dock8
    29    30     1
SMALL
NO_CHARGES


@<TRIPOS>ATOM
      1 C1          26.5809  10.0085  -1.3592 C.3            1 RES1               0.0000
      2 C2          27.9790  10.1234  -2.0004 C.ar           1 RES1               0.0000
      3 C3          25.5915  10.5444  -2.3898 C.2            1 RES1               0.0000
      4 C4          26.3876   8.5349  -1.0188 C.2            1 RES1               0.0000
      5 C5          26.4225  10.8248  -0.0553 C.3            1 RES1               0.0000
      6 C6          29.1256  10.0780  -1.2130 C.ar           1 RES1               0.0000
      7 C7          28.1378  10.2724  -3.3756 C.ar           1 RES1               0.0000
      8 N8          24.8112   9.6393  -3.0468 N.am           1 RES1               0.0000
      9 O9          25.5249  11.7394  -2.6505 O.2            1 RES1               0.0000
     10 N10         25.4116   7.8440  -1.6881 N.am           1 RES1               0.0000
     11 O11         27.0827   7.9617  -0.1891 O.2            1 RES1               0.0000
     12 C12         24.9858  10.9300   0.4314 C.3            1 RES1               0.0000
     13 C13         30.3855  10.1749  -1.7801 C.ar           1 RES1               0.0000
     14 C14         29.3987  10.3694  -3.9406 C.ar           1 RES1               0.0000
     15 C15         24.6352   8.3216  -2.7085 C.2            1 RES1               0.0000
     16 C16         30.5229  10.3202  -3.1441 C.ar           1 RES1               0.0000
     17 O17         23.8160   7.6231  -3.2985 O.2            1 RES1               0.0000
     18 H18         27.0281  10.3563   0.7303 H              1 RES1               0.0000
     19 H19         26.8137  11.8360  -0.2221 H              1 RES1               0.0000
     20 H20         29.0371   9.9666  -0.1375 H              1 RES1               0.0000
     21 H21         27.2675  10.3146  -4.0216 H              1 RES1               0.0000
     22 H22         24.3124   9.9730  -3.8655 H              1 RES1               0.0000
     23 H23         25.2487   6.8849  -1.3986 H              1 RES1               0.0000
     24 H24         24.9310  11.5125   1.3487 H              1 RES1               0.0000
     25 H25         24.3600  11.4142  -0.3154 H              1 RES1               0.0000
     26 H26         24.5731   9.9433   0.6314 H              1 RES1               0.0000
     27 H27         31.2670  10.1371  -1.1487 H              1 RES1               0.0000
     28 H28         29.5021  10.4843  -5.0146 H              1 RES1               0.0000
     29 H29         31.5100  10.3958  -3.5882 H              1 RES1               0.0000
@<TRIPOS>BOND
    1    1    2 1     
    2    1    3 1     
    3    1    4 1     
    4    1    5 1     
    5    2    6 ar    
    6    2    7 ar    
    7    3    8 1     
    8    3    9 2     
    9    4   10 1     
   10    4   11 2     
   11    5   12 1     
   12    5   18 1     
   13    5   19 1     
   14    6   13 ar    
   15    6   20 1     
   16    7   14 ar    
   17    7   21 1     
   18    8   15 1     
   19    8   22 1     
   20   10   15 1     
   21   10   23 1     
   22   12   24 1     
   23   12   25 1     
   24   12   26 1     
   25   13   16 ar    
   26   13   27 1     
   27   14   16 ar    
   28   14   28 1     
   29   15   17 2     
   30   16   29 1     
@<TRIPOS>SUBSTRUCTURE
      1 RES1           1
@<TRIPOS>SET
DONOR_HYDROGENS      STATIC     ATOMS    <user>   **** ""
2 22 23
ATOM$RED        STATIC     ATOMS    COLORGROUP SYSTEM
2 22 23
@<TRIPOS>COMMENT
> <Gold.Version>
2022.3.0

> <Gold.Id.Protein>
unknown|3nx8_clean|pdb

> <Gold.Protein.RotatedTorsions>
[ 1751 1744 1743 1741 ] final   15.56 input   60.01 | X-H torsion
[ 2770 2763 2761 2758 ] final   20.43 input   60.01 | X-H torsion
[ 5056 5047 5046 5044 ] final  -41.59 input   59.99 | X-H torsion

> <Gold.Protein.ActiveResidues>
 LEU49   GLY50   THR51   GLY52   ARG56   VAL57   MET58   LEU59   VAL60   HIS68  
 TYR69   ALA70   MET71   LYS72   LEU95   VAL104  LYS105  MET118  VAL119  MET120 
 GLU121  TYR122  VAL123  PRO124  GLY125  GLY126  GLU127  GLU170  ASN171  LEU173 
 ILE174  GLN181  VAL182  THR183  ASP184  PHE327  TYR330 

> <Gold.Protein.RotatedAtoms>
   33.9242   11.8967  -10.6867 H   0  0  0  0  0  0  0  0  0  0  0  0  # atno 1751 bound_to 1744
   29.8620    8.1400    1.4355 H   0  0  0  0  0  0  0  0  0  0  0  0  # atno 2770 bound_to 2763
   23.2762    9.8245  -10.2361 H   0  0  0  0  0  0  0  0  0  0  0  0  # atno 5056 bound_to 5047
   35.2023   10.9771  -11.0978 LP  0  0  0  0  0  0  0  0  0  0  0  0  # atno 5370 bound_to 1744
   35.2331   12.5882  -11.3626 LP  0  0  0  0  0  0  0  0  0  0  0  0  # atno 5371 bound_to 1744
   28.7247    8.4403    0.3105 LP  0  0  0  0  0  0  0  0  0  0  0  0  # atno 5378 bound_to 2763
   30.2992    8.7179   -0.0220 LP  0  0  0  0  0  0  0  0  0  0  0  0  # atno 5379 bound_to 2763

> <Gold.Score>
     Fitness  S(hb_ext) S(vdw_ext)  S(hb_int)    S(int)      intcor
     25.54       1.64      18.21       0.00      -1.13      -0.76

> <Gold.Goldscore.Fitness>
25.5423

> <Gold.Goldscore.Internal.Vdw>
-1.3263

> <Gold.Goldscore.Internal.Torsion>
-0.5660

> <Gold.Goldscore.External.Vdw>
18.2106

> <Gold.Goldscore.Internal.HBond>
0.0000

> <Gold.Goldscore.External.HBond>
1.6365

> <Gold.Goldscore.Internal.Correction>
-0.7585

> <Gold.Goldscore.Hbonds>
donor molecule, donor type, donor heavy atom, donor atom, acceptor molecule, acceptor atom, score
      L1  H    10    23       P1  2574  0.82

> <Gold.Goldscore.Internal.Vdw.Weighted>
-1.3263

> <Gold.Goldscore.Internal.Torsion.Weighted>
-0.5660

> <Gold.Goldscore.External.Vdw.Weighted>
25.0395

> <Gold.Goldscore.Internal.HBond.Weighted>
0.0000

> <Gold.Goldscore.External.HBond.Weighted>
1.6365

> <Gold.Goldscore.Internal.Correction.Weighted>
-0.7585

> <Gold.Rescore>
     Score     S(PLP)   S(hbond)     S(cho)   S(metal)  DE(clash)   DE(tors)     intcor
     29.36     -27.93       1.21       0.00       0.00       0.00       1.09       ----

> <Gold.PLP.Fitness>
29.3619

> <Gold.PLP.PLP>
-27.9281

> <Gold.PLP.part.hbond>
-3.5664

> <Gold.PLP.part.metal>
0.0000

> <Gold.PLP.part.buried>
11.7532

> <Gold.PLP.part.nonpolar>
-37.6608

> <Gold.PLP.part.repulsive>
2.0312

> <Gold.PLP.ligand.clash>
0.0000

> <Gold.PLP.ligand.torsion>
1.0927

> <Gold.PLP.Chemscore.Hbond>
1.2064

> <Gold.PLP.Chemscore.CHOScore>
0.0000

> <Gold.PLP.Chemscore.Metal>
0.0000

> <Gold.Chemscore.Hbonds>
donor molecule, donor type, donor heavy atom, donor atom, acceptor molecule, acceptor atom, score
      L1  H    10    23       P1  2574  0.98

> <Gold.PLP.Chemscore.Internal.Correction>
   9.000000E+99

