#       Name:                CT1002167954
#       Creating user name   hitesit
#       Creation time:       Sun Apr 16 20:15:42 2023


#       File generated by GOLD software.
#

@<TRIPOS>MOLECULE
CT1002167954|ligand_prepared|mol2|1|dock7
    29    30     1
SMALL
NO_CHARGES


@<TRIPOS>ATOM
      1 C1          26.8182   9.1839  -3.6835 C.3            1 RES1               0.0000
      2 C2          28.3040   9.4582  -3.3738 C.ar           1 RES1               0.0000
      3 C3          26.5151   7.7938  -3.1321 C.2            1 RES1               0.0000
      4 C4          26.0292  10.3041  -3.0148 C.2            1 RES1               0.0000
      5 C5          26.4817   9.1976  -5.1929 C.3            1 RES1               0.0000
      6 C6          29.2628   9.3847  -4.3798 C.ar           1 RES1               0.0000
      7 C7          28.7299   9.7879  -2.0899 C.ar           1 RES1               0.0000
      8 N8          25.7713   7.7148  -1.9918 N.am           1 RES1               0.0000
      9 O9          26.9554   6.7840  -3.6675 O.2            1 RES1               0.0000
     10 N10         25.1922   9.9719  -1.9819 N.am           1 RES1               0.0000
     11 O11         26.1372  11.4737  -3.3621 O.2            1 RES1               0.0000
     12 C12         24.9914   9.1410  -5.4894 C.3            1 RES1               0.0000
     13 C13         30.5987   9.6346  -4.1126 C.ar           1 RES1               0.0000
     14 C14         30.0664  10.0373  -1.8248 C.ar           1 RES1               0.0000
     15 C15         25.0507   8.7324  -1.4199 C.2            1 RES1               0.0000
     16 C16         31.0013   9.9615  -2.8352 C.ar           1 RES1               0.0000
     17 O17         24.3184   8.5229  -0.4571 O.2            1 RES1               0.0000
     18 H18         26.8960  10.1103  -5.6387 H              1 RES1               0.0000
     19 H19         26.9697   8.3395  -5.6713 H              1 RES1               0.0000
     20 H20         28.9652   9.1265  -5.3906 H              1 RES1               0.0000
     21 H21         28.0122   9.8523  -1.2792 H              1 RES1               0.0000
     22 H22         25.7488   6.8161  -1.5205 H              1 RES1               0.0000
     23 H23         24.6217  10.7177  -1.5964 H              1 RES1               0.0000
     24 H24         24.8108   9.1531  -6.5622 H              1 RES1               0.0000
     25 H25         24.5513   8.2332  -5.0819 H              1 RES1               0.0000
     26 H26         24.4780   9.9935  -5.0496 H              1 RES1               0.0000
     27 H27         31.3307   9.5723  -4.9110 H              1 RES1               0.0000
     28 H28         30.3788  10.2936  -0.8179 H              1 RES1               0.0000
     29 H29         32.0477  10.1576  -2.6263 H              1 RES1               0.0000
@<TRIPOS>BOND
    1    1    2 1     
    2    1    3 1     
    3    1    4 1     
    4    1    5 1     
    5    2    6 ar    
    6    2    7 ar    
    7    3    8 1     
    8    3    9 2     
    9    4   10 1     
   10    4   11 2     
   11    5   12 1     
   12    5   18 1     
   13    5   19 1     
   14    6   13 ar    
   15    6   20 1     
   16    7   14 ar    
   17    7   21 1     
   18    8   15 1     
   19    8   22 1     
   20   10   15 1     
   21   10   23 1     
   22   12   24 1     
   23   12   25 1     
   24   12   26 1     
   25   13   16 ar    
   26   13   27 1     
   27   14   16 ar    
   28   14   28 1     
   29   15   17 2     
   30   16   29 1     
@<TRIPOS>SUBSTRUCTURE
      1 RES1           1
@<TRIPOS>SET
DONOR_HYDROGENS      STATIC     ATOMS    <user>   **** ""
2 22 23
ATOM$RED        STATIC     ATOMS    COLORGROUP SYSTEM
2 22 23
@<TRIPOS>COMMENT
> <Gold.Version>
2022.3.0

> <Gold.Id.Protein>
unknown|3nx8_clean|pdb

> <Gold.Protein.RotatedTorsions>
[ 1751 1744 1743 1741 ] final  146.33 input   60.01 | X-H torsion
[ 2770 2763 2761 2758 ] final  -93.78 input   60.01 | X-H torsion
[ 5056 5047 5046 5044 ] final   92.30 input   59.99 | X-H torsion

> <Gold.Protein.ActiveResidues>
 LEU49   GLY50   THR51   GLY52   ARG56   VAL57   MET58   LEU59   VAL60   HIS68  
 TYR69   ALA70   MET71   LYS72   LEU95   VAL104  LYS105  MET118  VAL119  MET120 
 GLU121  TYR122  VAL123  PRO124  GLY125  GLY126  GLU127  GLU170  ASN171  LEU173 
 ILE174  GLN181  VAL182  THR183  ASP184  PHE327  TYR330 

> <Gold.Protein.RotatedAtoms>
   35.3611   12.4713  -11.3965 H   0  0  0  0  0  0  0  0  0  0  0  0  # atno 1751 bound_to 1744
   28.7102    8.4045    0.3973 H   0  0  0  0  0  0  0  0  0  0  0  0  # atno 2770 bound_to 2763
   23.2201   10.1424   -8.5436 H   0  0  0  0  0  0  0  0  0  0  0  0  # atno 5056 bound_to 5047
   33.9358   12.0694  -10.7217 LP  0  0  0  0  0  0  0  0  0  0  0  0  # atno 5370 bound_to 1744
   35.0530   10.9174  -11.0240 LP  0  0  0  0  0  0  0  0  0  0  0  0  # atno 5371 bound_to 1744
   30.2295    8.7339   -0.0848 LP  0  0  0  0  0  0  0  0  0  0  0  0  # atno 5378 bound_to 2763
   29.9537    8.1580    1.4182 LP  0  0  0  0  0  0  0  0  0  0  0  0  # atno 5379 bound_to 2763

> <Gold.Score>
     Fitness  S(hb_ext) S(vdw_ext)  S(hb_int)    S(int)      intcor
     37.95       0.04      28.03       0.00      -0.63      -0.76

> <Gold.Goldscore.Fitness>
37.9495

> <Gold.Goldscore.Internal.Vdw>
-0.8960

> <Gold.Goldscore.Internal.Torsion>
-0.4878

> <Gold.Goldscore.External.Vdw>
28.0283

> <Gold.Goldscore.Internal.HBond>
0.0000

> <Gold.Goldscore.External.HBond>
0.0359

> <Gold.Goldscore.Internal.Correction>
-0.7585

> <Gold.Goldscore.Hbonds>
donor molecule, donor type, donor heavy atom, donor atom, acceptor molecule, acceptor atom, score
      L1  H     8    22       P1  2574  0.02

> <Gold.Goldscore.Internal.Vdw.Weighted>
-0.8960

> <Gold.Goldscore.Internal.Torsion.Weighted>
-0.4878

> <Gold.Goldscore.External.Vdw.Weighted>
38.5389

> <Gold.Goldscore.Internal.HBond.Weighted>
0.0000

> <Gold.Goldscore.External.HBond.Weighted>
0.0359

> <Gold.Goldscore.Internal.Correction.Weighted>
-0.7585

> <Gold.Rescore>
     Score     S(PLP)   S(hbond)     S(cho)   S(metal)  DE(clash)   DE(tors)     intcor
     17.36     -19.16       0.00       0.00       0.00       0.00       0.90       ----

> <Gold.PLP.Fitness>
17.3560

> <Gold.PLP.PLP>
-19.1616

> <Gold.PLP.part.hbond>
0.0000

> <Gold.PLP.part.metal>
0.0000

> <Gold.PLP.part.buried>
13.0532

> <Gold.PLP.part.nonpolar>
-36.3672

> <Gold.PLP.part.repulsive>
3.7193

> <Gold.PLP.ligand.clash>
0.0000

> <Gold.PLP.ligand.torsion>
0.9028

> <Gold.PLP.Chemscore.Hbond>
0.0000

> <Gold.PLP.Chemscore.CHOScore>
0.0000

> <Gold.PLP.Chemscore.Metal>
0.0000

> <Gold.Chemscore.Hbonds>
donor molecule, donor type, donor heavy atom, donor atom, acceptor molecule, acceptor atom, score
      L1  H     8    22       P1  2574  0.33

> <Gold.PLP.Chemscore.Internal.Correction>
   9.000000E+99

