#       Name:                CT1002167954
#       Creating user name   hitesit
#       Creation time:       Sun Apr 16 20:15:45 2023


#       File generated by GOLD software.
#

@<TRIPOS>MOLECULE
CT1002167954|ligand_prepared|mol2|1|dock10
    29    30     1
SMALL
NO_CHARGES


@<TRIPOS>ATOM
      1 C1          26.6652   9.2020  -3.1865 C.3            1 RES1               0.0000
      2 C2          27.9691   9.5908  -3.9128 C.ar           1 RES1               0.0000
      3 C3          25.5726  10.1020  -3.7562 C.2            1 RES1               0.0000
      4 C4          26.4522   7.7168  -3.4580 C.2            1 RES1               0.0000
      5 C5          26.7191   9.4046  -1.6543 C.3            1 RES1               0.0000
      6 C6          27.9418  10.0222  -5.2356 C.ar           1 RES1               0.0000
      7 C7          29.2042   9.5259  -3.2735 C.ar           1 RES1               0.0000
      8 N8          24.6714   9.5384  -4.6106 N.am           1 RES1               0.0000
      9 O9          25.5262  11.2969  -3.4909 O.2            1 RES1               0.0000
     10 N10         25.3653   7.3506  -4.2080 N.am           1 RES1               0.0000
     11 O11         27.2249   6.8617  -3.0433 O.2            1 RES1               0.0000
     12 C12         25.3528   9.4019  -0.9870 C.3            1 RES1               0.0000
     13 C13         29.1067  10.3786  -5.8946 C.ar           1 RES1               0.0000
     14 C14         30.3680   9.8826  -3.9344 C.ar           1 RES1               0.0000
     15 C15         24.4824   8.1963  -4.8224 C.2            1 RES1               0.0000
     16 C16         30.3204  10.3096  -5.2444 C.ar           1 RES1               0.0000
     17 O17         23.5610   7.7925  -5.5261 O.2            1 RES1               0.0000
     18 H18         27.3288   8.6061  -1.2138 H              1 RES1               0.0000
     19 H19         27.2140  10.3603  -1.4417 H              1 RES1               0.0000
     20 H20         26.9962  10.0806  -5.7643 H              1 RES1               0.0000
     21 H21         29.2659   9.1919  -2.2433 H              1 RES1               0.0000
     22 H22         24.0837  10.1735  -5.1412 H              1 RES1               0.0000
     23 H23         25.1990   6.3554  -4.3183 H              1 RES1               0.0000
     24 H24         25.4478   9.5477   0.0870 H              1 RES1               0.0000
     25 H25         24.7284  10.1999  -1.3834 H              1 RES1               0.0000
     26 H26         24.8425   8.4561  -1.1568 H              1 RES1               0.0000
     27 H27         29.0639  10.7127  -6.9260 H              1 RES1               0.0000
     28 H28         31.3211   9.8261  -3.4189 H              1 RES1               0.0000
     29 H29         31.2327  10.5893  -5.7607 H              1 RES1               0.0000
@<TRIPOS>BOND
    1    1    2 1     
    2    1    3 1     
    3    1    4 1     
    4    1    5 1     
    5    2    6 ar    
    6    2    7 ar    
    7    3    8 1     
    8    3    9 2     
    9    4   10 1     
   10    4   11 2     
   11    5   12 1     
   12    5   18 1     
   13    5   19 1     
   14    6   13 ar    
   15    6   20 1     
   16    7   14 ar    
   17    7   21 1     
   18    8   15 1     
   19    8   22 1     
   20   10   15 1     
   21   10   23 1     
   22   12   24 1     
   23   12   25 1     
   24   12   26 1     
   25   13   16 ar    
   26   13   27 1     
   27   14   16 ar    
   28   14   28 1     
   29   15   17 2     
   30   16   29 1     
@<TRIPOS>SUBSTRUCTURE
      1 RES1           1
@<TRIPOS>SET
DONOR_HYDROGENS      STATIC     ATOMS    <user>   **** ""
2 22 23
ATOM$RED        STATIC     ATOMS    COLORGROUP SYSTEM
2 22 23
@<TRIPOS>COMMENT
> <Gold.Version>
2022.3.0

> <Gold.Id.Protein>
unknown|3nx8_clean|pdb

> <Gold.Protein.RotatedTorsions>
[ 1751 1744 1743 1741 ] final  155.70 input   60.01 | X-H torsion
[ 2770 2763 2761 2758 ] final  -79.42 input   60.01 | X-H torsion
[ 5056 5047 5046 5044 ] final   96.49 input   59.99 | X-H torsion

> <Gold.Protein.ActiveResidues>
 LEU49   GLY50   THR51   GLY52   ARG56   VAL57   MET58   LEU59   VAL60   HIS68  
 TYR69   ALA70   MET71   LYS72   LEU95   VAL104  LYS105  MET118  VAL119  MET120 
 GLU121  TYR122  VAL123  PRO124  GLY125  GLY126  GLU127  GLU170  ASN171  LEU173 
 ILE174  GLN181  VAL182  THR183  ASP184  PHE327  TYR330 

> <Gold.Protein.RotatedAtoms>
   35.4577   12.3551  -11.4200 H   0  0  0  0  0  0  0  0  0  0  0  0  # atno 1751 bound_to 1744
   28.6997    8.3234    0.6168 H   0  0  0  0  0  0  0  0  0  0  0  0  # atno 2770 bound_to 2763
   23.1556   10.1416   -8.5207 H   0  0  0  0  0  0  0  0  0  0  0  0  # atno 5056 bound_to 5047
   33.9763   12.2125  -10.7616 LP  0  0  0  0  0  0  0  0  0  0  0  0  # atno 5370 bound_to 1744
   34.9152   10.8913  -10.9605 LP  0  0  0  0  0  0  0  0  0  0  0  0  # atno 5371 bound_to 1744
   30.0317    8.7601   -0.2104 LP  0  0  0  0  0  0  0  0  0  0  0  0  # atno 5378 bound_to 2763
   30.1621    8.2135    1.3229 LP  0  0  0  0  0  0  0  0  0  0  0  0  # atno 5379 bound_to 2763

> <Gold.Score>
     Fitness  S(hb_ext) S(vdw_ext)  S(hb_int)    S(int)      intcor
     35.92       1.77      25.38       0.00      -0.76      -0.76

> <Gold.Goldscore.Fitness>
35.9157

> <Gold.Goldscore.Internal.Vdw>
-0.7498

> <Gold.Goldscore.Internal.Torsion>
-0.7717

> <Gold.Goldscore.External.Vdw>
25.3849

> <Gold.Goldscore.Internal.HBond>
0.0000

> <Gold.Goldscore.External.HBond>
1.7744

> <Gold.Goldscore.Internal.Correction>
-0.7585

> <Gold.Goldscore.Hbonds>
donor molecule, donor type, donor heavy atom, donor atom, acceptor molecule, acceptor atom, score
      L1  H    10    23       P1  2555  0.89

> <Gold.Goldscore.Internal.Vdw.Weighted>
-0.7498

> <Gold.Goldscore.Internal.Torsion.Weighted>
-0.7717

> <Gold.Goldscore.External.Vdw.Weighted>
34.9043

> <Gold.Goldscore.Internal.HBond.Weighted>
0.0000

> <Gold.Goldscore.External.HBond.Weighted>
1.7744

> <Gold.Goldscore.Internal.Correction.Weighted>
-0.7585

> <Gold.Rescore>
     Score     S(PLP)   S(hbond)     S(cho)   S(metal)  DE(clash)   DE(tors)     intcor
     28.87     -27.92       1.23       0.00       0.00       0.00       1.37       ----

> <Gold.PLP.Fitness>
28.8716

> <Gold.PLP.PLP>
-27.9234

> <Gold.PLP.part.hbond>
-3.5705

> <Gold.PLP.part.metal>
0.0000

> <Gold.PLP.part.buried>
10.7974

> <Gold.PLP.part.nonpolar>
-37.8211

> <Gold.PLP.part.repulsive>
2.0890

> <Gold.PLP.ligand.clash>
0.0000

> <Gold.PLP.ligand.torsion>
1.3739

> <Gold.PLP.Chemscore.Hbond>
1.2320

> <Gold.PLP.Chemscore.CHOScore>
0.0000

> <Gold.PLP.Chemscore.Metal>
0.0000

> <Gold.Chemscore.Hbonds>
donor molecule, donor type, donor heavy atom, donor atom, acceptor molecule, acceptor atom, score
      L1  H    10    23       P1  2555  1.00

> <Gold.PLP.Chemscore.Internal.Correction>
   9.000000E+99

