#       Name:                CT1002167954
#       Creating user name   hitesit
#       Creation time:       Sun Apr 16 20:15:37 2023


#       File generated by GOLD software.
#

@<TRIPOS>MOLECULE
CT1002167954|ligand_prepared|mol2|1|dock2
    29    30     1
SMALL
NO_CHARGES


@<TRIPOS>ATOM
      1 C1          26.6029   9.9167  -3.6554 C.3            1 RES1               0.0000
      2 C2          28.1381  10.0301  -3.5595 C.ar           1 RES1               0.0000
      3 C3          26.1022   9.6670  -2.2359 C.2            1 RES1               0.0000
      4 C4          26.1157  11.2263  -4.2656 C.2            1 RES1               0.0000
      5 C5          26.1171   8.7591  -4.5584 C.3            1 RES1               0.0000
      6 C6          28.9270   9.9545  -4.7034 C.ar           1 RES1               0.0000
      7 C7          28.7783  10.2128  -2.3367 C.ar           1 RES1               0.0000
      8 N8          25.4819  10.6981  -1.5941 N.am           1 RES1               0.0000
      9 O9          26.2840   8.5940  -1.6737 O.2            1 RES1               0.0000
     10 N10         25.3452  12.0498  -3.4872 N.am           1 RES1               0.0000
     11 O11         26.4059  11.5602  -5.4078 O.2            1 RES1               0.0000
     12 C12         24.6179   8.5149  -4.4888 C.3            1 RES1               0.0000
     13 C13         30.3059  10.0607  -4.6281 C.ar           1 RES1               0.0000
     14 C14         30.1575  10.3185  -2.2636 C.ar           1 RES1               0.0000
     15 C15         25.0318  11.8594  -2.1690 C.2            1 RES1               0.0000
     16 C16         30.9220  10.2432  -3.4084 C.ar           1 RES1               0.0000
     17 O17         24.3794  12.6724  -1.5205 O.2            1 RES1               0.0000
     18 H18         26.3906   8.9827  -5.5970 H              1 RES1               0.0000
     19 H19         26.6385   7.8396  -4.2649 H              1 RES1               0.0000
     20 H20         28.4601   9.8087  -5.6718 H              1 RES1               0.0000
     21 H21         28.1971  10.2739  -1.4229 H              1 RES1               0.0000
     22 H22         25.3396  10.5964  -0.5942 H              1 RES1               0.0000
     23 H23         24.9704  12.8819  -3.9317 H              1 RES1               0.0000
     24 H24         24.3303   7.6927  -5.1408 H              1 RES1               0.0000
     25 H25         24.3144   8.2649  -3.4743 H              1 RES1               0.0000
     26 H26         24.0680   9.4012  -4.7985 H              1 RES1               0.0000
     27 H27         30.9032   9.9994  -5.5318 H              1 RES1               0.0000
     28 H28         30.6381  10.4614  -1.3014 H              1 RES1               0.0000
     29 H29         32.0022  10.3267  -3.3497 H              1 RES1               0.0000
@<TRIPOS>BOND
    1    1    2 1     
    2    1    3 1     
    3    1    4 1     
    4    1    5 1     
    5    2    6 ar    
    6    2    7 ar    
    7    3    8 1     
    8    3    9 2     
    9    4   10 1     
   10    4   11 2     
   11    5   12 1     
   12    5   18 1     
   13    5   19 1     
   14    6   13 ar    
   15    6   20 1     
   16    7   14 ar    
   17    7   21 1     
   18    8   15 1     
   19    8   22 1     
   20   10   15 1     
   21   10   23 1     
   22   12   24 1     
   23   12   25 1     
   24   12   26 1     
   25   13   16 ar    
   26   13   27 1     
   27   14   16 ar    
   28   14   28 1     
   29   15   17 2     
   30   16   29 1     
@<TRIPOS>SUBSTRUCTURE
      1 RES1           1
@<TRIPOS>SET
DONOR_HYDROGENS      STATIC     ATOMS    <user>   **** ""
2 22 23
ATOM$RED        STATIC     ATOMS    COLORGROUP SYSTEM
2 22 23
@<TRIPOS>COMMENT
> <Gold.Version>
2022.3.0

> <Gold.Id.Protein>
unknown|3nx8_clean|pdb

> <Gold.Protein.RotatedTorsions>
[ 1751 1744 1743 1741 ] final -175.60 input   60.01 | X-H torsion
[ 2770 2763 2761 2758 ] final  -53.30 input   60.01 | X-H torsion
[ 5056 5047 5046 5044 ] final   39.72 input   59.99 | X-H torsion

> <Gold.Protein.ActiveResidues>
 LEU49   GLY50   THR51   GLY52   ARG56   VAL57   MET58   LEU59   VAL60   HIS68  
 TYR69   ALA70   MET71   LYS72   LEU95   VAL104  LYS105  MET118  VAL119  MET120 
 GLU121  TYR122  VAL123  PRO124  GLY125  GLY126  GLU127  GLU170  ASN171  LEU173 
 ILE174  GLN181  VAL182  THR183  ASP184  PHE327  TYR330 

> <Gold.Protein.RotatedAtoms>
   35.6336   11.9257  -11.4289 H   0  0  0  0  0  0  0  0  0  0  0  0  # atno 1751 bound_to 1744
   28.8274    8.1963    0.9997 H   0  0  0  0  0  0  0  0  0  0  0  0  # atno 2770 bound_to 2763
   23.7790   10.0710   -9.1522 H   0  0  0  0  0  0  0  0  0  0  0  0  # atno 5056 bound_to 5047
   34.2270   12.5711  -10.9257 LP  0  0  0  0  0  0  0  0  0  0  0  0  # atno 5370 bound_to 1744
   34.4874   10.9650  -10.7874 LP  0  0  0  0  0  0  0  0  0  0  0  0  # atno 5371 bound_to 1744
   29.6174    8.7550   -0.3092 LP  0  0  0  0  0  0  0  0  0  0  0  0  # atno 5378 bound_to 2763
   30.4477    8.3464    1.0363 LP  0  0  0  0  0  0  0  0  0  0  0  0  # atno 5379 bound_to 2763

> <Gold.Score>
     Fitness  S(hb_ext) S(vdw_ext)  S(hb_int)    S(int)      intcor
     43.72       0.03      32.66       0.00      -1.22      -0.82

> <Gold.Goldscore.Fitness>
43.7157

> <Gold.Goldscore.Internal.Vdw>
-1.5407

> <Gold.Goldscore.Internal.Torsion>
-0.4922

> <Gold.Goldscore.External.Vdw>
32.6566

> <Gold.Goldscore.Internal.HBond>
0.0000

> <Gold.Goldscore.External.HBond>
0.0280

> <Gold.Goldscore.Internal.Correction>
-0.8177

> <Gold.Goldscore.Hbonds>
donor molecule, donor type, donor heavy atom, donor atom, acceptor molecule, acceptor atom, score
      L1  H    10    23       P1   534  0.01

> <Gold.Goldscore.Internal.Vdw.Weighted>
-1.5407

> <Gold.Goldscore.Internal.Torsion.Weighted>
-0.4922

> <Gold.Goldscore.External.Vdw.Weighted>
44.9028

> <Gold.Goldscore.Internal.HBond.Weighted>
0.0000

> <Gold.Goldscore.External.HBond.Weighted>
0.0280

> <Gold.Goldscore.Internal.Correction.Weighted>
-0.8177

> <Gold.Rescore>
     Score     S(PLP)   S(hbond)     S(cho)   S(metal)  DE(clash)   DE(tors)     intcor
     25.55     -25.60       0.74       0.00       0.00       1.38       0.44       ----

> <Gold.PLP.Fitness>
25.5505

> <Gold.PLP.PLP>
-25.5969

> <Gold.PLP.part.hbond>
-3.3466

> <Gold.PLP.part.metal>
0.0000

> <Gold.PLP.part.buried>
8.6900

> <Gold.PLP.part.nonpolar>
-35.4355

> <Gold.PLP.part.repulsive>
3.7785

> <Gold.PLP.ligand.clash>
1.3794

> <Gold.PLP.ligand.torsion>
0.4409

> <Gold.PLP.Chemscore.Hbond>
0.7383

> <Gold.PLP.Chemscore.CHOScore>
0.0000

> <Gold.PLP.Chemscore.Metal>
0.0000

> <Gold.Chemscore.Hbonds>
donor molecule, donor type, donor heavy atom, donor atom, acceptor molecule, acceptor atom, score
      L1  H    10    23       P1   534  0.35
      P1  H   552   556       L1    17  0.42

> <Gold.PLP.Chemscore.Internal.Correction>
   9.000000E+99

