#       Name:                CT1002167954
#       Creating user name   hitesit
#       Creation time:       Sun Apr 16 02:22:05 2023


#       File generated by GOLD software.
#

@<TRIPOS>MOLECULE
CT1002167954|ligand_prepared|mol2|1|dock4
    29    30     1
SMALL
NO_CHARGES


@<TRIPOS>ATOM
      1 C1          -4.7930  -0.9959   3.1207 C.3            1 RES1               0.0000
      2 C2          -5.7370  -1.2198   1.9218 C.ar           1 RES1               0.0000
      3 C3          -5.5333  -1.5119   4.3511 C.2            1 RES1               0.0000
      4 C4          -3.5106  -1.7565   2.8018 C.2            1 RES1               0.0000
      5 C5          -4.4229   0.4871   3.3561 C.3            1 RES1               0.0000
      6 C6          -6.0423  -2.5074   1.4910 C.ar           1 RES1               0.0000
      7 C7          -6.3114  -0.1506   1.2395 C.ar           1 RES1               0.0000
      8 N8          -5.1171  -2.6938   4.8895 N.am           1 RES1               0.0000
      9 O9          -6.4929  -0.9109   4.8182 O.2            1 RES1               0.0000
     10 N10         -3.1858  -2.8275   3.5924 N.am           1 RES1               0.0000
     11 O11         -2.7872  -1.4482   1.8627 O.2            1 RES1               0.0000
     12 C12         -3.3783   0.6934   4.4417 C.3            1 RES1               0.0000
     13 C13         -6.8932  -2.7187   0.4188 C.ar           1 RES1               0.0000
     14 C14         -7.1620  -0.3641   0.1673 C.ar           1 RES1               0.0000
     15 C15         -3.9467  -3.3494   4.6028 C.2            1 RES1               0.0000
     16 C16         -7.4539  -1.6474  -0.2434 C.ar           1 RES1               0.0000
     17 O17         -3.6129  -4.3486   5.2332 O.2            1 RES1               0.0000
     18 H18         -4.0447   0.9100   2.4172 H              1 RES1               0.0000
     19 H19         -5.3308   1.0383   3.6305 H              1 RES1               0.0000
     20 H20         -5.6085  -3.3627   1.9983 H              1 RES1               0.0000
     21 H21         -6.0951   0.8677   1.5443 H              1 RES1               0.0000
     22 H22         -5.7330  -3.1306   5.5678 H              1 RES1               0.0000
     23 H23         -2.2941  -3.2773   3.4111 H              1 RES1               0.0000
     24 H24         -3.1552   1.7510   4.5663 H              1 RES1               0.0000
     25 H25         -3.7316   0.3069   5.3954 H              1 RES1               0.0000
     26 H26         -2.4531   0.1793   4.1894 H              1 RES1               0.0000
     27 H27         -7.1187  -3.7306   0.0987 H              1 RES1               0.0000
     28 H28         -7.6005   0.4820  -0.3513 H              1 RES1               0.0000
     29 H29         -8.1208  -1.8132  -1.0830 H              1 RES1               0.0000
@<TRIPOS>BOND
    1    1    2 1     
    2    1    3 1     
    3    1    4 1     
    4    1    5 1     
    5    2    6 ar    
    6    2    7 ar    
    7    3    8 1     
    8    3    9 2     
    9    4   10 1     
   10    4   11 2     
   11    5   12 1     
   12    5   18 1     
   13    5   19 1     
   14    6   13 ar    
   15    6   20 1     
   16    7   14 ar    
   17    7   21 1     
   18    8   15 1     
   19    8   22 1     
   20   10   15 1     
   21   10   23 1     
   22   12   24 1     
   23   12   25 1     
   24   12   26 1     
   25   13   16 ar    
   26   13   27 1     
   27   14   16 ar    
   28   14   28 1     
   29   15   17 2     
   30   16   29 1     
@<TRIPOS>SUBSTRUCTURE
      1 RES1           1
@<TRIPOS>SET
DONOR_HYDROGENS      STATIC     ATOMS    <user>   **** ""
2 22 23
ATOM$RED        STATIC     ATOMS    COLORGROUP SYSTEM
2 22 23
@<TRIPOS>COMMENT
> <Gold.Version>
2022.3.0

> <Gold.Id.Protein>
unknown|3iw5_clean|pdb

> <Gold.Protein.RotatedTorsions>
[ 3850 3845 3844 3841 ] final  176.38 input   60.02 | X-H torsion
[ 3876 3871 3870 3867 ] final -162.45 input   59.98 | X-H torsion
[ 3945 3936 3935 3933 ] final -137.23 input   60.03 | X-H torsion
[ 3541 3531 3530 3529 ] final  146.06 input   59.98 | X-H torsion
[ 3992 3987 3986 3983 ] final   66.05 input   60.02 | X-H torsion

> <Gold.Protein.ActiveResidues>
 LEU195  TRP197  ASP227  HIS228  ILE229  ASP230  LEU232  LYS233  LEU236  PRO242 
 ILE250  SER252  SER254  ALA255  ARG256  ASN257  TYR258  ILE259  SER261  LEU262 

> <Gold.Protein.RotatedAtoms>
   -7.9895   12.6202   -3.5765 H   0  0  0  0  0  0  0  0  0  0  0  0  # atno 3541 bound_to 3531
   -9.5311   12.2518   -3.0921 H   0  0  0  0  0  0  0  0  0  0  0  0  # atno 3542 bound_to 3531
   -8.2341   11.6842   -2.2307 H   0  0  0  0  0  0  0  0  0  0  0  0  # atno 3543 bound_to 3531
   -4.6212   -6.3721    5.5661 H   0  0  0  0  0  0  0  0  0  0  0  0  # atno 3850 bound_to 3845
   -4.8261   -4.0692    8.1967 H   0  0  0  0  0  0  0  0  0  0  0  0  # atno 3876 bound_to 3871
  -10.1474    4.0739    0.9116 H   0  0  0  0  0  0  0  0  0  0  0  0  # atno 3945 bound_to 3936
  -14.1943    2.4552    4.4848 H   0  0  0  0  0  0  0  0  0  0  0  0  # atno 3992 bound_to 3987
   -5.0249   -7.3880    6.7720 LP  0  0  0  0  0  0  0  0  0  0  0  0  # atno 5440 bound_to 3845
   -6.1734   -6.8225    5.7582 LP  0  0  0  0  0  0  0  0  0  0  0  0  # atno 5441 bound_to 3845
   -5.8657   -3.4307    7.1195 LP  0  0  0  0  0  0  0  0  0  0  0  0  # atno 5444 bound_to 3871
   -5.6391   -5.0467    7.1806 LP  0  0  0  0  0  0  0  0  0  0  0  0  # atno 5445 bound_to 3871
   -8.7564    4.4728    1.6556 LP  0  0  0  0  0  0  0  0  0  0  0  0  # atno 5452 bound_to 3936
  -10.1876    4.9381    2.2896 LP  0  0  0  0  0  0  0  0  0  0  0  0  # atno 5453 bound_to 3936

> <Gold.Score>
     Fitness  S(hb_ext) S(vdw_ext)  S(hb_int)    S(int)      intcor
     28.91       1.18      20.22       0.00      -0.07      -0.76

> <Gold.Goldscore.Fitness>
28.9148

> <Gold.Goldscore.Internal.Vdw>
-0.3988

> <Gold.Goldscore.Internal.Torsion>
-0.4261

> <Gold.Goldscore.External.Vdw>
20.2214

> <Gold.Goldscore.Internal.HBond>
0.0000

> <Gold.Goldscore.External.HBond>
1.1763

> <Gold.Goldscore.Internal.Correction>
-0.7590

> <Gold.Goldscore.Hbonds>
donor molecule, donor type, donor heavy atom, donor atom, acceptor molecule, acceptor atom, score
      P1  H  3845  3850       L1    17  0.54
      L1  H     8    22       P1  3871  0.05

> <Gold.Goldscore.Internal.Vdw.Weighted>
-0.3988

> <Gold.Goldscore.Internal.Torsion.Weighted>
-0.4261

> <Gold.Goldscore.External.Vdw.Weighted>
27.8044

> <Gold.Goldscore.Internal.HBond.Weighted>
0.0000

> <Gold.Goldscore.External.HBond.Weighted>
1.1763

> <Gold.Goldscore.Internal.Correction.Weighted>
-0.7590

> <Gold.Rescore>
     Score     S(PLP)   S(hbond)     S(cho)   S(metal)  DE(clash)   DE(tors)     intcor
     40.13     -34.58       1.90       0.00       0.00       0.00       0.09       ----

> <Gold.PLP.Fitness>
40.1255

> <Gold.PLP.PLP>
-34.5824

> <Gold.PLP.part.hbond>
-3.0000

> <Gold.PLP.part.metal>
0.0000

> <Gold.PLP.part.buried>
-4.1713

> <Gold.PLP.part.nonpolar>
-27.9754

> <Gold.PLP.part.repulsive>
0.2196

> <Gold.PLP.ligand.clash>
0.0000

> <Gold.PLP.ligand.torsion>
0.0856

> <Gold.PLP.Chemscore.Hbond>
1.9048

> <Gold.PLP.Chemscore.CHOScore>
0.0000

> <Gold.PLP.Chemscore.Metal>
0.0000

> <Gold.Chemscore.Hbonds>
donor molecule, donor type, donor heavy atom, donor atom, acceptor molecule, acceptor atom, score
      L1  H     8    22       P1  3871  0.19
      P1  H  3845  3850       L1    17  0.54

> <Gold.PLP.Chemscore.Internal.Correction>
   9.000000E+99

