#       Name:                CT1002167954
#       Creating user name   hitesit
#       Creation time:       Sun Apr 16 02:22:06 2023


#       File generated by GOLD software.
#

@<TRIPOS>MOLECULE
CT1002167954|ligand_prepared|mol2|1|dock6
    29    30     1
SMALL
NO_CHARGES


@<TRIPOS>ATOM
      1 C1          -5.5142   0.5817   2.3095 C.3            1 RES1               0.0000
      2 C2          -6.4155   0.5129   1.0599 C.ar           1 RES1               0.0000
      3 C3          -6.3198   1.3136   3.3790 C.2            1 RES1               0.0000
      4 C4          -5.1703  -0.8599   2.6675 C.2            1 RES1               0.0000
      5 C5          -4.1894   1.3468   2.0831 C.3            1 RES1               0.0000
      6 C6          -6.9394  -0.7027   0.6302 C.ar           1 RES1               0.0000
      7 C7          -6.7334   1.6547   0.3293 C.ar           1 RES1               0.0000
      8 N8          -6.8275   0.5725   4.4051 N.am           1 RES1               0.0000
      9 O9          -6.5397   2.5161   3.3022 O.2            1 RES1               0.0000
     10 N10         -5.6474  -1.3589   3.8511 N.am           1 RES1               0.0000
     11 O11         -4.5044  -1.5734   1.9274 O.2            1 RES1               0.0000
     12 C12         -3.3553   1.5148   3.3433 C.3            1 RES1               0.0000
     13 C13         -7.7542  -0.7739  -0.4876 C.ar           1 RES1               0.0000
     14 C14         -7.5482   1.5813  -0.7884 C.ar           1 RES1               0.0000
     15 C15         -6.4861  -0.7178   4.7217 C.2            1 RES1               0.0000
     16 C16         -8.0594   0.3679  -1.1973 C.ar           1 RES1               0.0000
     17 O17         -6.9166  -1.2524   5.7396 O.2            1 RES1               0.0000
     18 H18         -3.5944   0.8087   1.3349 H              1 RES1               0.0000
     19 H19         -4.4199   2.3396   1.6773 H              1 RES1               0.0000
     20 H20         -6.7082  -1.6122   1.1746 H              1 RES1               0.0000
     21 H21         -6.3417   2.6199   0.6319 H              1 RES1               0.0000
     22 H22         -7.5256   1.0190   4.9913 H              1 RES1               0.0000
     23 H23         -5.3498  -2.2950   4.1070 H              1 RES1               0.0000
     24 H24         -2.4373   2.0579   3.1287 H              1 RES1               0.0000
     25 H25         -3.9073   2.0681   4.1003 H              1 RES1               0.0000
     26 H26         -3.0866   0.5463   3.7599 H              1 RES1               0.0000
     27 H27         -8.1529  -1.7314  -0.8061 H              1 RES1               0.0000
     28 H28         -7.7853   2.4823  -1.3443 H              1 RES1               0.0000
     29 H29         -8.6980   0.3120  -2.0727 H              1 RES1               0.0000
@<TRIPOS>BOND
    1    1    2 1     
    2    1    3 1     
    3    1    4 1     
    4    1    5 1     
    5    2    6 ar    
    6    2    7 ar    
    7    3    8 1     
    8    3    9 2     
    9    4   10 1     
   10    4   11 2     
   11    5   12 1     
   12    5   18 1     
   13    5   19 1     
   14    6   13 ar    
   15    6   20 1     
   16    7   14 ar    
   17    7   21 1     
   18    8   15 1     
   19    8   22 1     
   20   10   15 1     
   21   10   23 1     
   22   12   24 1     
   23   12   25 1     
   24   12   26 1     
   25   13   16 ar    
   26   13   27 1     
   27   14   16 ar    
   28   14   28 1     
   29   15   17 2     
   30   16   29 1     
@<TRIPOS>SUBSTRUCTURE
      1 RES1           1
@<TRIPOS>SET
DONOR_HYDROGENS      STATIC     ATOMS    <user>   **** ""
2 22 23
ATOM$RED        STATIC     ATOMS    COLORGROUP SYSTEM
2 22 23
@<TRIPOS>COMMENT
> <Gold.Version>
2022.3.0

> <Gold.Id.Protein>
unknown|3iw5_clean|pdb

> <Gold.Protein.RotatedTorsions>
[ 3850 3845 3844 3841 ] final -156.73 input   60.02 | X-H torsion
[ 3876 3871 3870 3867 ] final   75.64 input   59.98 | X-H torsion
[ 3945 3936 3935 3933 ] final  -94.53 input   60.03 | X-H torsion
[ 3541 3531 3530 3529 ] final  155.42 input   59.98 | X-H torsion
[ 3992 3987 3986 3983 ] final   18.90 input   60.02 | X-H torsion

> <Gold.Protein.ActiveResidues>
 LEU195  TRP197  ASP227  HIS228  ILE229  ASP230  LEU232  LYS233  LEU236  PRO242 
 ILE250  SER252  SER254  ALA255  ARG256  ASN257  TYR258  ILE259  SER261  LEU262 

> <Gold.Protein.RotatedAtoms>
   -8.1193   12.6678   -3.6493 H   0  0  0  0  0  0  0  0  0  0  0  0  # atno 3541 bound_to 3531
   -9.5415   12.1630   -2.9641 H   0  0  0  0  0  0  0  0  0  0  0  0  # atno 3542 bound_to 3531
   -8.0940   11.7255   -2.2860 H   0  0  0  0  0  0  0  0  0  0  0  0  # atno 3543 bound_to 3531
   -4.9895   -6.2783    5.3533 H   0  0  0  0  0  0  0  0  0  0  0  0  # atno 3850 bound_to 3845
   -5.8802   -3.4549    7.1046 H   0  0  0  0  0  0  0  0  0  0  0  0  # atno 3876 bound_to 3871
  -10.5846    4.3657    1.3454 H   0  0  0  0  0  0  0  0  0  0  0  0  # atno 3945 bound_to 3936
  -14.1272    1.8859    4.0027 H   0  0  0  0  0  0  0  0  0  0  0  0  # atno 3992 bound_to 3987
   -4.6453   -7.2118    6.6413 LP  0  0  0  0  0  0  0  0  0  0  0  0  # atno 5440 bound_to 3845
   -6.1824   -7.0931    6.1030 LP  0  0  0  0  0  0  0  0  0  0  0  0  # atno 5441 bound_to 3845
   -5.6190   -5.0584    7.2014 LP  0  0  0  0  0  0  0  0  0  0  0  0  # atno 5444 bound_to 3871
   -4.8247   -4.0374    8.1980 LP  0  0  0  0  0  0  0  0  0  0  0  0  # atno 5445 bound_to 3871
   -8.9916    4.1399    1.1032 LP  0  0  0  0  0  0  0  0  0  0  0  0  # atno 5452 bound_to 3936
   -9.5119    4.9771    2.4051 LP  0  0  0  0  0  0  0  0  0  0  0  0  # atno 5453 bound_to 3936

> <Gold.Score>
     Fitness  S(hb_ext) S(vdw_ext)  S(hb_int)    S(int)      intcor
     25.40       0.84      20.10       0.00      -3.06      -0.76

> <Gold.Goldscore.Fitness>
25.4049

> <Gold.Goldscore.Internal.Vdw>
-3.4142

> <Gold.Goldscore.Internal.Torsion>
-0.4075

> <Gold.Goldscore.External.Vdw>
20.0952

> <Gold.Goldscore.Internal.HBond>
0.0000

> <Gold.Goldscore.External.HBond>
0.8368

> <Gold.Goldscore.Internal.Correction>
-0.7590

> <Gold.Goldscore.Hbonds>
donor molecule, donor type, donor heavy atom, donor atom, acceptor molecule, acceptor atom, score
      P1  H  3871  3876       L1    17  0.42

> <Gold.Goldscore.Internal.Vdw.Weighted>
-3.4142

> <Gold.Goldscore.Internal.Torsion.Weighted>
-0.4075

> <Gold.Goldscore.External.Vdw.Weighted>
27.6309

> <Gold.Goldscore.Internal.HBond.Weighted>
0.0000

> <Gold.Goldscore.External.HBond.Weighted>
0.8368

> <Gold.Goldscore.Internal.Correction.Weighted>
-0.7590

> <Gold.Rescore>
     Score     S(PLP)   S(hbond)     S(cho)   S(metal)  DE(clash)   DE(tors)     intcor
     30.34     -32.47       0.00       0.00       0.00       2.10       0.02       ----

> <Gold.PLP.Fitness>
30.3408

> <Gold.PLP.PLP>
-32.4722

> <Gold.PLP.part.hbond>
0.0000

> <Gold.PLP.part.metal>
0.0000

> <Gold.PLP.part.buried>
-2.8350

> <Gold.PLP.part.nonpolar>
-29.3013

> <Gold.PLP.part.repulsive>
0.0000

> <Gold.PLP.ligand.clash>
2.0959

> <Gold.PLP.ligand.torsion>
0.0177

> <Gold.PLP.Chemscore.Hbond>
0.0000

> <Gold.PLP.Chemscore.CHOScore>
0.0000

> <Gold.PLP.Chemscore.Metal>
0.0000

> <Gold.PLP.Chemscore.Internal.Correction>
   9.000000E+99

