#       Name:                CT1002167954
#       Creating user name   hitesit
#       Creation time:       Sun Apr 16 02:22:07 2023


#       File generated by GOLD software.
#

@<TRIPOS>MOLECULE
CT1002167954|ligand_prepared|mol2|1|dock8
    29    30     1
SMALL
NO_CHARGES


@<TRIPOS>ATOM
      1 C1          -5.4616   0.6838   2.0145 C.3            1 RES1               0.0000
      2 C2          -6.2491   0.6239   0.6897 C.ar           1 RES1               0.0000
      3 C3          -6.4414   1.1814   3.0731 C.2            1 RES1               0.0000
      4 C4          -4.9391  -0.7266   2.2643 C.2            1 RES1               0.0000
      5 C5          -4.2491   1.6429   1.9778 C.3            1 RES1               0.0000
      6 C6          -6.4177   1.7665  -0.0867 C.ar           1 RES1               0.0000
      7 C7          -6.8094  -0.5651   0.2304 C.ar           1 RES1               0.0000
      8 N8          -6.9100   0.2738   3.9767 N.am           1 RES1               0.0000
      9 O9          -6.8274   2.3437   3.0905 O.2            1 RES1               0.0000
     10 N10         -5.4243  -1.4082   3.3495 N.am           1 RES1               0.0000
     11 O11         -4.1241  -1.2601   1.5218 O.2            1 RES1               0.0000
     12 C12         -3.3303   1.5161   3.1827 C.3            1 RES1               0.0000
     13 C13         -7.1185   1.7216  -1.2805 C.ar           1 RES1               0.0000
     14 C14         -7.5101  -0.6077  -0.9637 C.ar           1 RES1               0.0000
     15 C15         -6.4089  -0.9835   4.1996 C.2            1 RES1               0.0000
     16 C16         -7.6648   0.5345  -1.7200 C.ar           1 RES1               0.0000
     17 O17         -6.8307  -1.6763   5.1211 O.2            1 RES1               0.0000
     18 H18         -3.6686   1.4436   1.0686 H              1 RES1               0.0000
     19 H19         -4.6168   2.6749   1.9213 H              1 RES1               0.0000
     20 H20         -5.9971   2.7102   0.2442 H              1 RES1               0.0000
     21 H21         -6.7013  -1.4759   0.8094 H              1 RES1               0.0000
     22 H22         -7.7067   0.5560   4.5388 H              1 RES1               0.0000
     23 H23         -5.0134  -2.3163   3.5416 H              1 RES1               0.0000
     24 H24         -2.4965   2.2108   3.1068 H              1 RES1               0.0000
     25 H25         -3.8689   1.7324   4.1030 H              1 RES1               0.0000
     26 H26         -2.9263   0.5084   3.2553 H              1 RES1               0.0000
     27 H27         -7.2386   2.6236  -1.8714 H              1 RES1               0.0000
     28 H28         -7.9389  -1.5440  -1.3054 H              1 RES1               0.0000
     29 H29         -8.2134   0.4995  -2.6554 H              1 RES1               0.0000
@<TRIPOS>BOND
    1    1    2 1     
    2    1    3 1     
    3    1    4 1     
    4    1    5 1     
    5    2    6 ar    
    6    2    7 ar    
    7    3    8 1     
    8    3    9 2     
    9    4   10 1     
   10    4   11 2     
   11    5   12 1     
   12    5   18 1     
   13    5   19 1     
   14    6   13 ar    
   15    6   20 1     
   16    7   14 ar    
   17    7   21 1     
   18    8   15 1     
   19    8   22 1     
   20   10   15 1     
   21   10   23 1     
   22   12   24 1     
   23   12   25 1     
   24   12   26 1     
   25   13   16 ar    
   26   13   27 1     
   27   14   16 ar    
   28   14   28 1     
   29   15   17 2     
   30   16   29 1     
@<TRIPOS>SUBSTRUCTURE
      1 RES1           1
@<TRIPOS>SET
DONOR_HYDROGENS      STATIC     ATOMS    <user>   **** ""
2 22 23
ATOM$RED        STATIC     ATOMS    COLORGROUP SYSTEM
2 22 23
@<TRIPOS>COMMENT
> <Gold.Version>
2022.3.0

> <Gold.Id.Protein>
unknown|3iw5_clean|pdb

> <Gold.Protein.RotatedTorsions>
[ 3850 3845 3844 3841 ] final   75.32 input   60.02 | X-H torsion
[ 3876 3871 3870 3867 ] final -149.38 input   59.98 | X-H torsion
[ 3945 3936 3935 3933 ] final  146.37 input   60.03 | X-H torsion
[ 3541 3531 3530 3529 ] final -126.09 input   59.98 | X-H torsion
[ 3992 3987 3986 3983 ] final  -70.24 input   60.02 | X-H torsion

> <Gold.Protein.ActiveResidues>
 LEU195  TRP197  ASP227  HIS228  ILE229  ASP230  LEU232  LYS233  LEU236  PRO242 
 ILE250  SER252  SER254  ALA255  ARG256  ASN257  TYR258  ILE259  SER261  LEU262 

> <Gold.Protein.RotatedAtoms>
   -9.3112   12.5293   -3.4863 H   0  0  0  0  0  0  0  0  0  0  0  0  # atno 3541 bound_to 3531
   -8.7614   11.6478   -2.1949 H   0  0  0  0  0  0  0  0  0  0  0  0  # atno 3542 bound_to 3531
   -7.6824   12.3793   -3.2183 H   0  0  0  0  0  0  0  0  0  0  0  0  # atno 3543 bound_to 3531
   -4.7497   -7.2734    6.6897 H   0  0  0  0  0  0  0  0  0  0  0  0  # atno 3850 bound_to 3845
   -4.8127   -4.2819    8.1866 H   0  0  0  0  0  0  0  0  0  0  0  0  # atno 3876 bound_to 3871
   -9.0066    4.1348    1.0988 H   0  0  0  0  0  0  0  0  0  0  0  0  # atno 3945 bound_to 3936
  -13.4494    0.8849    4.5188 H   0  0  0  0  0  0  0  0  0  0  0  0  # atno 3992 bound_to 3987
   -6.2010   -7.0159    5.9993 LP  0  0  0  0  0  0  0  0  0  0  0  0  # atno 5440 bound_to 3845
   -4.8679   -6.2876    5.4000 LP  0  0  0  0  0  0  0  0  0  0  0  0  # atno 5441 bound_to 3845
   -5.7477   -3.3224    7.2625 LP  0  0  0  0  0  0  0  0  0  0  0  0  # atno 5444 bound_to 3871
   -5.7706   -4.9410    7.0478 LP  0  0  0  0  0  0  0  0  0  0  0  0  # atno 5445 bound_to 3871
   -9.4975    4.9750    2.4028 LP  0  0  0  0  0  0  0  0  0  0  0  0  # atno 5452 bound_to 3936
  -10.5956    4.3746    1.3538 LP  0  0  0  0  0  0  0  0  0  0  0  0  # atno 5453 bound_to 3936

> <Gold.Score>
     Fitness  S(hb_ext) S(vdw_ext)  S(hb_int)    S(int)      intcor
     27.74       0.00      20.79       0.00      -0.84      -0.76

> <Gold.Goldscore.Fitness>
27.7407

> <Gold.Goldscore.Internal.Vdw>
-1.0667

> <Gold.Goldscore.Internal.Torsion>
-0.5360

> <Gold.Goldscore.External.Vdw>
20.7888

> <Gold.Goldscore.Internal.HBond>
0.0000

> <Gold.Goldscore.External.HBond>
0.0000

> <Gold.Goldscore.Internal.Correction>
-0.7590

> <Gold.Goldscore.Internal.Vdw.Weighted>
-1.0667

> <Gold.Goldscore.Internal.Torsion.Weighted>
-0.5360

> <Gold.Goldscore.External.Vdw.Weighted>
28.5845

> <Gold.Goldscore.Internal.HBond.Weighted>
0.0000

> <Gold.Goldscore.External.HBond.Weighted>
0.0000

> <Gold.Goldscore.Internal.Correction.Weighted>
-0.7590

> <Gold.Rescore>
     Score     S(PLP)   S(hbond)     S(cho)   S(metal)  DE(clash)   DE(tors)     intcor
     30.62     -32.46       0.00       0.00       0.00       1.21       0.32       ----

> <Gold.PLP.Fitness>
30.6238

> <Gold.PLP.PLP>
-32.4628

> <Gold.PLP.part.hbond>
0.0000

> <Gold.PLP.part.metal>
0.0000

> <Gold.PLP.part.buried>
-4.4934

> <Gold.PLP.part.nonpolar>
-28.9680

> <Gold.PLP.part.repulsive>
0.1571

> <Gold.PLP.ligand.clash>
1.2075

> <Gold.PLP.ligand.torsion>
0.3158

> <Gold.PLP.Chemscore.Hbond>
0.0000

> <Gold.PLP.Chemscore.CHOScore>
0.0000

> <Gold.PLP.Chemscore.Metal>
0.0000

> <Gold.PLP.Chemscore.Internal.Correction>
   9.000000E+99

