#       Name:                CT1002167954
#       Creating user name   hitesit
#       Creation time:       Sun Apr 16 02:22:07 2023


#       File generated by GOLD software.
#

@<TRIPOS>MOLECULE
CT1002167954|ligand_prepared|mol2|1|dock7
    29    30     1
SMALL
NO_CHARGES


@<TRIPOS>ATOM
      1 C1          -5.8050   2.0614   0.8471 C.3            1 RES1               0.0000
      2 C2          -6.5469   1.3346  -0.2931 C.ar           1 RES1               0.0000
      3 C3          -5.8680   1.1351   2.0580 C.2            1 RES1               0.0000
      4 C4          -4.3922   2.3240   0.3375 C.2            1 RES1               0.0000
      5 C5          -6.4333   3.4202   1.2349 C.3            1 RES1               0.0000
      6 C6          -6.8048   1.9831  -1.4971 C.ar           1 RES1               0.0000
      7 C7          -6.9764   0.0171  -0.1570 C.ar           1 RES1               0.0000
      8 N8          -4.7259   0.4790   2.4117 N.am           1 RES1               0.0000
      9 O9          -6.9136   0.9526   2.6693 O.2            1 RES1               0.0000
     10 N10         -3.3548   1.6821   0.9617 N.am           1 RES1               0.0000
     11 O11         -4.1695   3.0681  -0.6096 O.2            1 RES1               0.0000
     12 C12         -5.7580   4.0919   2.4202 C.3            1 RES1               0.0000
     13 C13         -7.4655   1.3371  -2.5289 C.ar           1 RES1               0.0000
     14 C14         -7.6372  -0.6270  -1.1900 C.ar           1 RES1               0.0000
     15 C15         -3.4604   0.7478   1.9558 C.2            1 RES1               0.0000
     16 C16         -7.8817   0.0317  -2.3762 C.ar           1 RES1               0.0000
     17 O17         -2.4842   0.1736   2.4296 O.2            1 RES1               0.0000
     18 H18         -6.3804   4.0933   0.3703 H              1 RES1               0.0000
     19 H19         -7.4925   3.2641   1.4740 H              1 RES1               0.0000
     20 H20         -6.4870   3.0112  -1.6347 H              1 RES1               0.0000
     21 H21         -6.7959  -0.5204   0.7677 H              1 RES1               0.0000
     22 H22         -4.8217  -0.2820   3.0766 H              1 RES1               0.0000
     23 H23         -2.4170   1.9231   0.6571 H              1 RES1               0.0000
     24 H24         -6.2374   5.0411   2.6502 H              1 RES1               0.0000
     25 H25         -5.8140   3.4608   3.3047 H              1 RES1               0.0000
     26 H26         -4.7085   4.2851   2.2076 H              1 RES1               0.0000
     27 H27         -7.6568   1.8603  -3.4600 H              1 RES1               0.0000
     28 H28         -7.9635  -1.6542  -1.0652 H              1 RES1               0.0000
     29 H29         -8.3989  -0.4743  -3.1847 H              1 RES1               0.0000
@<TRIPOS>BOND
    1    1    2 1     
    2    1    3 1     
    3    1    4 1     
    4    1    5 1     
    5    2    6 ar    
    6    2    7 ar    
    7    3    8 1     
    8    3    9 2     
    9    4   10 1     
   10    4   11 2     
   11    5   12 1     
   12    5   18 1     
   13    5   19 1     
   14    6   13 ar    
   15    6   20 1     
   16    7   14 ar    
   17    7   21 1     
   18    8   15 1     
   19    8   22 1     
   20   10   15 1     
   21   10   23 1     
   22   12   24 1     
   23   12   25 1     
   24   12   26 1     
   25   13   16 ar    
   26   13   27 1     
   27   14   16 ar    
   28   14   28 1     
   29   15   17 2     
   30   16   29 1     
@<TRIPOS>SUBSTRUCTURE
      1 RES1           1
@<TRIPOS>SET
DONOR_HYDROGENS      STATIC     ATOMS    <user>   **** ""
2 22 23
ATOM$RED        STATIC     ATOMS    COLORGROUP SYSTEM
2 22 23
@<TRIPOS>COMMENT
> <Gold.Version>
2022.3.0

> <Gold.Id.Protein>
unknown|3iw5_clean|pdb

> <Gold.Protein.RotatedTorsions>
[ 3850 3845 3844 3841 ] final   46.97 input   60.02 | X-H torsion
[ 3876 3871 3870 3867 ] final -171.26 input   59.98 | X-H torsion
[ 3945 3936 3935 3933 ] final -168.57 input   60.03 | X-H torsion
[ 3541 3531 3530 3529 ] final -106.69 input   59.98 | X-H torsion
[ 3992 3987 3986 3983 ] final    3.00 input   60.02 | X-H torsion

> <Gold.Protein.ActiveResidues>
 LEU195  TRP197  ASP227  HIS228  ILE229  ASP230  LEU232  LYS233  LEU236  PRO242 
 ILE250  SER252  SER254  ALA255  ARG256  ASN257  TYR258  ILE259  SER261  LEU262 

> <Gold.Protein.RotatedAtoms>
   -9.4769   12.3695   -3.2606 H   0  0  0  0  0  0  0  0  0  0  0  0  # atno 3541 bound_to 3531
   -8.4392   11.6496   -2.1874 H   0  0  0  0  0  0  0  0  0  0  0  0  # atno 3542 bound_to 3531
   -7.8390   12.5373   -3.4516 H   0  0  0  0  0  0  0  0  0  0  0  0  # atno 3543 bound_to 3531
   -5.1753   -7.4223    6.7738 H   0  0  0  0  0  0  0  0  0  0  0  0  # atno 3850 bound_to 3845
   -4.8532   -3.9288    8.1832 H   0  0  0  0  0  0  0  0  0  0  0  0  # atno 3876 bound_to 3871
   -9.6553    3.9962    0.8257 H   0  0  0  0  0  0  0  0  0  0  0  0  # atno 3945 bound_to 3936
  -14.0370    1.6483    3.9529 H   0  0  0  0  0  0  0  0  0  0  0  0  # atno 3992 bound_to 3987
   -6.1228   -6.7267    5.6480 LP  0  0  0  0  0  0  0  0  0  0  0  0  # atno 5440 bound_to 3845
   -4.5177   -6.4269    5.6666 LP  0  0  0  0  0  0  0  0  0  0  0  0  # atno 5441 bound_to 3845
   -5.9330   -3.5259    7.0340 LP  0  0  0  0  0  0  0  0  0  0  0  0  # atno 5444 bound_to 3871
   -5.5444   -5.0928    7.2798 LP  0  0  0  0  0  0  0  0  0  0  0  0  # atno 5445 bound_to 3871
   -8.9049    4.7357    2.0656 LP  0  0  0  0  0  0  0  0  0  0  0  0  # atno 5452 bound_to 3936
  -10.5348    4.7534    1.9661 LP  0  0  0  0  0  0  0  0  0  0  0  0  # atno 5453 bound_to 3936

> <Gold.Score>
     Fitness  S(hb_ext) S(vdw_ext)  S(hb_int)    S(int)      intcor
     26.07       0.00      20.29       0.00      -1.82      -0.76

> <Gold.Goldscore.Fitness>
26.0750

> <Gold.Goldscore.Internal.Vdw>
-2.1879

> <Gold.Goldscore.Internal.Torsion>
-0.3936

> <Gold.Goldscore.External.Vdw>
20.2891

> <Gold.Goldscore.Internal.HBond>
0.0000

> <Gold.Goldscore.External.HBond>
0.0000

> <Gold.Goldscore.Internal.Correction>
-0.7590

> <Gold.Goldscore.Internal.Vdw.Weighted>
-2.1879

> <Gold.Goldscore.Internal.Torsion.Weighted>
-0.3936

> <Gold.Goldscore.External.Vdw.Weighted>
27.8975

> <Gold.Goldscore.Internal.HBond.Weighted>
0.0000

> <Gold.Goldscore.External.HBond.Weighted>
0.0000

> <Gold.Goldscore.Internal.Correction.Weighted>
-0.7590

> <Gold.Rescore>
     Score     S(PLP)   S(hbond)     S(cho)   S(metal)  DE(clash)   DE(tors)     intcor
     29.67     -31.16       0.00       0.00       0.00       1.36       0.06       ----

> <Gold.PLP.Fitness>
29.6727

> <Gold.PLP.PLP>
-31.1625

> <Gold.PLP.part.hbond>
0.0000

> <Gold.PLP.part.metal>
0.0000

> <Gold.PLP.part.buried>
-2.1025

> <Gold.PLP.part.nonpolar>
-30.1268

> <Gold.PLP.part.repulsive>
0.0729

> <Gold.PLP.ligand.clash>
1.3600

> <Gold.PLP.ligand.torsion>
0.0649

> <Gold.PLP.Chemscore.Hbond>
0.0000

> <Gold.PLP.Chemscore.CHOScore>
0.0000

> <Gold.PLP.Chemscore.Metal>
0.0000

> <Gold.PLP.Chemscore.Internal.Correction>
   9.000000E+99

