#       Name:                CT1002167954
#       Creating user name   hitesit
#       Creation time:       Sun Apr 16 02:22:08 2023


#       File generated by GOLD software.
#

@<TRIPOS>MOLECULE
CT1002167954|ligand_prepared|mol2|1|dock9
    29    30     1
SMALL
NO_CHARGES


@<TRIPOS>ATOM
      1 C1          -5.8651   0.0783   2.4336 C.3            1 RES1               0.0000
      2 C2          -6.2489   1.0379   1.2888 C.ar           1 RES1               0.0000
      3 C3          -6.5065  -1.2653   2.0995 C.2            1 RES1               0.0000
      4 C4          -4.3412   0.0478   2.4719 C.2            1 RES1               0.0000
      5 C5          -6.3690   0.5310   3.8238 C.3            1 RES1               0.0000
      6 C6          -6.1401   2.4156   1.4525 C.ar           1 RES1               0.0000
      7 C7          -6.7101   0.5612   0.0646 C.ar           1 RES1               0.0000
      8 N8          -5.6880  -2.2650   1.6629 N.am           1 RES1               0.0000
      9 O9          -7.7171  -1.4331   2.1801 O.2            1 RES1               0.0000
     10 N10         -3.7145  -1.1304   2.1606 N.am           1 RES1               0.0000
     11 O11         -3.6771   1.0379   2.7526 O.2            1 RES1               0.0000
     12 C12         -6.2515  -0.5397   4.8971 C.3            1 RES1               0.0000
     13 C13         -6.4771   3.2852   0.4285 C.ar           1 RES1               0.0000
     14 C14         -7.0469   1.4326  -0.9580 C.ar           1 RES1               0.0000
     15 C15         -4.3179  -2.2797   1.7280 C.2            1 RES1               0.0000
     16 C16         -6.9303   2.7944  -0.7774 C.ar           1 RES1               0.0000
     17 O17         -3.6824  -3.2823   1.4146 O.2            1 RES1               0.0000
     18 H18         -5.7943   1.4108   4.1383 H              1 RES1               0.0000
     19 H19         -7.4208   0.8307   3.7378 H              1 RES1               0.0000
     20 H20         -5.7876   2.8204   2.3954 H              1 RES1               0.0000
     21 H21         -6.8109  -0.5063  -0.0997 H              1 RES1               0.0000
     22 H22         -6.1361  -3.0768   1.2498 H              1 RES1               0.0000
     23 H23         -2.7047  -1.1527   2.2607 H              1 RES1               0.0000
     24 H24         -6.6186  -0.1703   5.8523 H              1 RES1               0.0000
     25 H25         -6.8316  -1.4202   4.6287 H              1 RES1               0.0000
     26 H26         -5.2148  -0.8435   5.0269 H              1 RES1               0.0000
     27 H27         -6.3849   4.3562   0.5762 H              1 RES1               0.0000
     28 H28         -7.4037   1.0419  -1.9053 H              1 RES1               0.0000
     29 H29         -7.1939   3.4758  -1.5796 H              1 RES1               0.0000
@<TRIPOS>BOND
    1    1    2 1     
    2    1    3 1     
    3    1    4 1     
    4    1    5 1     
    5    2    6 ar    
    6    2    7 ar    
    7    3    8 1     
    8    3    9 2     
    9    4   10 1     
   10    4   11 2     
   11    5   12 1     
   12    5   18 1     
   13    5   19 1     
   14    6   13 ar    
   15    6   20 1     
   16    7   14 ar    
   17    7   21 1     
   18    8   15 1     
   19    8   22 1     
   20   10   15 1     
   21   10   23 1     
   22   12   24 1     
   23   12   25 1     
   24   12   26 1     
   25   13   16 ar    
   26   13   27 1     
   27   14   16 ar    
   28   14   28 1     
   29   15   17 2     
   30   16   29 1     
@<TRIPOS>SUBSTRUCTURE
      1 RES1           1
@<TRIPOS>SET
DONOR_HYDROGENS      STATIC     ATOMS    <user>   **** ""
2 22 23
ATOM$RED        STATIC     ATOMS    COLORGROUP SYSTEM
2 22 23
@<TRIPOS>COMMENT
> <Gold.Version>
2022.3.0

> <Gold.Id.Protein>
unknown|3iw5_clean|pdb

> <Gold.Protein.RotatedTorsions>
[ 3850 3845 3844 3841 ] final   75.36 input   60.02 | X-H torsion
[ 3876 3871 3870 3867 ] final   96.90 input   59.98 | X-H torsion
[ 3945 3936 3935 3933 ] final -163.83 input   60.03 | X-H torsion
[ 3541 3531 3530 3529 ] final  -46.90 input   59.98 | X-H torsion
[ 3992 3987 3986 3983 ] final -144.60 input   60.02 | X-H torsion

> <Gold.Protein.ActiveResidues>
 LEU195  TRP197  ASP227  HIS228  ILE229  ASP230  LEU232  LYS233  LEU236  PRO242 
 ILE250  SER252  SER254  ALA255  ARG256  ASN257  TYR258  ILE259  SER261  LEU262 

> <Gold.Protein.RotatedAtoms>
   -9.3333   11.8351   -2.4835 H   0  0  0  0  0  0  0  0  0  0  0  0  # atno 3541 bound_to 3531
   -7.6947   11.9994   -2.6698 H   0  0  0  0  0  0  0  0  0  0  0  0  # atno 3542 bound_to 3531
   -8.7274   12.7218   -3.7460 H   0  0  0  0  0  0  0  0  0  0  0  0  # atno 3543 bound_to 3531
   -4.7492   -7.2731    6.6894 H   0  0  0  0  0  0  0  0  0  0  0  0  # atno 3850 bound_to 3845
   -5.6854   -3.2921    7.3388 H   0  0  0  0  0  0  0  0  0  0  0  0  # atno 3876 bound_to 3871
   -9.7326    3.9988    0.8237 H   0  0  0  0  0  0  0  0  0  0  0  0  # atno 3945 bound_to 3936
  -13.2420    1.3365    5.5359 H   0  0  0  0  0  0  0  0  0  0  0  0  # atno 3992 bound_to 3987
   -6.2009   -7.0163    5.9998 LP  0  0  0  0  0  0  0  0  0  0  0  0  # atno 5440 bound_to 3845
   -4.8685   -6.2875    5.3997 LP  0  0  0  0  0  0  0  0  0  0  0  0  # atno 5441 bound_to 3845
   -5.8280   -4.8758    6.9920 LP  0  0  0  0  0  0  0  0  0  0  0  0  # atno 5444 bound_to 3871
   -4.8118   -4.3838    8.1717 LP  0  0  0  0  0  0  0  0  0  0  0  0  # atno 5445 bound_to 3871
   -8.8657    4.6987    2.0093 LP  0  0  0  0  0  0  0  0  0  0  0  0  # atno 5452 bound_to 3936
  -10.4961    4.7878    2.0244 LP  0  0  0  0  0  0  0  0  0  0  0  0  # atno 5453 bound_to 3936

> <Gold.Score>
     Fitness  S(hb_ext) S(vdw_ext)  S(hb_int)    S(int)      intcor
     30.14       0.00      22.79       0.00      -1.19      -0.76

> <Gold.Goldscore.Fitness>
30.1444

> <Gold.Goldscore.Internal.Vdw>
-1.3453

> <Gold.Goldscore.Internal.Torsion>
-0.6035

> <Gold.Goldscore.External.Vdw>
22.7889

> <Gold.Goldscore.Internal.HBond>
0.0000

> <Gold.Goldscore.External.HBond>
0.0000

> <Gold.Goldscore.Internal.Correction>
-0.7585

> <Gold.Goldscore.Internal.Vdw.Weighted>
-1.3453

> <Gold.Goldscore.Internal.Torsion.Weighted>
-0.6035

> <Gold.Goldscore.External.Vdw.Weighted>
31.3347

> <Gold.Goldscore.Internal.HBond.Weighted>
0.0000

> <Gold.Goldscore.External.HBond.Weighted>
0.0000

> <Gold.Goldscore.Internal.Correction.Weighted>
-0.7585

> <Gold.Rescore>
     Score     S(PLP)   S(hbond)     S(cho)   S(metal)  DE(clash)   DE(tors)     intcor
     33.51     -35.08       0.00       0.00       0.00       1.38       0.10       ----

> <Gold.PLP.Fitness>
33.5065

> <Gold.PLP.PLP>
-35.0832

> <Gold.PLP.part.hbond>
0.0000

> <Gold.PLP.part.metal>
0.0000

> <Gold.PLP.part.buried>
-3.5787

> <Gold.PLP.part.nonpolar>
-32.0428

> <Gold.PLP.part.repulsive>
0.1762

> <Gold.PLP.ligand.clash>
1.3812

> <Gold.PLP.ligand.torsion>
0.0978

> <Gold.PLP.Chemscore.Hbond>
0.0000

> <Gold.PLP.Chemscore.CHOScore>
0.0000

> <Gold.PLP.Chemscore.Metal>
0.0000

> <Gold.PLP.Chemscore.Internal.Correction>
   9.000000E+99

