#       Name:                GA Fitting Points
#       Creating user name   hitesit
#       Creation time:       Sun Apr 16 02:23:00 2023


#       Fitting Points Used by GA Software.
#

@<TRIPOS>MOLECULE
GA Fitting Points
  1852    0    0
SMALL
NO_CHARGES


@<TRIPOS>ATOM
      1 ****       -44.7500  24.2500 -19.7500 Du        
      2 ****       -44.7500  24.5000 -19.7500 Du        
      3 ****       -44.5000  23.0000 -19.2500 Du        
      4 ****       -44.5000  23.2500 -19.5000 Du        
      5 ****       -44.5000  23.2500 -19.2500 Du        
      6 ****       -44.5000  23.2500 -19.0000 Du        
      7 ****       -44.5000  23.7500 -19.7500 Du        
      8 ****       -44.5000  23.7500 -19.5000 Du        
      9 ****       -44.5000  24.0000 -19.7500 Du        
     10 ****       -44.5000  24.0000 -19.5000 Du        
     11 ****       -44.5000  24.2500 -20.0000 Du        
     12 ****       -44.5000  24.2500 -19.7500 Du        
     13 ****       -44.5000  24.5000 -20.0000 Du        
     14 ****       -44.5000  24.5000 -19.7500 Du        
     15 ****       -44.2500  23.0000 -19.7500 Du        
     16 ****       -44.2500  23.0000 -19.5000 Du        
     17 ****       -44.2500  23.0000 -19.2500 Du        
     18 ****       -44.2500  23.0000 -19.0000 Du        
     19 ****       -44.2500  23.2500 -19.7500 Du        
     20 ****       -44.2500  23.2500 -19.5000 Du        
     21 ****       -44.2500  23.2500 -19.2500 Du        
     22 ****       -44.2500  23.2500 -19.0000 Du        
     23 ****       -44.2500  23.5000 -20.0000 Du        
     24 ****       -44.2500  23.5000 -19.7500 Du        
     25 ****       -44.2500  23.5000 -19.5000 Du        
     26 ****       -44.2500  23.5000 -19.2500 Du        
     27 ****       -44.2500  23.7500 -20.0000 Du        
     28 ****       -44.2500  23.7500 -19.7500 Du        
     29 ****       -44.2500  23.7500 -19.5000 Du        
     30 ****       -44.2500  23.7500 -19.2500 Du        
     31 ****       -44.2500  24.0000 -20.2500 Du        
     32 ****       -44.2500  24.0000 -20.0000 Du        
     33 ****       -44.2500  24.0000 -19.7500 Du        
     34 ****       -44.2500  24.0000 -19.5000 Du        
     35 ****       -44.2500  24.0000 -19.2500 Du        
     36 ****       -44.2500  24.2500 -20.2500 Du        
     37 ****       -44.2500  24.2500 -20.0000 Du        
     38 ****       -44.2500  24.2500 -19.7500 Du        
     39 ****       -44.2500  24.2500 -19.5000 Du        
     40 ****       -44.2500  24.5000 -20.2500 Du        
     41 ****       -44.2500  24.5000 -20.0000 Du        
     42 ****       -44.2500  24.5000 -19.7500 Du        
     43 ****       -44.2500  24.7500 -20.2500 Du        
     44 ****       -44.2500  24.7500 -20.0000 Du        
     45 ****       -44.2500  24.7500 -19.7500 Du        
     46 ****       -44.2500  25.0000 -20.5000 Du        
     47 ****       -44.2500  25.0000 -20.2500 Du        
     48 ****       -44.2500  25.0000 -20.0000 Du        
     49 ****       -44.2500  25.0000 -19.7500 Du        
     50 ****       -44.0000  22.7500 -20.0000 Du        
     51 ****       -44.0000  22.7500 -19.7500 Du        
     52 ****       -44.0000  22.7500 -19.5000 Du        
     53 ****       -44.0000  22.7500 -19.2500 Du        
     54 ****       -44.0000  22.7500 -19.0000 Du        
     55 ****       -44.0000  23.0000 -20.0000 Du        
     56 ****       -44.0000  23.0000 -19.7500 Du        
     57 ****       -44.0000  23.0000 -19.5000 Du        
     58 ****       -44.0000  23.0000 -19.2500 Du        
     59 ****       -44.0000  23.0000 -19.0000 Du        
     60 ****       -44.0000  23.2500 -20.2500 Du        
     61 ****       -44.0000  23.2500 -20.0000 Du        
     62 ****       -44.0000  23.2500 -19.7500 Du        
     63 ****       -44.0000  23.2500 -19.5000 Du        
     64 ****       -44.0000  23.2500 -19.2500 Du        
     65 ****       -44.0000  23.2500 -19.0000 Du        
     66 ****       -44.0000  23.5000 -20.2500 Du        
     67 ****       -44.0000  23.5000 -20.0000 Du        
     68 ****       -44.0000  23.5000 -19.7500 Du        
     69 ****       -44.0000  23.5000 -19.5000 Du        
     70 ****       -44.0000  23.5000 -19.2500 Du        
     71 ****       -44.0000  23.7500 -20.2500 Du        
     72 ****       -44.0000  23.7500 -20.0000 Du        
     73 ****       -44.0000  23.7500 -19.7500 Du        
     74 ****       -44.0000  23.7500 -19.5000 Du        
     75 ****       -44.0000  23.7500 -19.2500 Du        
     76 ****       -44.0000  24.0000 -20.2500 Du        
     77 ****       -44.0000  24.0000 -20.0000 Du        
     78 ****       -44.0000  24.0000 -19.7500 Du        
     79 ****       -44.0000  24.0000 -19.5000 Du        
     80 ****       -44.0000  24.0000 -19.2500 Du        
     81 ****       -44.0000  24.2500 -20.2500 Du        
     82 ****       -44.0000  24.2500 -20.0000 Du        
     83 ****       -44.0000  24.2500 -19.7500 Du        
     84 ****       -44.0000  24.2500 -19.5000 Du        
     85 ****       -44.0000  24.5000 -20.5000 Du        
     86 ****       -44.0000  24.5000 -20.2500 Du        
     87 ****       -44.0000  24.5000 -20.0000 Du        
     88 ****       -44.0000  24.5000 -19.7500 Du        
     89 ****       -44.0000  24.7500 -20.5000 Du        
     90 ****       -44.0000  24.7500 -20.2500 Du        
     91 ****       -44.0000  24.7500 -20.0000 Du        
     92 ****       -44.0000  24.7500 -19.7500 Du        
     93 ****       -44.0000  25.0000 -20.5000 Du        
     94 ****       -44.0000  25.0000 -20.2500 Du        
     95 ****       -44.0000  25.0000 -20.0000 Du        
     96 ****       -44.0000  25.0000 -19.7500 Du        
     97 ****       -43.7500  22.5000 -20.0000 Du        
     98 ****       -43.7500  22.5000 -19.7500 Du        
     99 ****       -43.7500  22.5000 -19.5000 Du        
    100 ****       -43.7500  22.7500 -20.2500 Du        
    101 ****       -43.7500  22.7500 -20.0000 Du        
    102 ****       -43.7500  22.7500 -19.7500 Du        
    103 ****       -43.7500  22.7500 -19.5000 Du        
    104 ****       -43.7500  22.7500 -19.2500 Du        
    105 ****       -43.7500  23.0000 -20.2500 Du        
    106 ****       -43.7500  23.0000 -20.0000 Du        
    107 ****       -43.7500  23.0000 -19.7500 Du        
    108 ****       -43.7500  23.0000 -19.5000 Du        
    109 ****       -43.7500  23.0000 -19.2500 Du        
    110 ****       -43.7500  23.0000 -19.0000 Du        
    111 ****       -43.7500  23.2500 -20.2500 Du        
    112 ****       -43.7500  23.2500 -20.0000 Du        
    113 ****       -43.7500  23.2500 -19.7500 Du        
    114 ****       -43.7500  23.2500 -19.5000 Du        
    115 ****       -43.7500  23.2500 -19.2500 Du        
    116 ****       -43.7500  23.2500 -19.0000 Du        
    117 ****       -43.7500  23.5000 -20.2500 Du        
    118 ****       -43.7500  23.5000 -20.0000 Du        
    119 ****       -43.7500  23.5000 -19.7500 Du        
    120 ****       -43.7500  23.5000 -19.5000 Du        
    121 ****       -43.7500  23.5000 -19.2500 Du        
    122 ****       -43.7500  23.7500 -20.2500 Du        
    123 ****       -43.7500  23.7500 -20.0000 Du        
    124 ****       -43.7500  23.7500 -19.7500 Du        
    125 ****       -43.7500  23.7500 -19.5000 Du        
    126 ****       -43.7500  23.7500 -19.2500 Du        
    127 ****       -43.7500  24.0000 -20.5000 Du        
    128 ****       -43.7500  24.0000 -20.2500 Du        
    129 ****       -43.7500  24.0000 -20.0000 Du        
    130 ****       -43.7500  24.0000 -19.7500 Du        
    131 ****       -43.7500  24.0000 -19.5000 Du        
    132 ****       -43.7500  24.0000 -19.2500 Du        
    133 ****       -43.7500  24.2500 -20.5000 Du        
    134 ****       -43.7500  24.2500 -20.2500 Du        
    135 ****       -43.7500  24.2500 -20.0000 Du        
    136 ****       -43.7500  24.2500 -19.7500 Du        
    137 ****       -43.7500  24.2500 -19.5000 Du        
    138 ****       -43.7500  24.5000 -20.5000 Du        
    139 ****       -43.7500  24.5000 -20.2500 Du        
    140 ****       -43.7500  24.5000 -20.0000 Du        
    141 ****       -43.7500  24.5000 -19.7500 Du        
    142 ****       -43.7500  24.7500 -20.5000 Du        
    143 ****       -43.7500  24.7500 -20.2500 Du        
    144 ****       -43.7500  24.7500 -20.0000 Du        
    145 ****       -43.7500  24.7500 -19.7500 Du        
    146 ****       -43.7500  25.0000 -20.5000 Du        
    147 ****       -43.7500  25.0000 -20.2500 Du        
    148 ****       -43.7500  25.0000 -20.0000 Du        
    149 ****       -43.7500  25.0000 -19.7500 Du        
    150 ****       -43.7500  25.2500 -20.2500 Du        
    151 ****       -43.7500  25.2500 -20.0000 Du        
    152 ****       -43.7500  25.2500 -19.7500 Du        
    153 ****       -43.7500  25.5000 -20.0000 Du        
    154 ****       -43.7500  25.5000 -19.7500 Du        
    155 ****       -43.5000  22.2500 -20.0000 Du        
    156 ****       -43.5000  22.2500 -19.7500 Du        
    157 ****       -43.5000  22.5000 -20.2500 Du        
    158 ****       -43.5000  22.5000 -20.0000 Du        
    159 ****       -43.5000  22.5000 -19.7500 Du        
    160 ****       -43.5000  22.7500 -20.2500 Du        
    161 ****       -43.5000  22.7500 -20.0000 Du        
    162 ****       -43.5000  22.7500 -19.7500 Du        
    163 ****       -43.5000  22.7500 -19.5000 Du        
    164 ****       -43.5000  23.0000 -20.2500 Du        
    165 ****       -43.5000  23.0000 -20.0000 Du        
    166 ****       -43.5000  23.0000 -19.7500 Du        
    167 ****       -43.5000  23.0000 -19.5000 Du        
    168 ****       -43.5000  23.0000 -19.2500 Du        
    169 ****       -43.5000  23.2500 -20.2500 Du        
    170 ****       -43.5000  23.2500 -20.0000 Du        
    171 ****       -43.5000  23.2500 -19.7500 Du        
    172 ****       -43.5000  23.2500 -19.5000 Du        
    173 ****       -43.5000  23.5000 -20.2500 Du        
    174 ****       -43.5000  23.5000 -20.0000 Du        
    175 ****       -43.5000  23.5000 -19.7500 Du        
    176 ****       -43.5000  23.7500 -20.2500 Du        
    177 ****       -43.5000  23.7500 -20.0000 Du        
    178 ****       -43.5000  23.7500 -19.7500 Du        
    179 ****       -43.5000  24.0000 -20.5000 Du        
    180 ****       -43.5000  24.0000 -20.2500 Du        
    181 ****       -43.5000  24.0000 -20.0000 Du        
    182 ****       -43.5000  24.0000 -19.7500 Du        
    183 ****       -43.5000  24.2500 -20.5000 Du        
    184 ****       -43.5000  24.2500 -20.2500 Du        
    185 ****       -43.5000  24.2500 -20.0000 Du        
    186 ****       -43.5000  24.2500 -19.7500 Du        
    187 ****       -43.5000  24.5000 -20.2500 Du        
    188 ****       -43.5000  24.5000 -20.0000 Du        
    189 ****       -43.5000  24.5000 -19.7500 Du        
    190 ****       -43.5000  24.7500 -20.2500 Du        
    191 ****       -43.5000  24.7500 -20.0000 Du        
    192 ****       -43.5000  24.7500 -19.7500 Du        
    193 ****       -43.5000  25.0000 -20.0000 Du        
    194 ****       -43.5000  25.0000 -19.7500 Du        
    195 ****       -43.5000  25.2500 -20.0000 Du        
    196 ****       -43.5000  25.2500 -19.7500 Du        
    197 ****       -43.2500  22.0000 -20.0000 Du        
    198 ****       -43.2500  22.0000 -19.7500 Du        
    199 ****       -43.2500  22.2500 -20.2500 Du        
    200 ****       -43.2500  22.2500 -20.0000 Du        
    201 ****       -43.2500  22.2500 -19.7500 Du        
    202 ****       -43.2500  22.2500 -19.5000 Du        
    203 ****       -43.2500  22.2500 -19.2500 Du        
    204 ****       -43.2500  22.5000 -20.2500 Du        
    205 ****       -43.2500  22.5000 -20.0000 Du        
    206 ****       -43.2500  22.5000 -19.7500 Du        
    207 ****       -43.2500  22.5000 -19.5000 Du        
    208 ****       -43.2500  22.7500 -20.2500 Du        
    209 ****       -43.2500  22.7500 -20.0000 Du        
    210 ****       -43.2500  22.7500 -19.7500 Du        
    211 ****       -43.2500  22.7500 -19.5000 Du        
    212 ****       -43.2500  22.7500 -19.2500 Du        
    213 ****       -43.2500  23.0000 -20.2500 Du        
    214 ****       -43.2500  23.0000 -20.0000 Du        
    215 ****       -43.2500  23.0000 -19.7500 Du        
    216 ****       -43.2500  23.0000 -19.5000 Du        
    217 ****       -43.2500  23.0000 -19.2500 Du        
    218 ****       -43.2500  23.2500 -20.2500 Du        
    219 ****       -43.2500  23.2500 -20.0000 Du        
    220 ****       -43.2500  23.2500 -19.7500 Du        
    221 ****       -43.2500  23.2500 -19.5000 Du        
    222 ****       -43.2500  23.5000 -20.2500 Du        
    223 ****       -43.2500  23.5000 -20.0000 Du        
    224 ****       -43.2500  23.5000 -19.7500 Du        
    225 ****       -43.2500  23.7500 -20.2500 Du        
    226 ****       -43.2500  23.7500 -20.0000 Du        
    227 ****       -43.2500  23.7500 -19.7500 Du        
    228 ****       -43.2500  24.0000 -20.2500 Du        
    229 ****       -43.2500  24.0000 -20.0000 Du        
    230 ****       -43.2500  24.0000 -19.7500 Du        
    231 ****       -43.2500  24.2500 -20.2500 Du        
    232 ****       -43.2500  24.2500 -20.0000 Du        
    233 ****       -43.2500  24.2500 -19.7500 Du        
    234 ****       -43.2500  24.5000 -20.0000 Du        
    235 ****       -43.2500  24.5000 -19.7500 Du        
    236 ****       -43.2500  24.7500 -19.7500 Du        
    237 ****       -43.0000  22.0000 -20.0000 Du        
    238 ****       -43.0000  22.0000 -19.7500 Du        
    239 ****       -43.0000  22.0000 -19.5000 Du        
    240 ****       -43.0000  22.0000 -19.2500 Du        
    241 ****       -43.0000  22.2500 -20.2500 Du        
    242 ****       -43.0000  22.2500 -20.0000 Du        
    243 ****       -43.0000  22.2500 -19.7500 Du        
    244 ****       -43.0000  22.2500 -19.5000 Du        
    245 ****       -43.0000  22.2500 -19.2500 Du        
    246 ****       -43.0000  22.2500 -19.0000 Du        
    247 ****       -43.0000  22.5000 -20.2500 Du        
    248 ****       -43.0000  22.5000 -20.0000 Du        
    249 ****       -43.0000  22.5000 -19.7500 Du        
    250 ****       -43.0000  22.5000 -19.5000 Du        
    251 ****       -43.0000  22.5000 -19.2500 Du        
    252 ****       -43.0000  22.7500 -20.2500 Du        
    253 ****       -43.0000  22.7500 -20.0000 Du        
    254 ****       -43.0000  22.7500 -19.7500 Du        
    255 ****       -43.0000  22.7500 -19.5000 Du        
    256 ****       -43.0000  22.7500 -19.2500 Du        
    257 ****       -43.0000  23.0000 -20.0000 Du        
    258 ****       -43.0000  23.0000 -19.7500 Du        
    259 ****       -43.0000  23.0000 -19.5000 Du        
    260 ****       -43.0000  23.0000 -19.2500 Du        
    261 ****       -43.0000  23.2500 -20.0000 Du        
    262 ****       -43.0000  23.2500 -19.7500 Du        
    263 ****       -43.0000  23.2500 -19.5000 Du        
    264 ****       -43.0000  23.5000 -20.0000 Du        
    265 ****       -43.0000  23.5000 -19.7500 Du        
    266 ****       -43.0000  23.7500 -20.0000 Du        
    267 ****       -43.0000  23.7500 -19.7500 Du        
    268 ****       -43.0000  24.0000 -20.0000 Du        
    269 ****       -43.0000  24.0000 -19.7500 Du        
    270 ****       -42.7500  22.0000 -20.0000 Du        
    271 ****       -42.7500  22.0000 -19.7500 Du        
    272 ****       -42.7500  22.0000 -19.5000 Du        
    273 ****       -42.7500  22.0000 -19.2500 Du        
    274 ****       -42.7500  22.2500 -20.0000 Du        
    275 ****       -42.7500  22.2500 -19.7500 Du        
    276 ****       -42.7500  22.2500 -19.5000 Du        
    277 ****       -42.7500  22.2500 -19.2500 Du        
    278 ****       -42.7500  22.5000 -20.0000 Du        
    279 ****       -42.7500  22.5000 -19.7500 Du        
    280 ****       -42.7500  22.5000 -19.5000 Du        
    281 ****       -42.7500  22.5000 -19.2500 Du        
    282 ****       -42.7500  22.7500 -20.0000 Du        
    283 ****       -42.7500  22.7500 -19.7500 Du        
    284 ****       -42.7500  22.7500 -19.5000 Du        
    285 ****       -42.7500  22.7500 -19.2500 Du        
    286 ****       -42.7500  23.0000 -20.0000 Du        
    287 ****       -42.7500  23.0000 -19.7500 Du        
    288 ****       -42.7500  23.0000 -19.5000 Du        
    289 ****       -42.7500  23.0000 -19.2500 Du        
    290 ****       -42.7500  23.2500 -20.0000 Du        
    291 ****       -42.7500  23.2500 -19.7500 Du        
    292 ****       -42.7500  23.5000 -19.7500 Du        
    293 ****       -42.5000  22.0000 -19.7500 Du        
    294 ****       -42.5000  22.2500 -20.0000 Du        
    295 ****       -42.5000  22.2500 -19.7500 Du        
    296 ****       -42.5000  22.2500 -19.5000 Du        
    297 ****       -42.5000  22.2500 -19.2500 Du        
    298 ****       -42.5000  22.5000 -19.7500 Du        
    299 ****       -42.5000  22.7500 -20.0000 Du        
    300 ****       -42.5000  22.7500 -19.7500 Du        
    301 ****       -42.5000  23.0000 -20.0000 Du        
    302 ****       -42.5000  23.0000 -19.7500 Du        
    303 ****       -42.5000  23.2500 -19.7500 Du        
    304 ****       -42.2500  22.2500 -19.7500 Du        
    305 ****       -42.2500  22.2500 -19.5000 Du        
    306 ****       -42.2500  22.2500 -19.2500 Du        
    307 ****       -42.2500  22.5000 -19.7500 Du        
    308 ****       -42.2500  22.7500 -19.7500 Du        
    309 ****       -42.2500  23.0000 -19.7500 Du        
    310 ****       -42.2500  23.2500 -19.7500 Du        
    311 ****       -42.0000  22.2500 -19.7500 Du        
    312 ****       -42.0000  22.5000 -19.7500 Du        
    313 ****       -42.0000  22.7500 -19.7500 Du        
    314 ****       -42.0000  23.0000 -19.7500 Du        
    315 ****       -41.7500  22.2500 -19.7500 Du        
    316 ****       -41.7500  22.5000 -19.7500 Du        
    317 ****       -41.7500  22.7500 -19.7500 Du        
    318 ****       -41.5000  22.2500 -19.7500 Du        
    319 ****       -41.2500  22.2500 -19.7500 Du        
    320 ****       -40.7500  22.2500 -20.0000 Du        
    321 ****       -40.5000  22.2500 -20.2500 Du        
    322 ****       -40.5000  22.2500 -20.0000 Du        
    323 ****       -40.2500  22.0000 -20.7500 Du        
    324 ****       -40.2500  22.0000 -20.5000 Du        
    325 ****       -40.2500  22.2500 -20.7500 Du        
    326 ****       -40.2500  22.2500 -20.5000 Du        
    327 ****       -40.2500  22.2500 -20.2500 Du        
    328 ****       -40.2500  22.2500 -20.0000 Du        
    329 ****       -40.2500  22.2500 -19.7500 Du        
    330 ****       -40.2500  22.5000 -20.5000 Du        
    331 ****       -40.2500  22.5000 -20.2500 Du        
    332 ****       -40.2500  22.5000 -20.0000 Du        
    333 ****       -40.0000  21.7500 -21.2500 Du        
    334 ****       -40.0000  21.7500 -21.0000 Du        
    335 ****       -40.0000  21.7500 -20.7500 Du        
    336 ****       -40.0000  22.0000 -21.2500 Du        
    337 ****       -40.0000  22.0000 -21.0000 Du        
    338 ****       -40.0000  22.0000 -20.7500 Du        
    339 ****       -40.0000  22.0000 -20.5000 Du        
    340 ****       -40.0000  22.0000 -20.2500 Du        
    341 ****       -40.0000  22.0000 -20.0000 Du        
    342 ****       -40.0000  22.2500 -21.0000 Du        
    343 ****       -40.0000  22.2500 -20.7500 Du        
    344 ****       -40.0000  22.2500 -20.5000 Du        
    345 ****       -40.0000  22.2500 -20.2500 Du        
    346 ****       -40.0000  22.2500 -20.0000 Du        
    347 ****       -40.0000  22.2500 -19.7500 Du        
    348 ****       -40.0000  22.5000 -20.7500 Du        
    349 ****       -40.0000  22.5000 -20.5000 Du        
    350 ****       -40.0000  22.5000 -20.2500 Du        
    351 ****       -40.0000  22.5000 -20.0000 Du        
    352 ****       -40.0000  22.5000 -19.7500 Du        
    353 ****       -40.0000  22.7500 -20.2500 Du        
    354 ****       -40.0000  22.7500 -20.0000 Du        
    355 ****       -39.7500  21.2500 -21.7500 Du        
    356 ****       -39.7500  21.2500 -21.5000 Du        
    357 ****       -39.7500  21.2500 -21.2500 Du        
    358 ****       -39.7500  21.5000 -21.7500 Du        
    359 ****       -39.7500  21.5000 -21.5000 Du        
    360 ****       -39.7500  21.5000 -21.2500 Du        
    361 ****       -39.7500  21.5000 -21.0000 Du        
    362 ****       -39.7500  21.5000 -20.7500 Du        
    363 ****       -39.7500  21.7500 -21.7500 Du        
    364 ****       -39.7500  21.7500 -21.5000 Du        
    365 ****       -39.7500  21.7500 -21.2500 Du        
    366 ****       -39.7500  21.7500 -21.0000 Du        
    367 ****       -39.7500  21.7500 -20.7500 Du        
    368 ****       -39.7500  21.7500 -20.5000 Du        
    369 ****       -39.7500  22.0000 -21.5000 Du        
    370 ****       -39.7500  22.0000 -21.2500 Du        
    371 ****       -39.7500  22.0000 -21.0000 Du        
    372 ****       -39.7500  22.0000 -20.7500 Du        
    373 ****       -39.7500  22.0000 -20.5000 Du        
    374 ****       -39.7500  22.0000 -20.2500 Du        
    375 ****       -39.7500  22.0000 -20.0000 Du        
    376 ****       -39.7500  22.2500 -21.5000 Du        
    377 ****       -39.7500  22.2500 -21.2500 Du        
    378 ****       -39.7500  22.2500 -21.0000 Du        
    379 ****       -39.7500  22.2500 -20.7500 Du        
    380 ****       -39.7500  22.2500 -20.5000 Du        
    381 ****       -39.7500  22.2500 -20.2500 Du        
    382 ****       -39.7500  22.2500 -20.0000 Du        
    383 ****       -39.7500  22.2500 -19.7500 Du        
    384 ****       -39.7500  22.5000 -21.2500 Du        
    385 ****       -39.7500  22.5000 -21.0000 Du        
    386 ****       -39.7500  22.5000 -20.7500 Du        
    387 ****       -39.7500  22.5000 -20.5000 Du        
    388 ****       -39.7500  22.5000 -20.2500 Du        
    389 ****       -39.7500  22.5000 -20.0000 Du        
    390 ****       -39.7500  22.5000 -19.7500 Du        
    391 ****       -39.7500  22.7500 -21.0000 Du        
    392 ****       -39.7500  22.7500 -20.7500 Du        
    393 ****       -39.7500  22.7500 -20.5000 Du        
    394 ****       -39.7500  22.7500 -20.2500 Du        
    395 ****       -39.7500  22.7500 -20.0000 Du        
    396 ****       -39.7500  22.7500 -19.7500 Du        
    397 ****       -39.5000  21.0000 -22.0000 Du        
    398 ****       -39.5000  21.0000 -21.7500 Du        
    399 ****       -39.5000  21.2500 -22.2500 Du        
    400 ****       -39.5000  21.2500 -22.0000 Du        
    401 ****       -39.5000  21.2500 -21.7500 Du        
    402 ****       -39.5000  21.2500 -21.5000 Du        
    403 ****       -39.5000  21.2500 -21.2500 Du        
    404 ****       -39.5000  21.2500 -21.0000 Du        
    405 ****       -39.5000  21.5000 -22.2500 Du        
    406 ****       -39.5000  21.5000 -22.0000 Du        
    407 ****       -39.5000  21.5000 -21.7500 Du        
    408 ****       -39.5000  21.5000 -21.5000 Du        
    409 ****       -39.5000  21.5000 -21.2500 Du        
    410 ****       -39.5000  21.5000 -21.0000 Du        
    411 ****       -39.5000  21.5000 -20.7500 Du        
    412 ****       -39.5000  21.7500 -22.0000 Du        
    413 ****       -39.5000  21.7500 -21.7500 Du        
    414 ****       -39.5000  21.7500 -21.5000 Du        
    415 ****       -39.5000  21.7500 -21.2500 Du        
    416 ****       -39.5000  21.7500 -21.0000 Du        
    417 ****       -39.5000  21.7500 -20.7500 Du        
    418 ****       -39.5000  21.7500 -20.5000 Du        
    419 ****       -39.5000  21.7500 -20.2500 Du        
    420 ****       -39.5000  22.0000 -22.0000 Du        
    421 ****       -39.5000  22.0000 -21.7500 Du        
    422 ****       -39.5000  22.0000 -21.5000 Du        
    423 ****       -39.5000  22.0000 -21.2500 Du        
    424 ****       -39.5000  22.0000 -21.0000 Du        
    425 ****       -39.5000  22.0000 -20.7500 Du        
    426 ****       -39.5000  22.0000 -20.5000 Du        
    427 ****       -39.5000  22.0000 -20.2500 Du        
    428 ****       -39.5000  22.0000 -20.0000 Du        
    429 ****       -39.5000  22.0000 -19.7500 Du        
    430 ****       -39.5000  22.2500 -22.0000 Du        
    431 ****       -39.5000  22.2500 -21.7500 Du        
    432 ****       -39.5000  22.2500 -21.5000 Du        
    433 ****       -39.5000  22.2500 -21.2500 Du        
    434 ****       -39.5000  22.2500 -21.0000 Du        
    435 ****       -39.5000  22.2500 -20.7500 Du        
    436 ****       -39.5000  22.2500 -20.5000 Du        
    437 ****       -39.5000  22.2500 -20.2500 Du        
    438 ****       -39.5000  22.2500 -20.0000 Du        
    439 ****       -39.5000  22.2500 -19.7500 Du        
    440 ****       -39.5000  22.5000 -21.7500 Du        
    441 ****       -39.5000  22.5000 -21.5000 Du        
    442 ****       -39.5000  22.5000 -21.2500 Du        
    443 ****       -39.5000  22.5000 -21.0000 Du        
    444 ****       -39.5000  22.5000 -20.7500 Du        
    445 ****       -39.5000  22.5000 -20.5000 Du        
    446 ****       -39.5000  22.5000 -20.2500 Du        
    447 ****       -39.5000  22.5000 -20.0000 Du        
    448 ****       -39.5000  22.5000 -19.7500 Du        
    449 ****       -39.5000  22.7500 -21.2500 Du        
    450 ****       -39.5000  22.7500 -21.0000 Du        
    451 ****       -39.5000  22.7500 -20.7500 Du        
    452 ****       -39.5000  22.7500 -20.5000 Du        
    453 ****       -39.5000  22.7500 -20.2500 Du        
    454 ****       -39.5000  22.7500 -20.0000 Du        
    455 ****       -39.5000  22.7500 -19.7500 Du        
    456 ****       -39.5000  23.0000 -20.2500 Du        
    457 ****       -39.5000  23.0000 -20.0000 Du        
    458 ****       -39.5000  23.0000 -19.7500 Du        
    459 ****       -39.2500  21.0000 -22.5000 Du        
    460 ****       -39.2500  21.0000 -22.2500 Du        
    461 ****       -39.2500  21.0000 -22.0000 Du        
    462 ****       -39.2500  21.0000 -21.7500 Du        
    463 ****       -39.2500  21.0000 -21.5000 Du        
    464 ****       -39.2500  21.2500 -22.5000 Du        
    465 ****       -39.2500  21.2500 -22.2500 Du        
    466 ****       -39.2500  21.2500 -22.0000 Du        
    467 ****       -39.2500  21.2500 -21.7500 Du        
    468 ****       -39.2500  21.2500 -21.5000 Du        
    469 ****       -39.2500  21.2500 -21.2500 Du        
    470 ****       -39.2500  21.2500 -21.0000 Du        
    471 ****       -39.2500  21.2500 -20.7500 Du        
    472 ****       -39.2500  21.5000 -22.5000 Du        
    473 ****       -39.2500  21.5000 -22.2500 Du        
    474 ****       -39.2500  21.5000 -22.0000 Du        
    475 ****       -39.2500  21.5000 -21.7500 Du        
    476 ****       -39.2500  21.5000 -21.5000 Du        
    477 ****       -39.2500  21.5000 -21.2500 Du        
    478 ****       -39.2500  21.5000 -21.0000 Du        
    479 ****       -39.2500  21.5000 -20.7500 Du        
    480 ****       -39.2500  21.5000 -20.5000 Du        
    481 ****       -39.2500  21.5000 -20.2500 Du        
    482 ****       -39.2500  21.7500 -22.5000 Du        
    483 ****       -39.2500  21.7500 -22.2500 Du        
    484 ****       -39.2500  21.7500 -22.0000 Du        
    485 ****       -39.2500  21.7500 -21.7500 Du        
    486 ****       -39.2500  21.7500 -21.5000 Du        
    487 ****       -39.2500  21.7500 -21.2500 Du        
    488 ****       -39.2500  21.7500 -21.0000 Du        
    489 ****       -39.2500  21.7500 -20.7500 Du        
    490 ****       -39.2500  21.7500 -20.5000 Du        
    491 ****       -39.2500  21.7500 -20.2500 Du        
    492 ****       -39.2500  21.7500 -20.0000 Du        
    493 ****       -39.2500  22.0000 -22.5000 Du        
    494 ****       -39.2500  22.0000 -22.2500 Du        
    495 ****       -39.2500  22.0000 -22.0000 Du        
    496 ****       -39.2500  22.0000 -21.7500 Du        
    497 ****       -39.2500  22.0000 -21.5000 Du        
    498 ****       -39.2500  22.0000 -21.2500 Du        
    499 ****       -39.2500  22.0000 -21.0000 Du        
    500 ****       -39.2500  22.0000 -20.7500 Du        
    501 ****       -39.2500  22.0000 -20.5000 Du        
    502 ****       -39.2500  22.0000 -20.2500 Du        
    503 ****       -39.2500  22.0000 -20.0000 Du        
    504 ****       -39.2500  22.0000 -19.7500 Du        
    505 ****       -39.2500  22.2500 -22.2500 Du        
    506 ****       -39.2500  22.2500 -22.0000 Du        
    507 ****       -39.2500  22.2500 -21.7500 Du        
    508 ****       -39.2500  22.2500 -21.5000 Du        
    509 ****       -39.2500  22.2500 -21.2500 Du        
    510 ****       -39.2500  22.2500 -21.0000 Du        
    511 ****       -39.2500  22.2500 -20.7500 Du        
    512 ****       -39.2500  22.2500 -20.5000 Du        
    513 ****       -39.2500  22.2500 -20.2500 Du        
    514 ****       -39.2500  22.2500 -20.0000 Du        
    515 ****       -39.2500  22.2500 -19.7500 Du        
    516 ****       -39.2500  22.5000 -22.2500 Du        
    517 ****       -39.2500  22.5000 -22.0000 Du        
    518 ****       -39.2500  22.5000 -21.7500 Du        
    519 ****       -39.2500  22.5000 -21.5000 Du        
    520 ****       -39.2500  22.5000 -21.2500 Du        
    521 ****       -39.2500  22.5000 -21.0000 Du        
    522 ****       -39.2500  22.5000 -20.7500 Du        
    523 ****       -39.2500  22.5000 -20.5000 Du        
    524 ****       -39.2500  22.5000 -20.2500 Du        
    525 ****       -39.2500  22.5000 -20.0000 Du        
    526 ****       -39.2500  22.5000 -19.7500 Du        
    527 ****       -39.2500  22.7500 -21.7500 Du        
    528 ****       -39.2500  22.7500 -21.5000 Du        
    529 ****       -39.2500  22.7500 -21.2500 Du        
    530 ****       -39.2500  22.7500 -21.0000 Du        
    531 ****       -39.2500  22.7500 -20.7500 Du        
    532 ****       -39.2500  22.7500 -20.5000 Du        
    533 ****       -39.2500  22.7500 -20.2500 Du        
    534 ****       -39.2500  22.7500 -20.0000 Du        
    535 ****       -39.2500  22.7500 -19.7500 Du        
    536 ****       -39.2500  23.0000 -20.7500 Du        
    537 ****       -39.2500  23.0000 -20.5000 Du        
    538 ****       -39.2500  23.0000 -20.2500 Du        
    539 ****       -39.2500  23.0000 -20.0000 Du        
    540 ****       -39.2500  23.0000 -19.7500 Du        
    541 ****       -39.0000  20.7500 -22.2500 Du        
    542 ****       -39.0000  20.7500 -22.0000 Du        
    543 ****       -39.0000  21.0000 -22.5000 Du        
    544 ****       -39.0000  21.0000 -22.2500 Du        
    545 ****       -39.0000  21.0000 -22.0000 Du        
    546 ****       -39.0000  21.0000 -21.7500 Du        
    547 ****       -39.0000  21.0000 -21.5000 Du        
    548 ****       -39.0000  21.0000 -21.2500 Du        
    549 ****       -39.0000  21.0000 -21.0000 Du        
    550 ****       -39.0000  21.2500 -22.5000 Du        
    551 ****       -39.0000  21.2500 -22.2500 Du        
    552 ****       -39.0000  21.2500 -22.0000 Du        
    553 ****       -39.0000  21.2500 -21.7500 Du        
    554 ****       -39.0000  21.2500 -21.5000 Du        
    555 ****       -39.0000  21.2500 -21.2500 Du        
    556 ****       -39.0000  21.2500 -21.0000 Du        
    557 ****       -39.0000  21.2500 -20.7500 Du        
    558 ****       -39.0000  21.2500 -20.5000 Du        
    559 ****       -39.0000  21.5000 -22.7500 Du        
    560 ****       -39.0000  21.5000 -22.5000 Du        
    561 ****       -39.0000  21.5000 -22.2500 Du        
    562 ****       -39.0000  21.5000 -22.0000 Du        
    563 ****       -39.0000  21.5000 -21.7500 Du        
    564 ****       -39.0000  21.5000 -21.5000 Du        
    565 ****       -39.0000  21.5000 -21.2500 Du        
    566 ****       -39.0000  21.5000 -21.0000 Du        
    567 ****       -39.0000  21.5000 -20.7500 Du        
    568 ****       -39.0000  21.5000 -20.5000 Du        
    569 ****       -39.0000  21.5000 -20.2500 Du        
    570 ****       -39.0000  21.5000 -20.0000 Du        
    571 ****       -39.0000  21.7500 -22.7500 Du        
    572 ****       -39.0000  21.7500 -22.5000 Du        
    573 ****       -39.0000  21.7500 -22.2500 Du        
    574 ****       -39.0000  21.7500 -22.0000 Du        
    575 ****       -39.0000  21.7500 -21.7500 Du        
    576 ****       -39.0000  21.7500 -21.5000 Du        
    577 ****       -39.0000  21.7500 -21.2500 Du        
    578 ****       -39.0000  21.7500 -21.0000 Du        
    579 ****       -39.0000  21.7500 -20.7500 Du        
    580 ****       -39.0000  21.7500 -20.5000 Du        
    581 ****       -39.0000  21.7500 -20.2500 Du        
    582 ****       -39.0000  21.7500 -20.0000 Du        
    583 ****       -39.0000  21.7500 -19.7500 Du        
    584 ****       -39.0000  22.0000 -22.7500 Du        
    585 ****       -39.0000  22.0000 -22.5000 Du        
    586 ****       -39.0000  22.0000 -22.2500 Du        
    587 ****       -39.0000  22.0000 -22.0000 Du        
    588 ****       -39.0000  22.0000 -21.7500 Du        
    589 ****       -39.0000  22.0000 -21.5000 Du        
    590 ****       -39.0000  22.0000 -21.2500 Du        
    591 ****       -39.0000  22.0000 -21.0000 Du        
    592 ****       -39.0000  22.0000 -20.7500 Du        
    593 ****       -39.0000  22.0000 -20.5000 Du        
    594 ****       -39.0000  22.0000 -20.2500 Du        
    595 ****       -39.0000  22.0000 -20.0000 Du        
    596 ****       -39.0000  22.0000 -19.7500 Du        
    597 ****       -39.0000  22.0000 -19.5000 Du        
    598 ****       -39.0000  22.0000 -19.2500 Du        
    599 ****       -39.0000  22.2500 -22.5000 Du        
    600 ****       -39.0000  22.2500 -22.2500 Du        
    601 ****       -39.0000  22.2500 -22.0000 Du        
    602 ****       -39.0000  22.2500 -21.7500 Du        
    603 ****       -39.0000  22.2500 -21.5000 Du        
    604 ****       -39.0000  22.2500 -21.2500 Du        
    605 ****       -39.0000  22.2500 -21.0000 Du        
    606 ****       -39.0000  22.2500 -20.7500 Du        
    607 ****       -39.0000  22.2500 -20.5000 Du        
    608 ****       -39.0000  22.2500 -20.2500 Du        
    609 ****       -39.0000  22.2500 -20.0000 Du        
    610 ****       -39.0000  22.2500 -19.7500 Du        
    611 ****       -39.0000  22.2500 -19.5000 Du        
    612 ****       -39.0000  22.5000 -22.5000 Du        
    613 ****       -39.0000  22.5000 -22.2500 Du        
    614 ****       -39.0000  22.5000 -22.0000 Du        
    615 ****       -39.0000  22.5000 -21.7500 Du        
    616 ****       -39.0000  22.5000 -21.5000 Du        
    617 ****       -39.0000  22.5000 -21.2500 Du        
    618 ****       -39.0000  22.5000 -21.0000 Du        
    619 ****       -39.0000  22.5000 -20.7500 Du        
    620 ****       -39.0000  22.5000 -20.5000 Du        
    621 ****       -39.0000  22.5000 -20.2500 Du        
    622 ****       -39.0000  22.5000 -20.0000 Du        
    623 ****       -39.0000  22.5000 -19.7500 Du        
    624 ****       -39.0000  22.7500 -22.0000 Du        
    625 ****       -39.0000  22.7500 -21.7500 Du        
    626 ****       -39.0000  22.7500 -21.5000 Du        
    627 ****       -39.0000  22.7500 -21.2500 Du        
    628 ****       -39.0000  22.7500 -21.0000 Du        
    629 ****       -39.0000  22.7500 -20.7500 Du        
    630 ****       -39.0000  22.7500 -20.5000 Du        
    631 ****       -39.0000  22.7500 -20.2500 Du        
    632 ****       -39.0000  22.7500 -20.0000 Du        
    633 ****       -39.0000  22.7500 -19.7500 Du        
    634 ****       -39.0000  23.0000 -21.0000 Du        
    635 ****       -39.0000  23.0000 -20.7500 Du        
    636 ****       -39.0000  23.0000 -20.5000 Du        
    637 ****       -39.0000  23.0000 -20.2500 Du        
    638 ****       -39.0000  23.0000 -20.0000 Du        
    639 ****       -39.0000  23.0000 -19.7500 Du        
    640 ****       -38.7500  20.7500 -22.2500 Du        
    641 ****       -38.7500  20.7500 -22.0000 Du        
    642 ****       -38.7500  20.7500 -21.7500 Du        
    643 ****       -38.7500  21.0000 -22.2500 Du        
    644 ****       -38.7500  21.0000 -22.0000 Du        
    645 ****       -38.7500  21.0000 -21.7500 Du        
    646 ****       -38.7500  21.0000 -21.5000 Du        
    647 ****       -38.7500  21.0000 -21.2500 Du        
    648 ****       -38.7500  21.0000 -21.0000 Du        
    649 ****       -38.7500  21.0000 -20.7500 Du        
    650 ****       -38.7500  21.2500 -22.5000 Du        
    651 ****       -38.7500  21.2500 -22.2500 Du        
    652 ****       -38.7500  21.2500 -22.0000 Du        
    653 ****       -38.7500  21.2500 -21.7500 Du        
    654 ****       -38.7500  21.2500 -21.5000 Du        
    655 ****       -38.7500  21.2500 -21.2500 Du        
    656 ****       -38.7500  21.2500 -21.0000 Du        
    657 ****       -38.7500  21.2500 -20.7500 Du        
    658 ****       -38.7500  21.2500 -20.5000 Du        
    659 ****       -38.7500  21.2500 -20.2500 Du        
    660 ****       -38.7500  21.2500 -20.0000 Du        
    661 ****       -38.7500  21.5000 -22.5000 Du        
    662 ****       -38.7500  21.5000 -22.2500 Du        
    663 ****       -38.7500  21.5000 -22.0000 Du        
    664 ****       -38.7500  21.5000 -21.7500 Du        
    665 ****       -38.7500  21.5000 -21.5000 Du        
    666 ****       -38.7500  21.5000 -21.2500 Du        
    667 ****       -38.7500  21.5000 -21.0000 Du        
    668 ****       -38.7500  21.5000 -20.7500 Du        
    669 ****       -38.7500  21.5000 -20.5000 Du        
    670 ****       -38.7500  21.5000 -20.2500 Du        
    671 ****       -38.7500  21.5000 -20.0000 Du        
    672 ****       -38.7500  21.5000 -19.7500 Du        
    673 ****       -38.7500  21.7500 -22.5000 Du        
    674 ****       -38.7500  21.7500 -22.2500 Du        
    675 ****       -38.7500  21.7500 -22.0000 Du        
    676 ****       -38.7500  21.7500 -21.7500 Du        
    677 ****       -38.7500  21.7500 -21.5000 Du        
    678 ****       -38.7500  21.7500 -21.2500 Du        
    679 ****       -38.7500  21.7500 -21.0000 Du        
    680 ****       -38.7500  21.7500 -20.7500 Du        
    681 ****       -38.7500  21.7500 -20.5000 Du        
    682 ****       -38.7500  21.7500 -20.2500 Du        
    683 ****       -38.7500  21.7500 -20.0000 Du        
    684 ****       -38.7500  21.7500 -19.7500 Du        
    685 ****       -38.7500  21.7500 -19.5000 Du        
    686 ****       -38.7500  21.7500 -19.2500 Du        
    687 ****       -38.7500  22.0000 -22.5000 Du        
    688 ****       -38.7500  22.0000 -22.2500 Du        
    689 ****       -38.7500  22.0000 -22.0000 Du        
    690 ****       -38.7500  22.0000 -21.7500 Du        
    691 ****       -38.7500  22.0000 -21.5000 Du        
    692 ****       -38.7500  22.0000 -21.2500 Du        
    693 ****       -38.7500  22.0000 -21.0000 Du        
    694 ****       -38.7500  22.0000 -20.7500 Du        
    695 ****       -38.7500  22.0000 -20.5000 Du        
    696 ****       -38.7500  22.0000 -20.2500 Du        
    697 ****       -38.7500  22.0000 -20.0000 Du        
    698 ****       -38.7500  22.0000 -19.7500 Du        
    699 ****       -38.7500  22.0000 -19.5000 Du        
    700 ****       -38.7500  22.0000 -19.2500 Du        
    701 ****       -38.7500  22.2500 -22.5000 Du        
    702 ****       -38.7500  22.2500 -22.2500 Du        
    703 ****       -38.7500  22.2500 -22.0000 Du        
    704 ****       -38.7500  22.2500 -21.7500 Du        
    705 ****       -38.7500  22.2500 -21.5000 Du        
    706 ****       -38.7500  22.2500 -21.2500 Du        
    707 ****       -38.7500  22.2500 -21.0000 Du        
    708 ****       -38.7500  22.2500 -20.7500 Du        
    709 ****       -38.7500  22.2500 -20.5000 Du        
    710 ****       -38.7500  22.2500 -20.2500 Du        
    711 ****       -38.7500  22.2500 -20.0000 Du        
    712 ****       -38.7500  22.2500 -19.7500 Du        
    713 ****       -38.7500  22.2500 -19.5000 Du        
    714 ****       -38.7500  22.2500 -19.2500 Du        
    715 ****       -38.7500  22.5000 -22.5000 Du        
    716 ****       -38.7500  22.5000 -22.2500 Du        
    717 ****       -38.7500  22.5000 -22.0000 Du        
    718 ****       -38.7500  22.5000 -21.7500 Du        
    719 ****       -38.7500  22.5000 -21.5000 Du        
    720 ****       -38.7500  22.5000 -21.2500 Du        
    721 ****       -38.7500  22.5000 -21.0000 Du        
    722 ****       -38.7500  22.5000 -20.7500 Du        
    723 ****       -38.7500  22.5000 -20.5000 Du        
    724 ****       -38.7500  22.5000 -20.2500 Du        
    725 ****       -38.7500  22.5000 -20.0000 Du        
    726 ****       -38.7500  22.5000 -19.7500 Du        
    727 ****       -38.7500  22.7500 -22.2500 Du        
    728 ****       -38.7500  22.7500 -22.0000 Du        
    729 ****       -38.7500  22.7500 -21.7500 Du        
    730 ****       -38.7500  22.7500 -21.5000 Du        
    731 ****       -38.7500  22.7500 -21.2500 Du        
    732 ****       -38.7500  22.7500 -21.0000 Du        
    733 ****       -38.7500  22.7500 -20.7500 Du        
    734 ****       -38.7500  22.7500 -20.5000 Du        
    735 ****       -38.7500  22.7500 -20.2500 Du        
    736 ****       -38.7500  22.7500 -20.0000 Du        
    737 ****       -38.7500  22.7500 -19.7500 Du        
    738 ****       -38.7500  23.0000 -21.0000 Du        
    739 ****       -38.7500  23.0000 -20.7500 Du        
    740 ****       -38.7500  23.0000 -20.5000 Du        
    741 ****       -38.7500  23.0000 -20.2500 Du        
    742 ****       -38.7500  23.0000 -20.0000 Du        
    743 ****       -38.5000  20.7500 -22.0000 Du        
    744 ****       -38.5000  20.7500 -21.7500 Du        
    745 ****       -38.5000  20.7500 -21.5000 Du        
    746 ****       -38.5000  20.7500 -21.2500 Du        
    747 ****       -38.5000  20.7500 -21.0000 Du        
    748 ****       -38.5000  21.0000 -22.2500 Du        
    749 ****       -38.5000  21.0000 -22.0000 Du        
    750 ****       -38.5000  21.0000 -21.7500 Du        
    751 ****       -38.5000  21.0000 -21.5000 Du        
    752 ****       -38.5000  21.0000 -21.2500 Du        
    753 ****       -38.5000  21.0000 -21.0000 Du        
    754 ****       -38.5000  21.0000 -20.7500 Du        
    755 ****       -38.5000  21.0000 -20.5000 Du        
    756 ****       -38.5000  21.0000 -20.2500 Du        
    757 ****       -38.5000  21.0000 -20.0000 Du        
    758 ****       -38.5000  21.2500 -22.2500 Du        
    759 ****       -38.5000  21.2500 -22.0000 Du        
    760 ****       -38.5000  21.2500 -21.7500 Du        
    761 ****       -38.5000  21.2500 -21.5000 Du        
    762 ****       -38.5000  21.2500 -21.2500 Du        
    763 ****       -38.5000  21.2500 -21.0000 Du        
    764 ****       -38.5000  21.2500 -20.7500 Du        
    765 ****       -38.5000  21.2500 -20.5000 Du        
    766 ****       -38.5000  21.2500 -20.2500 Du        
    767 ****       -38.5000  21.2500 -20.0000 Du        
    768 ****       -38.5000  21.2500 -19.7500 Du        
    769 ****       -38.5000  21.5000 -22.2500 Du        
    770 ****       -38.5000  21.5000 -22.0000 Du        
    771 ****       -38.5000  21.5000 -21.7500 Du        
    772 ****       -38.5000  21.5000 -21.5000 Du        
    773 ****       -38.5000  21.5000 -21.2500 Du        
    774 ****       -38.5000  21.5000 -21.0000 Du        
    775 ****       -38.5000  21.5000 -20.7500 Du        
    776 ****       -38.5000  21.5000 -20.5000 Du        
    777 ****       -38.5000  21.5000 -20.2500 Du        
    778 ****       -38.5000  21.5000 -20.0000 Du        
    779 ****       -38.5000  21.5000 -19.7500 Du        
    780 ****       -38.5000  21.5000 -19.5000 Du        
    781 ****       -38.5000  21.7500 -22.5000 Du        
    782 ****       -38.5000  21.7500 -22.2500 Du        
    783 ****       -38.5000  21.7500 -22.0000 Du        
    784 ****       -38.5000  21.7500 -21.7500 Du        
    785 ****       -38.5000  21.7500 -21.5000 Du        
    786 ****       -38.5000  21.7500 -21.2500 Du        
    787 ****       -38.5000  21.7500 -21.0000 Du        
    788 ****       -38.5000  21.7500 -20.7500 Du        
    789 ****       -38.5000  21.7500 -20.5000 Du        
    790 ****       -38.5000  21.7500 -20.2500 Du        
    791 ****       -38.5000  21.7500 -20.0000 Du        
    792 ****       -38.5000  21.7500 -19.7500 Du        
    793 ****       -38.5000  21.7500 -19.5000 Du        
    794 ****       -38.5000  21.7500 -19.2500 Du        
    795 ****       -38.5000  22.0000 -22.2500 Du        
    796 ****       -38.5000  22.0000 -22.0000 Du        
    797 ****       -38.5000  22.0000 -21.7500 Du        
    798 ****       -38.5000  22.0000 -21.5000 Du        
    799 ****       -38.5000  22.0000 -21.2500 Du        
    800 ****       -38.5000  22.0000 -21.0000 Du        
    801 ****       -38.5000  22.0000 -20.7500 Du        
    802 ****       -38.5000  22.0000 -20.5000 Du        
    803 ****       -38.5000  22.0000 -20.2500 Du        
    804 ****       -38.5000  22.0000 -20.0000 Du        
    805 ****       -38.5000  22.0000 -19.7500 Du        
    806 ****       -38.5000  22.0000 -19.5000 Du        
    807 ****       -38.5000  22.0000 -19.2500 Du        
    808 ****       -38.5000  22.2500 -22.2500 Du        
    809 ****       -38.5000  22.2500 -22.0000 Du        
    810 ****       -38.5000  22.2500 -21.7500 Du        
    811 ****       -38.5000  22.2500 -21.5000 Du        
    812 ****       -38.5000  22.2500 -21.2500 Du        
    813 ****       -38.5000  22.2500 -21.0000 Du        
    814 ****       -38.5000  22.2500 -20.7500 Du        
    815 ****       -38.5000  22.2500 -20.5000 Du        
    816 ****       -38.5000  22.2500 -20.2500 Du        
    817 ****       -38.5000  22.2500 -20.0000 Du        
    818 ****       -38.5000  22.2500 -19.7500 Du        
    819 ****       -38.5000  22.2500 -19.5000 Du        
    820 ****       -38.5000  22.2500 -19.2500 Du        
    821 ****       -38.5000  22.5000 -22.2500 Du        
    822 ****       -38.5000  22.5000 -22.0000 Du        
    823 ****       -38.5000  22.5000 -21.7500 Du        
    824 ****       -38.5000  22.5000 -21.5000 Du        
    825 ****       -38.5000  22.5000 -21.2500 Du        
    826 ****       -38.5000  22.5000 -21.0000 Du        
    827 ****       -38.5000  22.5000 -20.7500 Du        
    828 ****       -38.5000  22.5000 -20.5000 Du        
    829 ****       -38.5000  22.5000 -20.2500 Du        
    830 ****       -38.5000  22.5000 -20.0000 Du        
    831 ****       -38.5000  22.5000 -19.7500 Du        
    832 ****       -38.5000  22.7500 -22.0000 Du        
    833 ****       -38.5000  22.7500 -21.7500 Du        
    834 ****       -38.5000  22.7500 -21.5000 Du        
    835 ****       -38.5000  22.7500 -21.2500 Du        
    836 ****       -38.5000  22.7500 -21.0000 Du        
    837 ****       -38.5000  22.7500 -20.7500 Du        
    838 ****       -38.5000  22.7500 -20.5000 Du        
    839 ****       -38.5000  22.7500 -20.2500 Du        
    840 ****       -38.5000  22.7500 -20.0000 Du        
    841 ****       -38.5000  22.7500 -19.7500 Du        
    842 ****       -38.5000  23.0000 -21.2500 Du        
    843 ****       -38.5000  23.0000 -21.0000 Du        
    844 ****       -38.5000  23.0000 -20.7500 Du        
    845 ****       -38.5000  23.0000 -20.5000 Du        
    846 ****       -38.5000  23.0000 -20.2500 Du        
    847 ****       -38.5000  23.0000 -20.0000 Du        
    848 ****       -38.5000  23.0000 -19.7500 Du        
    849 ****       -38.2500  20.7500 -22.0000 Du        
    850 ****       -38.2500  20.7500 -21.7500 Du        
    851 ****       -38.2500  20.7500 -21.5000 Du        
    852 ****       -38.2500  20.7500 -21.2500 Du        
    853 ****       -38.2500  20.7500 -21.0000 Du        
    854 ****       -38.2500  20.7500 -20.7500 Du        
    855 ****       -38.2500  20.7500 -20.5000 Du        
    856 ****       -38.2500  20.7500 -20.2500 Du        
    857 ****       -38.2500  20.7500 -20.0000 Du        
    858 ****       -38.2500  20.7500 -19.7500 Du        
    859 ****       -38.2500  21.0000 -22.0000 Du        
    860 ****       -38.2500  21.0000 -21.7500 Du        
    861 ****       -38.2500  21.0000 -21.5000 Du        
    862 ****       -38.2500  21.0000 -21.2500 Du        
    863 ****       -38.2500  21.0000 -21.0000 Du        
    864 ****       -38.2500  21.0000 -20.7500 Du        
    865 ****       -38.2500  21.0000 -20.5000 Du        
    866 ****       -38.2500  21.0000 -20.2500 Du        
    867 ****       -38.2500  21.0000 -20.0000 Du        
    868 ****       -38.2500  21.0000 -19.7500 Du        
    869 ****       -38.2500  21.0000 -19.5000 Du        
    870 ****       -38.2500  21.0000 -19.2500 Du        
    871 ****       -38.2500  21.0000 -19.0000 Du        
    872 ****       -38.2500  21.0000 -18.7500 Du        
    873 ****       -38.2500  21.2500 -22.2500 Du        
    874 ****       -38.2500  21.2500 -22.0000 Du        
    875 ****       -38.2500  21.2500 -21.7500 Du        
    876 ****       -38.2500  21.2500 -21.5000 Du        
    877 ****       -38.2500  21.2500 -21.2500 Du        
    878 ****       -38.2500  21.2500 -21.0000 Du        
    879 ****       -38.2500  21.2500 -20.7500 Du        
    880 ****       -38.2500  21.2500 -20.5000 Du        
    881 ****       -38.2500  21.2500 -20.2500 Du        
    882 ****       -38.2500  21.2500 -20.0000 Du        
    883 ****       -38.2500  21.2500 -19.7500 Du        
    884 ****       -38.2500  21.2500 -19.5000 Du        
    885 ****       -38.2500  21.2500 -19.2500 Du        
    886 ****       -38.2500  21.2500 -19.0000 Du        
    887 ****       -38.2500  21.2500 -18.7500 Du        
    888 ****       -38.2500  21.5000 -22.2500 Du        
    889 ****       -38.2500  21.5000 -22.0000 Du        
    890 ****       -38.2500  21.5000 -21.7500 Du        
    891 ****       -38.2500  21.5000 -21.5000 Du        
    892 ****       -38.2500  21.5000 -21.2500 Du        
    893 ****       -38.2500  21.5000 -21.0000 Du        
    894 ****       -38.2500  21.5000 -20.7500 Du        
    895 ****       -38.2500  21.5000 -20.5000 Du        
    896 ****       -38.2500  21.5000 -20.2500 Du        
    897 ****       -38.2500  21.5000 -20.0000 Du        
    898 ****       -38.2500  21.5000 -19.7500 Du        
    899 ****       -38.2500  21.5000 -19.5000 Du        
    900 ****       -38.2500  21.5000 -19.2500 Du        
    901 ****       -38.2500  21.5000 -19.0000 Du        
    902 ****       -38.2500  21.5000 -18.7500 Du        
    903 ****       -38.2500  21.7500 -22.2500 Du        
    904 ****       -38.2500  21.7500 -22.0000 Du        
    905 ****       -38.2500  21.7500 -21.7500 Du        
    906 ****       -38.2500  21.7500 -21.5000 Du        
    907 ****       -38.2500  21.7500 -21.2500 Du        
    908 ****       -38.2500  21.7500 -21.0000 Du        
    909 ****       -38.2500  21.7500 -20.7500 Du        
    910 ****       -38.2500  21.7500 -20.5000 Du        
    911 ****       -38.2500  21.7500 -20.2500 Du        
    912 ****       -38.2500  21.7500 -20.0000 Du        
    913 ****       -38.2500  21.7500 -19.7500 Du        
    914 ****       -38.2500  21.7500 -19.5000 Du        
    915 ****       -38.2500  21.7500 -19.2500 Du        
    916 ****       -38.2500  21.7500 -19.0000 Du        
    917 ****       -38.2500  22.0000 -22.2500 Du        
    918 ****       -38.2500  22.0000 -22.0000 Du        
    919 ****       -38.2500  22.0000 -21.7500 Du        
    920 ****       -38.2500  22.0000 -21.5000 Du        
    921 ****       -38.2500  22.0000 -21.2500 Du        
    922 ****       -38.2500  22.0000 -21.0000 Du        
    923 ****       -38.2500  22.0000 -20.7500 Du        
    924 ****       -38.2500  22.0000 -20.5000 Du        
    925 ****       -38.2500  22.0000 -20.2500 Du        
    926 ****       -38.2500  22.0000 -20.0000 Du        
    927 ****       -38.2500  22.0000 -19.7500 Du        
    928 ****       -38.2500  22.0000 -19.5000 Du        
    929 ****       -38.2500  22.0000 -19.2500 Du        
    930 ****       -38.2500  22.0000 -19.0000 Du        
    931 ****       -38.2500  22.2500 -22.2500 Du        
    932 ****       -38.2500  22.2500 -22.0000 Du        
    933 ****       -38.2500  22.2500 -21.7500 Du        
    934 ****       -38.2500  22.2500 -21.5000 Du        
    935 ****       -38.2500  22.2500 -21.2500 Du        
    936 ****       -38.2500  22.2500 -21.0000 Du        
    937 ****       -38.2500  22.2500 -20.7500 Du        
    938 ****       -38.2500  22.2500 -20.5000 Du        
    939 ****       -38.2500  22.2500 -20.2500 Du        
    940 ****       -38.2500  22.2500 -20.0000 Du        
    941 ****       -38.2500  22.2500 -19.7500 Du        
    942 ****       -38.2500  22.2500 -19.5000 Du        
    943 ****       -38.2500  22.2500 -19.2500 Du        
    944 ****       -38.2500  22.5000 -22.0000 Du        
    945 ****       -38.2500  22.5000 -21.7500 Du        
    946 ****       -38.2500  22.5000 -21.5000 Du        
    947 ****       -38.2500  22.5000 -21.2500 Du        
    948 ****       -38.2500  22.5000 -21.0000 Du        
    949 ****       -38.2500  22.5000 -20.7500 Du        
    950 ****       -38.2500  22.5000 -20.5000 Du        
    951 ****       -38.2500  22.5000 -20.2500 Du        
    952 ****       -38.2500  22.5000 -20.0000 Du        
    953 ****       -38.2500  22.5000 -19.7500 Du        
    954 ****       -38.2500  22.7500 -22.0000 Du        
    955 ****       -38.2500  22.7500 -21.7500 Du        
    956 ****       -38.2500  22.7500 -21.5000 Du        
    957 ****       -38.2500  22.7500 -21.2500 Du        
    958 ****       -38.2500  22.7500 -21.0000 Du        
    959 ****       -38.2500  22.7500 -20.7500 Du        
    960 ****       -38.2500  22.7500 -20.5000 Du        
    961 ****       -38.2500  22.7500 -20.2500 Du        
    962 ****       -38.2500  22.7500 -20.0000 Du        
    963 ****       -38.2500  22.7500 -19.7500 Du        
    964 ****       -38.2500  23.0000 -21.2500 Du        
    965 ****       -38.2500  23.0000 -21.0000 Du        
    966 ****       -38.2500  23.0000 -20.7500 Du        
    967 ****       -38.2500  23.0000 -20.5000 Du        
    968 ****       -38.2500  23.0000 -20.2500 Du        
    969 ****       -38.2500  23.0000 -20.0000 Du        
    970 ****       -38.2500  23.0000 -19.7500 Du        
    971 ****       -38.0000  20.5000 -21.7500 Du        
    972 ****       -38.0000  20.5000 -21.5000 Du        
    973 ****       -38.0000  20.5000 -21.2500 Du        
    974 ****       -38.0000  20.5000 -21.0000 Du        
    975 ****       -38.0000  20.5000 -20.7500 Du        
    976 ****       -38.0000  20.5000 -20.0000 Du        
    977 ****       -38.0000  20.5000 -18.0000 Du        
    978 ****       -38.0000  20.5000 -17.7500 Du        
    979 ****       -38.0000  20.7500 -22.0000 Du        
    980 ****       -38.0000  20.7500 -21.7500 Du        
    981 ****       -38.0000  20.7500 -21.5000 Du        
    982 ****       -38.0000  20.7500 -21.2500 Du        
    983 ****       -38.0000  20.7500 -21.0000 Du        
    984 ****       -38.0000  20.7500 -20.7500 Du        
    985 ****       -38.0000  20.7500 -20.5000 Du        
    986 ****       -38.0000  20.7500 -20.2500 Du        
    987 ****       -38.0000  20.7500 -20.0000 Du        
    988 ****       -38.0000  20.7500 -19.7500 Du        
    989 ****       -38.0000  20.7500 -19.5000 Du        
    990 ****       -38.0000  20.7500 -19.2500 Du        
    991 ****       -38.0000  20.7500 -19.0000 Du        
    992 ****       -38.0000  20.7500 -18.7500 Du        
    993 ****       -38.0000  20.7500 -18.5000 Du        
    994 ****       -38.0000  20.7500 -18.2500 Du        
    995 ****       -38.0000  20.7500 -18.0000 Du        
    996 ****       -38.0000  20.7500 -17.7500 Du        
    997 ****       -38.0000  20.7500 -17.5000 Du        
    998 ****       -38.0000  21.0000 -22.0000 Du        
    999 ****       -38.0000  21.0000 -21.7500 Du        
   1000 ****       -38.0000  21.0000 -21.5000 Du        
   1001 ****       -38.0000  21.0000 -21.2500 Du        
   1002 ****       -38.0000  21.0000 -21.0000 Du        
   1003 ****       -38.0000  21.0000 -20.7500 Du        
   1004 ****       -38.0000  21.0000 -20.5000 Du        
   1005 ****       -38.0000  21.0000 -20.2500 Du        
   1006 ****       -38.0000  21.0000 -20.0000 Du        
   1007 ****       -38.0000  21.0000 -19.7500 Du        
   1008 ****       -38.0000  21.0000 -19.5000 Du        
   1009 ****       -38.0000  21.0000 -19.2500 Du        
   1010 ****       -38.0000  21.0000 -19.0000 Du        
   1011 ****       -38.0000  21.0000 -18.7500 Du        
   1012 ****       -38.0000  21.0000 -18.5000 Du        
   1013 ****       -38.0000  21.0000 -18.2500 Du        
   1014 ****       -38.0000  21.0000 -18.0000 Du        
   1015 ****       -38.0000  21.0000 -17.7500 Du        
   1016 ****       -38.0000  21.2500 -22.0000 Du        
   1017 ****       -38.0000  21.2500 -21.7500 Du        
   1018 ****       -38.0000  21.2500 -21.5000 Du        
   1019 ****       -38.0000  21.2500 -21.2500 Du        
   1020 ****       -38.0000  21.2500 -21.0000 Du        
   1021 ****       -38.0000  21.2500 -20.7500 Du        
   1022 ****       -38.0000  21.2500 -20.5000 Du        
   1023 ****       -38.0000  21.2500 -20.2500 Du        
   1024 ****       -38.0000  21.2500 -20.0000 Du        
   1025 ****       -38.0000  21.2500 -19.7500 Du        
   1026 ****       -38.0000  21.2500 -19.5000 Du        
   1027 ****       -38.0000  21.2500 -19.2500 Du        
   1028 ****       -38.0000  21.2500 -19.0000 Du        
   1029 ****       -38.0000  21.2500 -18.7500 Du        
   1030 ****       -38.0000  21.2500 -18.5000 Du        
   1031 ****       -38.0000  21.2500 -18.2500 Du        
   1032 ****       -38.0000  21.5000 -22.0000 Du        
   1033 ****       -38.0000  21.5000 -21.7500 Du        
   1034 ****       -38.0000  21.5000 -21.5000 Du        
   1035 ****       -38.0000  21.5000 -21.2500 Du        
   1036 ****       -38.0000  21.5000 -21.0000 Du        
   1037 ****       -38.0000  21.5000 -20.7500 Du        
   1038 ****       -38.0000  21.5000 -20.5000 Du        
   1039 ****       -38.0000  21.5000 -20.2500 Du        
   1040 ****       -38.0000  21.5000 -20.0000 Du        
   1041 ****       -38.0000  21.5000 -19.7500 Du        
   1042 ****       -38.0000  21.5000 -19.5000 Du        
   1043 ****       -38.0000  21.5000 -19.2500 Du        
   1044 ****       -38.0000  21.5000 -19.0000 Du        
   1045 ****       -38.0000  21.5000 -18.7500 Du        
   1046 ****       -38.0000  21.7500 -22.0000 Du        
   1047 ****       -38.0000  21.7500 -21.7500 Du        
   1048 ****       -38.0000  21.7500 -21.5000 Du        
   1049 ****       -38.0000  21.7500 -21.2500 Du        
   1050 ****       -38.0000  21.7500 -21.0000 Du        
   1051 ****       -38.0000  21.7500 -20.7500 Du        
   1052 ****       -38.0000  21.7500 -20.5000 Du        
   1053 ****       -38.0000  21.7500 -20.2500 Du        
   1054 ****       -38.0000  21.7500 -20.0000 Du        
   1055 ****       -38.0000  21.7500 -19.7500 Du        
   1056 ****       -38.0000  21.7500 -19.5000 Du        
   1057 ****       -38.0000  21.7500 -19.2500 Du        
   1058 ****       -38.0000  21.7500 -19.0000 Du        
   1059 ****       -38.0000  21.7500 -18.7500 Du        
   1060 ****       -38.0000  22.0000 -22.0000 Du        
   1061 ****       -38.0000  22.0000 -21.7500 Du        
   1062 ****       -38.0000  22.0000 -21.5000 Du        
   1063 ****       -38.0000  22.0000 -21.2500 Du        
   1064 ****       -38.0000  22.0000 -21.0000 Du        
   1065 ****       -38.0000  22.0000 -20.7500 Du        
   1066 ****       -38.0000  22.0000 -20.5000 Du        
   1067 ****       -38.0000  22.0000 -20.2500 Du        
   1068 ****       -38.0000  22.0000 -20.0000 Du        
   1069 ****       -38.0000  22.0000 -19.7500 Du        
   1070 ****       -38.0000  22.0000 -19.5000 Du        
   1071 ****       -38.0000  22.0000 -19.2500 Du        
   1072 ****       -38.0000  22.0000 -19.0000 Du        
   1073 ****       -38.0000  22.2500 -22.0000 Du        
   1074 ****       -38.0000  22.2500 -21.7500 Du        
   1075 ****       -38.0000  22.2500 -21.5000 Du        
   1076 ****       -38.0000  22.2500 -21.2500 Du        
   1077 ****       -38.0000  22.2500 -21.0000 Du        
   1078 ****       -38.0000  22.2500 -20.7500 Du        
   1079 ****       -38.0000  22.2500 -20.5000 Du        
   1080 ****       -38.0000  22.2500 -20.2500 Du        
   1081 ****       -38.0000  22.2500 -20.0000 Du        
   1082 ****       -38.0000  22.2500 -19.7500 Du        
   1083 ****       -38.0000  22.2500 -19.5000 Du        
   1084 ****       -38.0000  22.2500 -19.2500 Du        
   1085 ****       -38.0000  22.2500 -19.0000 Du        
   1086 ****       -38.0000  22.5000 -22.0000 Du        
   1087 ****       -38.0000  22.5000 -21.7500 Du        
   1088 ****       -38.0000  22.5000 -21.5000 Du        
   1089 ****       -38.0000  22.5000 -21.2500 Du        
   1090 ****       -38.0000  22.5000 -21.0000 Du        
   1091 ****       -38.0000  22.5000 -20.7500 Du        
   1092 ****       -38.0000  22.5000 -20.5000 Du        
   1093 ****       -38.0000  22.5000 -20.2500 Du        
   1094 ****       -38.0000  22.5000 -20.0000 Du        
   1095 ****       -38.0000  22.5000 -19.7500 Du        
   1096 ****       -38.0000  22.7500 -21.7500 Du        
   1097 ****       -38.0000  22.7500 -21.5000 Du        
   1098 ****       -38.0000  22.7500 -21.2500 Du        
   1099 ****       -38.0000  22.7500 -21.0000 Du        
   1100 ****       -38.0000  22.7500 -20.7500 Du        
   1101 ****       -38.0000  22.7500 -20.5000 Du        
   1102 ****       -38.0000  22.7500 -20.2500 Du        
   1103 ****       -38.0000  22.7500 -20.0000 Du        
   1104 ****       -38.0000  22.7500 -19.7500 Du        
   1105 ****       -38.0000  23.0000 -21.5000 Du        
   1106 ****       -38.0000  23.0000 -21.2500 Du        
   1107 ****       -38.0000  23.0000 -21.0000 Du        
   1108 ****       -38.0000  23.0000 -20.7500 Du        
   1109 ****       -38.0000  23.0000 -20.5000 Du        
   1110 ****       -38.0000  23.0000 -20.2500 Du        
   1111 ****       -38.0000  23.0000 -20.0000 Du        
   1112 ****       -38.0000  23.0000 -19.7500 Du        
   1113 ****       -38.0000  23.2500 -20.7500 Du        
   1114 ****       -38.0000  23.2500 -20.2500 Du        
   1115 ****       -37.7500  20.2500 -19.7500 Du        
   1116 ****       -37.7500  20.2500 -18.2500 Du        
   1117 ****       -37.7500  20.2500 -18.0000 Du        
   1118 ****       -37.7500  20.2500 -17.7500 Du        
   1119 ****       -37.7500  20.5000 -21.5000 Du        
   1120 ****       -37.7500  20.5000 -21.2500 Du        
   1121 ****       -37.7500  20.5000 -21.0000 Du        
   1122 ****       -37.7500  20.5000 -20.7500 Du        
   1123 ****       -37.7500  20.5000 -20.5000 Du        
   1124 ****       -37.7500  20.5000 -20.2500 Du        
   1125 ****       -37.7500  20.5000 -20.0000 Du        
   1126 ****       -37.7500  20.5000 -19.7500 Du        
   1127 ****       -37.7500  20.5000 -19.5000 Du        
   1128 ****       -37.7500  20.5000 -19.2500 Du        
   1129 ****       -37.7500  20.5000 -19.0000 Du        
   1130 ****       -37.7500  20.5000 -18.7500 Du        
   1131 ****       -37.7500  20.5000 -18.5000 Du        
   1132 ****       -37.7500  20.5000 -18.2500 Du        
   1133 ****       -37.7500  20.5000 -18.0000 Du        
   1134 ****       -37.7500  20.5000 -17.7500 Du        
   1135 ****       -37.7500  20.7500 -21.7500 Du        
   1136 ****       -37.7500  20.7500 -21.5000 Du        
   1137 ****       -37.7500  20.7500 -21.2500 Du        
   1138 ****       -37.7500  20.7500 -21.0000 Du        
   1139 ****       -37.7500  20.7500 -20.7500 Du        
   1140 ****       -37.7500  20.7500 -20.5000 Du        
   1141 ****       -37.7500  20.7500 -20.2500 Du        
   1142 ****       -37.7500  20.7500 -20.0000 Du        
   1143 ****       -37.7500  20.7500 -19.7500 Du        
   1144 ****       -37.7500  20.7500 -19.5000 Du        
   1145 ****       -37.7500  20.7500 -19.2500 Du        
   1146 ****       -37.7500  20.7500 -19.0000 Du        
   1147 ****       -37.7500  20.7500 -18.7500 Du        
   1148 ****       -37.7500  20.7500 -18.5000 Du        
   1149 ****       -37.7500  20.7500 -18.2500 Du        
   1150 ****       -37.7500  20.7500 -18.0000 Du        
   1151 ****       -37.7500  20.7500 -17.7500 Du        
   1152 ****       -37.7500  20.7500 -17.5000 Du        
   1153 ****       -37.7500  21.0000 -21.7500 Du        
   1154 ****       -37.7500  21.0000 -21.5000 Du        
   1155 ****       -37.7500  21.0000 -21.2500 Du        
   1156 ****       -37.7500  21.0000 -21.0000 Du        
   1157 ****       -37.7500  21.0000 -20.7500 Du        
   1158 ****       -37.7500  21.0000 -20.5000 Du        
   1159 ****       -37.7500  21.0000 -20.2500 Du        
   1160 ****       -37.7500  21.0000 -20.0000 Du        
   1161 ****       -37.7500  21.0000 -19.7500 Du        
   1162 ****       -37.7500  21.0000 -19.5000 Du        
   1163 ****       -37.7500  21.0000 -19.2500 Du        
   1164 ****       -37.7500  21.0000 -19.0000 Du        
   1165 ****       -37.7500  21.0000 -18.7500 Du        
   1166 ****       -37.7500  21.0000 -18.5000 Du        
   1167 ****       -37.7500  21.0000 -18.2500 Du        
   1168 ****       -37.7500  21.0000 -18.0000 Du        
   1169 ****       -37.7500  21.0000 -17.7500 Du        
   1170 ****       -37.7500  21.2500 -22.0000 Du        
   1171 ****       -37.7500  21.2500 -21.7500 Du        
   1172 ****       -37.7500  21.2500 -21.5000 Du        
   1173 ****       -37.7500  21.2500 -21.2500 Du        
   1174 ****       -37.7500  21.2500 -21.0000 Du        
   1175 ****       -37.7500  21.2500 -20.7500 Du        
   1176 ****       -37.7500  21.2500 -20.5000 Du        
   1177 ****       -37.7500  21.2500 -20.2500 Du        
   1178 ****       -37.7500  21.2500 -20.0000 Du        
   1179 ****       -37.7500  21.2500 -19.7500 Du        
   1180 ****       -37.7500  21.2500 -19.5000 Du        
   1181 ****       -37.7500  21.2500 -19.2500 Du        
   1182 ****       -37.7500  21.2500 -19.0000 Du        
   1183 ****       -37.7500  21.2500 -18.7500 Du        
   1184 ****       -37.7500  21.2500 -18.5000 Du        
   1185 ****       -37.7500  21.2500 -18.2500 Du        
   1186 ****       -37.7500  21.2500 -18.0000 Du        
   1187 ****       -37.7500  21.2500 -17.7500 Du        
   1188 ****       -37.7500  21.5000 -22.0000 Du        
   1189 ****       -37.7500  21.5000 -21.7500 Du        
   1190 ****       -37.7500  21.5000 -21.5000 Du        
   1191 ****       -37.7500  21.5000 -21.2500 Du        
   1192 ****       -37.7500  21.5000 -21.0000 Du        
   1193 ****       -37.7500  21.5000 -20.7500 Du        
   1194 ****       -37.7500  21.5000 -20.5000 Du        
   1195 ****       -37.7500  21.5000 -20.2500 Du        
   1196 ****       -37.7500  21.5000 -20.0000 Du        
   1197 ****       -37.7500  21.5000 -19.7500 Du        
   1198 ****       -37.7500  21.5000 -19.5000 Du        
   1199 ****       -37.7500  21.5000 -19.2500 Du        
   1200 ****       -37.7500  21.5000 -19.0000 Du        
   1201 ****       -37.7500  21.5000 -18.7500 Du        
   1202 ****       -37.7500  21.7500 -22.0000 Du        
   1203 ****       -37.7500  21.7500 -21.7500 Du        
   1204 ****       -37.7500  21.7500 -21.5000 Du        
   1205 ****       -37.7500  21.7500 -21.2500 Du        
   1206 ****       -37.7500  21.7500 -21.0000 Du        
   1207 ****       -37.7500  21.7500 -20.7500 Du        
   1208 ****       -37.7500  21.7500 -20.5000 Du        
   1209 ****       -37.7500  21.7500 -20.2500 Du        
   1210 ****       -37.7500  21.7500 -20.0000 Du        
   1211 ****       -37.7500  21.7500 -19.7500 Du        
   1212 ****       -37.7500  21.7500 -19.5000 Du        
   1213 ****       -37.7500  21.7500 -19.2500 Du        
   1214 ****       -37.7500  21.7500 -19.0000 Du        
   1215 ****       -37.7500  21.7500 -18.7500 Du        
   1216 ****       -37.7500  22.0000 -21.7500 Du        
   1217 ****       -37.7500  22.0000 -21.5000 Du        
   1218 ****       -37.7500  22.0000 -21.2500 Du        
   1219 ****       -37.7500  22.0000 -21.0000 Du        
   1220 ****       -37.7500  22.0000 -20.7500 Du        
   1221 ****       -37.7500  22.0000 -20.5000 Du        
   1222 ****       -37.7500  22.0000 -20.2500 Du        
   1223 ****       -37.7500  22.0000 -20.0000 Du        
   1224 ****       -37.7500  22.0000 -19.7500 Du        
   1225 ****       -37.7500  22.0000 -19.5000 Du        
   1226 ****       -37.7500  22.0000 -19.2500 Du        
   1227 ****       -37.7500  22.0000 -19.0000 Du        
   1228 ****       -37.7500  22.0000 -18.7500 Du        
   1229 ****       -37.7500  22.2500 -21.7500 Du        
   1230 ****       -37.7500  22.2500 -21.5000 Du        
   1231 ****       -37.7500  22.2500 -21.2500 Du        
   1232 ****       -37.7500  22.2500 -21.0000 Du        
   1233 ****       -37.7500  22.2500 -20.7500 Du        
   1234 ****       -37.7500  22.2500 -20.5000 Du        
   1235 ****       -37.7500  22.2500 -20.2500 Du        
   1236 ****       -37.7500  22.2500 -20.0000 Du        
   1237 ****       -37.7500  22.2500 -19.7500 Du        
   1238 ****       -37.7500  22.2500 -19.5000 Du        
   1239 ****       -37.7500  22.2500 -19.2500 Du        
   1240 ****       -37.7500  22.2500 -19.0000 Du        
   1241 ****       -37.7500  22.5000 -21.7500 Du        
   1242 ****       -37.7500  22.5000 -21.5000 Du        
   1243 ****       -37.7500  22.5000 -21.2500 Du        
   1244 ****       -37.7500  22.5000 -21.0000 Du        
   1245 ****       -37.7500  22.5000 -20.7500 Du        
   1246 ****       -37.7500  22.5000 -20.5000 Du        
   1247 ****       -37.7500  22.5000 -20.2500 Du        
   1248 ****       -37.7500  22.5000 -20.0000 Du        
   1249 ****       -37.7500  22.5000 -19.7500 Du        
   1250 ****       -37.7500  22.7500 -21.7500 Du        
   1251 ****       -37.7500  22.7500 -21.5000 Du        
   1252 ****       -37.7500  22.7500 -21.2500 Du        
   1253 ****       -37.7500  22.7500 -21.0000 Du        
   1254 ****       -37.7500  22.7500 -20.7500 Du        
   1255 ****       -37.7500  22.7500 -20.5000 Du        
   1256 ****       -37.7500  22.7500 -20.2500 Du        
   1257 ****       -37.7500  22.7500 -20.0000 Du        
   1258 ****       -37.7500  22.7500 -19.7500 Du        
   1259 ****       -37.7500  23.0000 -21.5000 Du        
   1260 ****       -37.7500  23.0000 -21.2500 Du        
   1261 ****       -37.7500  23.0000 -21.0000 Du        
   1262 ****       -37.7500  23.0000 -20.7500 Du        
   1263 ****       -37.7500  23.0000 -20.5000 Du        
   1264 ****       -37.7500  23.0000 -20.2500 Du        
   1265 ****       -37.7500  23.0000 -20.0000 Du        
   1266 ****       -37.7500  23.0000 -19.7500 Du        
   1267 ****       -37.7500  23.2500 -21.0000 Du        
   1268 ****       -37.7500  23.2500 -20.7500 Du        
   1269 ****       -37.7500  23.2500 -20.5000 Du        
   1270 ****       -37.7500  23.2500 -20.2500 Du        
   1271 ****       -37.7500  23.2500 -20.0000 Du        
   1272 ****       -37.5000  20.2500 -18.2500 Du        
   1273 ****       -37.5000  20.2500 -18.0000 Du        
   1274 ****       -37.5000  20.2500 -17.7500 Du        
   1275 ****       -37.5000  20.5000 -20.7500 Du        
   1276 ****       -37.5000  20.5000 -20.2500 Du        
   1277 ****       -37.5000  20.5000 -20.0000 Du        
   1278 ****       -37.5000  20.5000 -19.7500 Du        
   1279 ****       -37.5000  20.5000 -19.5000 Du        
   1280 ****       -37.5000  20.5000 -19.2500 Du        
   1281 ****       -37.5000  20.5000 -19.0000 Du        
   1282 ****       -37.5000  20.5000 -18.7500 Du        
   1283 ****       -37.5000  20.5000 -18.5000 Du        
   1284 ****       -37.5000  20.5000 -18.2500 Du        
   1285 ****       -37.5000  20.5000 -18.0000 Du        
   1286 ****       -37.5000  20.5000 -17.7500 Du        
   1287 ****       -37.5000  20.7500 -21.2500 Du        
   1288 ****       -37.5000  20.7500 -21.0000 Du        
   1289 ****       -37.5000  20.7500 -20.7500 Du        
   1290 ****       -37.5000  20.7500 -20.5000 Du        
   1291 ****       -37.5000  20.7500 -20.2500 Du        
   1292 ****       -37.5000  20.7500 -20.0000 Du        
   1293 ****       -37.5000  20.7500 -19.7500 Du        
   1294 ****       -37.5000  20.7500 -19.5000 Du        
   1295 ****       -37.5000  20.7500 -19.2500 Du        
   1296 ****       -37.5000  20.7500 -19.0000 Du        
   1297 ****       -37.5000  20.7500 -18.7500 Du        
   1298 ****       -37.5000  20.7500 -18.5000 Du        
   1299 ****       -37.5000  20.7500 -18.2500 Du        
   1300 ****       -37.5000  20.7500 -18.0000 Du        
   1301 ****       -37.5000  20.7500 -17.7500 Du        
   1302 ****       -37.5000  20.7500 -17.5000 Du        
   1303 ****       -37.5000  21.0000 -21.5000 Du        
   1304 ****       -37.5000  21.0000 -21.2500 Du        
   1305 ****       -37.5000  21.0000 -21.0000 Du        
   1306 ****       -37.5000  21.0000 -20.7500 Du        
   1307 ****       -37.5000  21.0000 -20.5000 Du        
   1308 ****       -37.5000  21.0000 -20.2500 Du        
   1309 ****       -37.5000  21.0000 -20.0000 Du        
   1310 ****       -37.5000  21.0000 -19.7500 Du        
   1311 ****       -37.5000  21.0000 -19.5000 Du        
   1312 ****       -37.5000  21.0000 -19.2500 Du        
   1313 ****       -37.5000  21.0000 -19.0000 Du        
   1314 ****       -37.5000  21.0000 -18.7500 Du        
   1315 ****       -37.5000  21.0000 -18.5000 Du        
   1316 ****       -37.5000  21.0000 -18.2500 Du        
   1317 ****       -37.5000  21.0000 -18.0000 Du        
   1318 ****       -37.5000  21.0000 -17.7500 Du        
   1319 ****       -37.5000  21.0000 -17.5000 Du        
   1320 ****       -37.5000  21.2500 -21.7500 Du        
   1321 ****       -37.5000  21.2500 -21.5000 Du        
   1322 ****       -37.5000  21.2500 -21.2500 Du        
   1323 ****       -37.5000  21.2500 -21.0000 Du        
   1324 ****       -37.5000  21.2500 -20.7500 Du        
   1325 ****       -37.5000  21.2500 -20.5000 Du        
   1326 ****       -37.5000  21.2500 -20.2500 Du        
   1327 ****       -37.5000  21.2500 -20.0000 Du        
   1328 ****       -37.5000  21.2500 -19.7500 Du        
   1329 ****       -37.5000  21.2500 -19.5000 Du        
   1330 ****       -37.5000  21.2500 -19.2500 Du        
   1331 ****       -37.5000  21.2500 -19.0000 Du        
   1332 ****       -37.5000  21.2500 -18.7500 Du        
   1333 ****       -37.5000  21.2500 -18.5000 Du        
   1334 ****       -37.5000  21.2500 -18.2500 Du        
   1335 ****       -37.5000  21.2500 -18.0000 Du        
   1336 ****       -37.5000  21.2500 -17.7500 Du        
   1337 ****       -37.5000  21.5000 -21.7500 Du        
   1338 ****       -37.5000  21.5000 -21.5000 Du        
   1339 ****       -37.5000  21.5000 -21.2500 Du        
   1340 ****       -37.5000  21.5000 -21.0000 Du        
   1341 ****       -37.5000  21.5000 -20.7500 Du        
   1342 ****       -37.5000  21.5000 -20.5000 Du        
   1343 ****       -37.5000  21.5000 -20.2500 Du        
   1344 ****       -37.5000  21.5000 -20.0000 Du        
   1345 ****       -37.5000  21.5000 -19.7500 Du        
   1346 ****       -37.5000  21.5000 -19.5000 Du        
   1347 ****       -37.5000  21.5000 -19.2500 Du        
   1348 ****       -37.5000  21.5000 -19.0000 Du        
   1349 ****       -37.5000  21.5000 -18.7500 Du        
   1350 ****       -37.5000  21.7500 -21.7500 Du        
   1351 ****       -37.5000  21.7500 -21.5000 Du        
   1352 ****       -37.5000  21.7500 -21.2500 Du        
   1353 ****       -37.5000  21.7500 -21.0000 Du        
   1354 ****       -37.5000  21.7500 -20.7500 Du        
   1355 ****       -37.5000  21.7500 -20.5000 Du        
   1356 ****       -37.5000  21.7500 -20.2500 Du        
   1357 ****       -37.5000  21.7500 -20.0000 Du        
   1358 ****       -37.5000  21.7500 -19.7500 Du        
   1359 ****       -37.5000  21.7500 -19.5000 Du        
   1360 ****       -37.5000  21.7500 -19.2500 Du        
   1361 ****       -37.5000  21.7500 -19.0000 Du        
   1362 ****       -37.5000  21.7500 -18.7500 Du        
   1363 ****       -37.5000  22.0000 -21.7500 Du        
   1364 ****       -37.5000  22.0000 -21.5000 Du        
   1365 ****       -37.5000  22.0000 -21.2500 Du        
   1366 ****       -37.5000  22.0000 -21.0000 Du        
   1367 ****       -37.5000  22.0000 -20.7500 Du        
   1368 ****       -37.5000  22.0000 -20.5000 Du        
   1369 ****       -37.5000  22.0000 -20.2500 Du        
   1370 ****       -37.5000  22.0000 -20.0000 Du        
   1371 ****       -37.5000  22.0000 -19.7500 Du        
   1372 ****       -37.5000  22.0000 -19.5000 Du        
   1373 ****       -37.5000  22.0000 -19.2500 Du        
   1374 ****       -37.5000  22.0000 -19.0000 Du        
   1375 ****       -37.5000  22.2500 -21.7500 Du        
   1376 ****       -37.5000  22.2500 -21.5000 Du        
   1377 ****       -37.5000  22.2500 -21.2500 Du        
   1378 ****       -37.5000  22.2500 -21.0000 Du        
   1379 ****       -37.5000  22.2500 -20.7500 Du        
   1380 ****       -37.5000  22.2500 -20.5000 Du        
   1381 ****       -37.5000  22.2500 -20.2500 Du        
   1382 ****       -37.5000  22.2500 -20.0000 Du        
   1383 ****       -37.5000  22.2500 -19.7500 Du        
   1384 ****       -37.5000  22.2500 -19.5000 Du        
   1385 ****       -37.5000  22.2500 -19.2500 Du        
   1386 ****       -37.5000  22.2500 -19.0000 Du        
   1387 ****       -37.5000  22.5000 -21.7500 Du        
   1388 ****       -37.5000  22.5000 -21.5000 Du        
   1389 ****       -37.5000  22.5000 -21.2500 Du        
   1390 ****       -37.5000  22.5000 -21.0000 Du        
   1391 ****       -37.5000  22.5000 -20.7500 Du        
   1392 ****       -37.5000  22.5000 -20.5000 Du        
   1393 ****       -37.5000  22.5000 -20.2500 Du        
   1394 ****       -37.5000  22.5000 -20.0000 Du        
   1395 ****       -37.5000  22.5000 -19.7500 Du        
   1396 ****       -37.5000  22.7500 -21.5000 Du        
   1397 ****       -37.5000  22.7500 -21.2500 Du        
   1398 ****       -37.5000  22.7500 -21.0000 Du        
   1399 ****       -37.5000  22.7500 -20.7500 Du        
   1400 ****       -37.5000  22.7500 -20.5000 Du        
   1401 ****       -37.5000  22.7500 -20.2500 Du        
   1402 ****       -37.5000  22.7500 -20.0000 Du        
   1403 ****       -37.5000  22.7500 -19.7500 Du        
   1404 ****       -37.5000  23.0000 -21.5000 Du        
   1405 ****       -37.5000  23.0000 -21.2500 Du        
   1406 ****       -37.5000  23.0000 -21.0000 Du        
   1407 ****       -37.5000  23.0000 -20.7500 Du        
   1408 ****       -37.5000  23.0000 -20.5000 Du        
   1409 ****       -37.5000  23.0000 -20.2500 Du        
   1410 ****       -37.5000  23.0000 -20.0000 Du        
   1411 ****       -37.5000  23.0000 -19.7500 Du        
   1412 ****       -37.5000  23.2500 -21.0000 Du        
   1413 ****       -37.5000  23.2500 -20.7500 Du        
   1414 ****       -37.5000  23.2500 -20.5000 Du        
   1415 ****       -37.5000  23.2500 -20.2500 Du        
   1416 ****       -37.5000  23.2500 -20.0000 Du        
   1417 ****       -37.2500  20.2500 -18.0000 Du        
   1418 ****       -37.2500  20.5000 -18.5000 Du        
   1419 ****       -37.2500  20.5000 -18.2500 Du        
   1420 ****       -37.2500  20.5000 -18.0000 Du        
   1421 ****       -37.2500  20.5000 -17.7500 Du        
   1422 ****       -37.2500  20.7500 -19.2500 Du        
   1423 ****       -37.2500  20.7500 -19.0000 Du        
   1424 ****       -37.2500  20.7500 -18.7500 Du        
   1425 ****       -37.2500  20.7500 -18.5000 Du        
   1426 ****       -37.2500  20.7500 -18.2500 Du        
   1427 ****       -37.2500  20.7500 -18.0000 Du        
   1428 ****       -37.2500  20.7500 -17.7500 Du        
   1429 ****       -37.2500  21.0000 -19.7500 Du        
   1430 ****       -37.2500  21.0000 -19.5000 Du        
   1431 ****       -37.2500  21.0000 -19.2500 Du        
   1432 ****       -37.2500  21.0000 -19.0000 Du        
   1433 ****       -37.2500  21.0000 -18.7500 Du        
   1434 ****       -37.2500  21.0000 -18.5000 Du        
   1435 ****       -37.2500  21.0000 -18.2500 Du        
   1436 ****       -37.2500  21.0000 -18.0000 Du        
   1437 ****       -37.2500  21.0000 -17.7500 Du        
   1438 ****       -37.2500  21.0000 -17.5000 Du        
   1439 ****       -37.2500  21.2500 -19.7500 Du        
   1440 ****       -37.2500  21.2500 -19.5000 Du        
   1441 ****       -37.2500  21.2500 -19.2500 Du        
   1442 ****       -37.2500  21.2500 -19.0000 Du        
   1443 ****       -37.2500  21.2500 -18.7500 Du        
   1444 ****       -37.2500  21.2500 -18.5000 Du        
   1445 ****       -37.2500  21.2500 -18.2500 Du        
   1446 ****       -37.2500  21.2500 -18.0000 Du        
   1447 ****       -37.2500  21.2500 -17.7500 Du        
   1448 ****       -37.2500  21.5000 -20.0000 Du        
   1449 ****       -37.2500  21.5000 -19.7500 Du        
   1450 ****       -37.2500  21.5000 -19.5000 Du        
   1451 ****       -37.2500  21.5000 -19.2500 Du        
   1452 ****       -37.2500  21.5000 -19.0000 Du        
   1453 ****       -37.2500  21.5000 -18.7500 Du        
   1454 ****       -37.2500  21.7500 -21.5000 Du        
   1455 ****       -37.2500  21.7500 -21.2500 Du        
   1456 ****       -37.2500  21.7500 -21.0000 Du        
   1457 ****       -37.2500  21.7500 -20.7500 Du        
   1458 ****       -37.2500  21.7500 -20.5000 Du        
   1459 ****       -37.2500  21.7500 -20.2500 Du        
   1460 ****       -37.2500  21.7500 -20.0000 Du        
   1461 ****       -37.2500  21.7500 -19.7500 Du        
   1462 ****       -37.2500  21.7500 -19.5000 Du        
   1463 ****       -37.2500  21.7500 -19.2500 Du        
   1464 ****       -37.2500  21.7500 -19.0000 Du        
   1465 ****       -37.2500  21.7500 -18.7500 Du        
   1466 ****       -37.2500  22.0000 -21.5000 Du        
   1467 ****       -37.2500  22.0000 -21.2500 Du        
   1468 ****       -37.2500  22.0000 -21.0000 Du        
   1469 ****       -37.2500  22.0000 -20.7500 Du        
   1470 ****       -37.2500  22.0000 -20.5000 Du        
   1471 ****       -37.2500  22.0000 -20.2500 Du        
   1472 ****       -37.2500  22.0000 -20.0000 Du        
   1473 ****       -37.2500  22.0000 -19.7500 Du        
   1474 ****       -37.2500  22.0000 -19.5000 Du        
   1475 ****       -37.2500  22.0000 -19.2500 Du        
   1476 ****       -37.2500  22.0000 -19.0000 Du        
   1477 ****       -37.2500  22.2500 -21.5000 Du        
   1478 ****       -37.2500  22.2500 -21.2500 Du        
   1479 ****       -37.2500  22.2500 -21.0000 Du        
   1480 ****       -37.2500  22.2500 -20.7500 Du        
   1481 ****       -37.2500  22.2500 -20.5000 Du        
   1482 ****       -37.2500  22.2500 -20.2500 Du        
   1483 ****       -37.2500  22.2500 -20.0000 Du        
   1484 ****       -37.2500  22.2500 -19.7500 Du        
   1485 ****       -37.2500  22.2500 -19.5000 Du        
   1486 ****       -37.2500  22.2500 -19.2500 Du        
   1487 ****       -37.2500  22.2500 -19.0000 Du        
   1488 ****       -37.2500  22.5000 -21.5000 Du        
   1489 ****       -37.2500  22.5000 -21.2500 Du        
   1490 ****       -37.2500  22.5000 -21.0000 Du        
   1491 ****       -37.2500  22.5000 -20.7500 Du        
   1492 ****       -37.2500  22.5000 -20.5000 Du        
   1493 ****       -37.2500  22.5000 -20.2500 Du        
   1494 ****       -37.2500  22.5000 -20.0000 Du        
   1495 ****       -37.2500  22.5000 -19.7500 Du        
   1496 ****       -37.2500  22.7500 -21.5000 Du        
   1497 ****       -37.2500  22.7500 -21.2500 Du        
   1498 ****       -37.2500  22.7500 -21.0000 Du        
   1499 ****       -37.2500  22.7500 -20.7500 Du        
   1500 ****       -37.2500  22.7500 -20.5000 Du        
   1501 ****       -37.2500  22.7500 -20.2500 Du        
   1502 ****       -37.2500  22.7500 -20.0000 Du        
   1503 ****       -37.2500  22.7500 -19.7500 Du        
   1504 ****       -37.2500  23.0000 -21.2500 Du        
   1505 ****       -37.2500  23.0000 -21.0000 Du        
   1506 ****       -37.2500  23.0000 -20.7500 Du        
   1507 ****       -37.2500  23.0000 -20.5000 Du        
   1508 ****       -37.2500  23.0000 -20.2500 Du        
   1509 ****       -37.2500  23.0000 -20.0000 Du        
   1510 ****       -37.2500  23.0000 -19.7500 Du        
   1511 ****       -37.2500  23.2500 -21.2500 Du        
   1512 ****       -37.2500  23.2500 -21.0000 Du        
   1513 ****       -37.2500  23.2500 -20.7500 Du        
   1514 ****       -37.2500  23.2500 -20.5000 Du        
   1515 ****       -37.2500  23.2500 -20.2500 Du        
   1516 ****       -37.2500  23.2500 -20.0000 Du        
   1517 ****       -37.2500  23.2500 -19.7500 Du        
   1518 ****       -37.0000  20.7500 -18.2500 Du        
   1519 ****       -37.0000  20.7500 -18.0000 Du        
   1520 ****       -37.0000  20.7500 -17.7500 Du        
   1521 ****       -37.0000  21.0000 -18.7500 Du        
   1522 ****       -37.0000  21.0000 -18.5000 Du        
   1523 ****       -37.0000  21.0000 -18.2500 Du        
   1524 ****       -37.0000  21.0000 -18.0000 Du        
   1525 ****       -37.0000  21.0000 -17.7500 Du        
   1526 ****       -37.0000  21.2500 -19.0000 Du        
   1527 ****       -37.0000  21.2500 -18.7500 Du        
   1528 ****       -37.0000  21.2500 -18.5000 Du        
   1529 ****       -37.0000  21.2500 -18.2500 Du        
   1530 ****       -37.0000  21.2500 -18.0000 Du        
   1531 ****       -37.0000  21.2500 -17.7500 Du        
   1532 ****       -37.0000  21.7500 -19.0000 Du        
   1533 ****       -37.0000  22.0000 -19.2500 Du        
   1534 ****       -37.0000  22.0000 -19.0000 Du        
   1535 ****       -37.0000  22.2500 -21.2500 Du        
   1536 ****       -37.0000  22.2500 -21.0000 Du        
   1537 ****       -37.0000  22.2500 -20.7500 Du        
   1538 ****       -37.0000  22.2500 -20.0000 Du        
   1539 ****       -37.0000  22.2500 -19.2500 Du        
   1540 ****       -37.0000  22.2500 -19.0000 Du        
   1541 ****       -37.0000  22.5000 -21.2500 Du        
   1542 ****       -37.0000  22.5000 -21.0000 Du        
   1543 ****       -37.0000  22.5000 -20.7500 Du        
   1544 ****       -37.0000  22.5000 -20.5000 Du        
   1545 ****       -37.0000  22.5000 -20.2500 Du        
   1546 ****       -37.0000  22.5000 -20.0000 Du        
   1547 ****       -37.0000  22.5000 -19.7500 Du        
   1548 ****       -37.0000  22.7500 -21.2500 Du        
   1549 ****       -37.0000  22.7500 -21.0000 Du        
   1550 ****       -37.0000  22.7500 -20.7500 Du        
   1551 ****       -37.0000  22.7500 -20.5000 Du        
   1552 ****       -37.0000  22.7500 -20.2500 Du        
   1553 ****       -37.0000  22.7500 -20.0000 Du        
   1554 ****       -37.0000  22.7500 -19.7500 Du        
   1555 ****       -37.0000  23.0000 -21.2500 Du        
   1556 ****       -37.0000  23.0000 -21.0000 Du        
   1557 ****       -37.0000  23.0000 -20.7500 Du        
   1558 ****       -37.0000  23.0000 -20.5000 Du        
   1559 ****       -37.0000  23.0000 -20.2500 Du        
   1560 ****       -37.0000  23.0000 -20.0000 Du        
   1561 ****       -37.0000  23.0000 -19.7500 Du        
   1562 ****       -37.0000  23.2500 -21.2500 Du        
   1563 ****       -37.0000  23.2500 -21.0000 Du        
   1564 ****       -37.0000  23.2500 -20.7500 Du        
   1565 ****       -37.0000  23.2500 -20.5000 Du        
   1566 ****       -37.0000  23.2500 -20.2500 Du        
   1567 ****       -37.0000  23.2500 -20.0000 Du        
   1568 ****       -37.0000  23.2500 -19.7500 Du        
   1569 ****       -37.0000  23.5000 -20.7500 Du        
   1570 ****       -36.7500  20.7500 -17.7500 Du        
   1571 ****       -36.7500  21.0000 -18.0000 Du        
   1572 ****       -36.7500  21.0000 -17.7500 Du        
   1573 ****       -36.7500  21.2500 -18.2500 Du        
   1574 ****       -36.7500  21.2500 -18.0000 Du        
   1575 ****       -36.7500  21.2500 -17.7500 Du        
   1576 ****       -36.7500  22.7500 -21.0000 Du        
   1577 ****       -36.7500  22.7500 -20.7500 Du        
   1578 ****       -36.7500  22.7500 -20.5000 Du        
   1579 ****       -36.7500  22.7500 -20.2500 Du        
   1580 ****       -36.7500  22.7500 -20.0000 Du        
   1581 ****       -36.7500  22.7500 -19.7500 Du        
   1582 ****       -36.7500  23.0000 -21.2500 Du        
   1583 ****       -36.7500  23.0000 -21.0000 Du        
   1584 ****       -36.7500  23.0000 -20.7500 Du        
   1585 ****       -36.7500  23.0000 -20.5000 Du        
   1586 ****       -36.7500  23.0000 -20.2500 Du        
   1587 ****       -36.7500  23.0000 -20.0000 Du        
   1588 ****       -36.7500  23.0000 -19.7500 Du        
   1589 ****       -36.7500  23.2500 -21.2500 Du        
   1590 ****       -36.7500  23.2500 -21.0000 Du        
   1591 ****       -36.7500  23.2500 -20.7500 Du        
   1592 ****       -36.7500  23.2500 -20.5000 Du        
   1593 ****       -36.7500  23.2500 -20.2500 Du        
   1594 ****       -36.7500  23.2500 -20.0000 Du        
   1595 ****       -36.7500  23.2500 -19.7500 Du        
   1596 ****       -36.7500  23.5000 -21.0000 Du        
   1597 ****       -36.7500  23.5000 -20.7500 Du        
   1598 ****       -36.7500  23.5000 -20.5000 Du        
   1599 ****       -36.7500  23.5000 -20.2500 Du        
   1600 ****       -36.5000  21.2500 -17.7500 Du        
   1601 ****       -36.5000  23.0000 -20.7500 Du        
   1602 ****       -36.5000  23.0000 -20.2500 Du        
   1603 ****       -36.5000  23.0000 -20.0000 Du        
   1604 ****       -36.5000  23.0000 -19.7500 Du        
   1605 ****       -36.5000  23.2500 -21.0000 Du        
   1606 ****       -36.5000  23.2500 -20.7500 Du        
   1607 ****       -36.5000  23.2500 -20.5000 Du        
   1608 ****       -36.5000  23.2500 -20.2500 Du        
   1609 ****       -36.5000  23.2500 -20.0000 Du        
   1610 ****       -36.5000  23.2500 -19.7500 Du        
   1611 ****       -36.5000  23.5000 -21.0000 Du        
   1612 ****       -36.5000  23.5000 -20.7500 Du        
   1613 ****       -36.5000  23.5000 -20.5000 Du        
   1614 ****       -36.5000  23.5000 -20.2500 Du        
   1615 ****       -36.5000  23.5000 -20.0000 Du        
   1616 ****       -36.5000  23.5000 -19.7500 Du        
   1617 ****       -36.5000  23.7500 -20.7500 Du        
   1618 ****       -36.5000  23.7500 -20.5000 Du        
   1619 ****       -36.5000  23.7500 -20.2500 Du        
   1620 ****       -36.2500  23.2500 -20.7500 Du        
   1621 ****       -36.2500  23.2500 -20.5000 Du        
   1622 ****       -36.2500  23.2500 -20.2500 Du        
   1623 ****       -36.2500  23.2500 -20.0000 Du        
   1624 ****       -36.2500  23.2500 -19.7500 Du        
   1625 ****       -36.2500  23.5000 -21.0000 Du        
   1626 ****       -36.2500  23.5000 -20.7500 Du        
   1627 ****       -36.2500  23.5000 -20.5000 Du        
   1628 ****       -36.2500  23.5000 -20.2500 Du        
   1629 ****       -36.2500  23.5000 -20.0000 Du        
   1630 ****       -36.2500  23.5000 -19.7500 Du        
   1631 ****       -36.2500  23.7500 -20.7500 Du        
   1632 ****       -36.2500  23.7500 -20.5000 Du        
   1633 ****       -36.2500  23.7500 -20.2500 Du        
   1634 ****       -36.2500  23.7500 -20.0000 Du        
   1635 ****       -36.2500  23.7500 -19.7500 Du        
   1636 ****       -36.2500  24.0000 -20.7500 Du        
   1637 ****       -36.2500  24.0000 -20.5000 Du        
   1638 ****       -36.2500  24.0000 -20.2500 Du        
   1639 ****       -36.0000  23.5000 -20.7500 Du        
   1640 ****       -36.0000  23.5000 -20.5000 Du        
   1641 ****       -36.0000  23.5000 -20.2500 Du        
   1642 ****       -36.0000  23.5000 -20.0000 Du        
   1643 ****       -36.0000  23.5000 -19.7500 Du        
   1644 ****       -36.0000  23.7500 -20.7500 Du        
   1645 ****       -36.0000  23.7500 -20.5000 Du        
   1646 ****       -36.0000  23.7500 -20.2500 Du        
   1647 ****       -36.0000  23.7500 -20.0000 Du        
   1648 ****       -36.0000  23.7500 -19.7500 Du        
   1649 ****       -36.0000  24.0000 -20.7500 Du        
   1650 ****       -36.0000  24.0000 -20.5000 Du        
   1651 ****       -36.0000  24.0000 -20.2500 Du        
   1652 ****       -36.0000  24.0000 -20.0000 Du        
   1653 ****       -36.0000  24.0000 -19.7500 Du        
   1654 ****       -36.0000  24.2500 -20.7500 Du        
   1655 ****       -36.0000  24.2500 -20.2500 Du        
   1656 ****       -36.0000  24.2500 -20.0000 Du        
   1657 ****       -35.7500  23.5000 -20.0000 Du        
   1658 ****       -35.7500  23.5000 -19.7500 Du        
   1659 ****       -35.7500  23.7500 -20.7500 Du        
   1660 ****       -35.7500  23.7500 -20.5000 Du        
   1661 ****       -35.7500  23.7500 -20.2500 Du        
   1662 ****       -35.7500  23.7500 -20.0000 Du        
   1663 ****       -35.7500  23.7500 -19.7500 Du        
   1664 ****       -35.7500  24.0000 -20.7500 Du        
   1665 ****       -35.7500  24.0000 -20.5000 Du        
   1666 ****       -35.7500  24.0000 -20.2500 Du        
   1667 ****       -35.7500  24.0000 -20.0000 Du        
   1668 ****       -35.7500  24.0000 -19.7500 Du        
   1669 ****       -35.7500  24.0000 -19.5000 Du        
   1670 ****       -35.7500  24.2500 -20.7500 Du        
   1671 ****       -35.7500  24.2500 -20.5000 Du        
   1672 ****       -35.7500  24.2500 -20.2500 Du        
   1673 ****       -35.7500  24.2500 -20.0000 Du        
   1674 ****       -35.7500  24.2500 -19.7500 Du        
   1675 ****       -35.5000  23.7500 -20.7500 Du        
   1676 ****       -35.5000  23.7500 -20.5000 Du        
   1677 ****       -35.5000  23.7500 -20.2500 Du        
   1678 ****       -35.5000  23.7500 -20.0000 Du        
   1679 ****       -35.5000  23.7500 -19.7500 Du        
   1680 ****       -35.5000  24.0000 -20.7500 Du        
   1681 ****       -35.5000  24.0000 -20.5000 Du        
   1682 ****       -35.5000  24.0000 -20.2500 Du        
   1683 ****       -35.5000  24.0000 -20.0000 Du        
   1684 ****       -35.5000  24.0000 -19.7500 Du        
   1685 ****       -35.5000  24.2500 -20.7500 Du        
   1686 ****       -35.5000  24.2500 -20.5000 Du        
   1687 ****       -35.5000  24.2500 -20.2500 Du        
   1688 ****       -35.5000  24.2500 -20.0000 Du        
   1689 ****       -35.5000  24.2500 -19.7500 Du        
   1690 ****       -35.5000  24.5000 -20.7500 Du        
   1691 ****       -35.5000  24.5000 -20.5000 Du        
   1692 ****       -35.5000  24.5000 -20.2500 Du        
   1693 ****       -35.5000  24.5000 -20.0000 Du        
   1694 ****       -35.5000  24.5000 -19.7500 Du        
   1695 ****       -35.5000  24.5000 -19.5000 Du        
   1696 ****       -35.5000  24.7500 -20.5000 Du        
   1697 ****       -35.5000  24.7500 -20.2500 Du        
   1698 ****       -35.5000  24.7500 -20.0000 Du        
   1699 ****       -35.5000  24.7500 -19.7500 Du        
   1700 ****       -35.2500  23.7500 -20.0000 Du        
   1701 ****       -35.2500  23.7500 -19.7500 Du        
   1702 ****       -35.2500  24.0000 -20.7500 Du        
   1703 ****       -35.2500  24.0000 -20.5000 Du        
   1704 ****       -35.2500  24.0000 -20.2500 Du        
   1705 ****       -35.2500  24.0000 -20.0000 Du        
   1706 ****       -35.2500  24.0000 -19.7500 Du        
   1707 ****       -35.2500  24.2500 -20.7500 Du        
   1708 ****       -35.2500  24.2500 -20.5000 Du        
   1709 ****       -35.2500  24.2500 -20.2500 Du        
   1710 ****       -35.2500  24.2500 -20.0000 Du        
   1711 ****       -35.2500  24.2500 -19.7500 Du        
   1712 ****       -35.2500  24.2500 -19.5000 Du        
   1713 ****       -35.2500  24.5000 -20.7500 Du        
   1714 ****       -35.2500  24.5000 -20.5000 Du        
   1715 ****       -35.2500  24.5000 -20.2500 Du        
   1716 ****       -35.2500  24.5000 -20.0000 Du        
   1717 ****       -35.2500  24.5000 -19.7500 Du        
   1718 ****       -35.2500  24.5000 -19.5000 Du        
   1719 ****       -35.2500  24.5000 -19.2500 Du        
   1720 ****       -35.2500  24.7500 -20.7500 Du        
   1721 ****       -35.2500  24.7500 -20.5000 Du        
   1722 ****       -35.2500  24.7500 -20.2500 Du        
   1723 ****       -35.2500  24.7500 -20.0000 Du        
   1724 ****       -35.2500  24.7500 -19.7500 Du        
   1725 ****       -35.2500  24.7500 -19.5000 Du        
   1726 ****       -35.2500  25.0000 -20.5000 Du        
   1727 ****       -35.2500  25.0000 -20.2500 Du        
   1728 ****       -35.2500  25.0000 -20.0000 Du        
   1729 ****       -35.2500  25.0000 -19.7500 Du        
   1730 ****       -35.0000  24.0000 -20.2500 Du        
   1731 ****       -35.0000  24.0000 -20.0000 Du        
   1732 ****       -35.0000  24.0000 -19.7500 Du        
   1733 ****       -35.0000  24.2500 -20.7500 Du        
   1734 ****       -35.0000  24.2500 -20.5000 Du        
   1735 ****       -35.0000  24.2500 -20.2500 Du        
   1736 ****       -35.0000  24.2500 -20.0000 Du        
   1737 ****       -35.0000  24.2500 -19.7500 Du        
   1738 ****       -35.0000  24.5000 -20.7500 Du        
   1739 ****       -35.0000  24.5000 -20.5000 Du        
   1740 ****       -35.0000  24.5000 -20.2500 Du        
   1741 ****       -35.0000  24.5000 -20.0000 Du        
   1742 ****       -35.0000  24.5000 -19.7500 Du        
   1743 ****       -35.0000  24.5000 -19.5000 Du        
   1744 ****       -35.0000  24.5000 -19.2500 Du        
   1745 ****       -35.0000  24.7500 -20.7500 Du        
   1746 ****       -35.0000  24.7500 -20.5000 Du        
   1747 ****       -35.0000  24.7500 -20.2500 Du        
   1748 ****       -35.0000  24.7500 -20.0000 Du        
   1749 ****       -35.0000  24.7500 -19.7500 Du        
   1750 ****       -35.0000  24.7500 -19.5000 Du        
   1751 ****       -35.0000  24.7500 -19.2500 Du        
   1752 ****       -35.0000  25.0000 -20.5000 Du        
   1753 ****       -35.0000  25.0000 -20.2500 Du        
   1754 ****       -35.0000  25.0000 -20.0000 Du        
   1755 ****       -35.0000  25.0000 -19.7500 Du        
   1756 ****       -35.0000  25.0000 -19.5000 Du        
   1757 ****       -35.0000  25.2500 -20.2500 Du        
   1758 ****       -35.0000  25.2500 -20.0000 Du        
   1759 ****       -35.0000  25.2500 -19.7500 Du        
   1760 ****       -35.0000  25.5000 -20.0000 Du        
   1761 ****       -35.0000  25.5000 -19.7500 Du        
   1762 ****       -34.7500  20.7500 -16.7500 Du        
   1763 ****       -34.7500  21.0000 -17.0000 Du        
   1764 ****       -34.7500  21.0000 -16.7500 Du        
   1765 ****       -34.7500  24.2500 -20.2500 Du        
   1766 ****       -34.7500  24.2500 -20.0000 Du        
   1767 ****       -34.7500  24.2500 -19.7500 Du        
   1768 ****       -34.7500  24.5000 -20.5000 Du        
   1769 ****       -34.7500  24.5000 -20.2500 Du        
   1770 ****       -34.7500  24.5000 -20.0000 Du        
   1771 ****       -34.7500  24.5000 -19.7500 Du        
   1772 ****       -34.7500  24.5000 -19.5000 Du        
   1773 ****       -34.7500  24.7500 -20.5000 Du        
   1774 ****       -34.7500  24.7500 -20.2500 Du        
   1775 ****       -34.7500  24.7500 -20.0000 Du        
   1776 ****       -34.7500  24.7500 -19.7500 Du        
   1777 ****       -34.7500  24.7500 -19.5000 Du        
   1778 ****       -34.7500  25.0000 -20.5000 Du        
   1779 ****       -34.7500  25.0000 -20.2500 Du        
   1780 ****       -34.7500  25.0000 -20.0000 Du        
   1781 ****       -34.7500  25.0000 -19.7500 Du        
   1782 ****       -34.7500  25.0000 -19.5000 Du        
   1783 ****       -34.7500  25.2500 -20.2500 Du        
   1784 ****       -34.7500  25.2500 -20.0000 Du        
   1785 ****       -34.7500  25.2500 -19.7500 Du        
   1786 ****       -34.7500  25.2500 -19.5000 Du        
   1787 ****       -34.7500  25.5000 -20.2500 Du        
   1788 ****       -34.7500  25.5000 -20.0000 Du        
   1789 ****       -34.7500  25.5000 -19.7500 Du        
   1790 ****       -34.7500  25.7500 -20.0000 Du        
   1791 ****       -34.7500  25.7500 -19.7500 Du        
   1792 ****       -34.7500  26.0000 -20.0000 Du        
   1793 ****       -34.5000  20.2500 -16.7500 Du        
   1794 ****       -34.5000  20.7500 -16.7500 Du        
   1795 ****       -34.5000  21.0000 -17.0000 Du        
   1796 ****       -34.5000  21.0000 -16.7500 Du        
   1797 ****       -34.5000  24.5000 -20.0000 Du        
   1798 ****       -34.5000  24.5000 -19.7500 Du        
   1799 ****       -34.5000  24.7500 -20.5000 Du        
   1800 ****       -34.5000  24.7500 -20.2500 Du        
   1801 ****       -34.5000  24.7500 -20.0000 Du        
   1802 ****       -34.5000  24.7500 -19.7500 Du        
   1803 ****       -34.5000  25.0000 -20.5000 Du        
   1804 ****       -34.5000  25.0000 -20.2500 Du        
   1805 ****       -34.5000  25.0000 -20.0000 Du        
   1806 ****       -34.5000  25.0000 -19.7500 Du        
   1807 ****       -34.5000  25.2500 -20.2500 Du        
   1808 ****       -34.5000  25.2500 -20.0000 Du        
   1809 ****       -34.5000  25.2500 -19.7500 Du        
   1810 ****       -34.5000  25.5000 -20.2500 Du        
   1811 ****       -34.5000  25.5000 -20.0000 Du        
   1812 ****       -34.5000  25.5000 -19.7500 Du        
   1813 ****       -34.5000  25.7500 -20.2500 Du        
   1814 ****       -34.5000  25.7500 -20.0000 Du        
   1815 ****       -34.5000  25.7500 -19.7500 Du        
   1816 ****       -34.5000  26.0000 -20.0000 Du        
   1817 ****       -34.2500  24.7500 -20.0000 Du        
   1818 ****       -34.2500  24.7500 -19.7500 Du        
   1819 ****       -34.2500  25.0000 -20.2500 Du        
   1820 ****       -34.2500  25.0000 -20.0000 Du        
   1821 ****       -34.2500  25.0000 -19.7500 Du        
   1822 ****       -34.2500  25.2500 -20.2500 Du        
   1823 ****       -34.2500  25.2500 -20.0000 Du        
   1824 ****       -34.2500  25.2500 -19.7500 Du        
   1825 ****       -34.2500  25.5000 -20.2500 Du        
   1826 ****       -34.2500  25.5000 -20.0000 Du        
   1827 ****       -34.2500  25.5000 -19.7500 Du        
   1828 ****       -34.2500  25.7500 -20.2500 Du        
   1829 ****       -34.2500  25.7500 -20.0000 Du        
   1830 ****       -34.2500  25.7500 -19.7500 Du        
   1831 ****       -34.2500  26.0000 -20.2500 Du        
   1832 ****       -34.2500  26.0000 -20.0000 Du        
   1833 ****       -34.0000  25.0000 -20.2500 Du        
   1834 ****       -34.0000  25.0000 -20.0000 Du        
   1835 ****       -34.0000  25.0000 -19.7500 Du        
   1836 ****       -34.0000  25.2500 -20.2500 Du        
   1837 ****       -34.0000  25.2500 -20.0000 Du        
   1838 ****       -34.0000  25.2500 -19.7500 Du        
   1839 ****       -34.0000  25.5000 -20.2500 Du        
   1840 ****       -34.0000  25.5000 -20.0000 Du        
   1841 ****       -34.0000  25.5000 -19.7500 Du        
   1842 ****       -34.0000  25.7500 -20.2500 Du        
   1843 ****       -34.0000  25.7500 -20.0000 Du        
   1844 ****       -34.0000  25.7500 -19.7500 Du        
   1845 ****       -34.0000  26.0000 -20.2500 Du        
   1846 ****       -34.0000  26.0000 -20.0000 Du        
   1847 ****       -33.7500  25.2500 -20.0000 Du        
   1848 ****       -33.7500  25.2500 -19.7500 Du        
   1849 ****       -33.7500  25.5000 -20.0000 Du        
   1850 ****       -33.7500  25.7500 -20.0000 Du        
   1851 ****       -33.7500  25.7500 -19.7500 Du        
   1852 ****       -33.7500  26.0000 -20.0000 Du        
