#       Name:                CT1002167954
#       Creating user name   hitesit
#       Creation time:       Sun Apr 16 02:23:07 2023


#       File generated by GOLD software.
#

@<TRIPOS>MOLECULE
CT1002167954|ligand_prepared|mol2|1|dock5
    29    30     1
SMALL
NO_CHARGES


@<TRIPOS>ATOM
      1 C1         -38.2475  22.3392 -20.4815 C.3            1 RES1               0.0000
      2 C2         -39.7311  22.5709 -20.1292 C.ar           1 RES1               0.0000
      3 C3         -37.7627  21.2120 -19.5746 C.2            1 RES1               0.0000
      4 C4         -38.2096  22.0018 -21.9679 C.2            1 RES1               0.0000
      5 C5         -37.3496  23.5768 -20.2496 C.3            1 RES1               0.0000
      6 C6         -40.7343  21.8680 -20.7897 C.ar           1 RES1               0.0000
      7 C7         -40.1111  23.4804 -19.1459 C.ar           1 RES1               0.0000
      8 N8         -37.5667  19.9863 -20.1397 N.am           1 RES1               0.0000
      9 O9         -37.5929  21.3859 -18.3741 O.2            1 RES1               0.0000
     10 N10        -37.8083  20.7427 -22.3305 N.am           1 RES1               0.0000
     11 O11        -38.5397  22.8094 -22.8275 O.2            1 RES1               0.0000
     12 C12        -35.9435  23.4276 -20.8087 C.3            1 RES1               0.0000
     13 C13        -42.0690  22.0651 -20.4766 C.ar           1 RES1               0.0000
     14 C14        -41.4465  23.6762 -18.8345 C.ar           1 RES1               0.0000
     15 C15        -37.5145  19.7100 -21.4823 C.2            1 RES1               0.0000
     16 C16        -42.4260  22.9689 -19.4986 C.ar           1 RES1               0.0000
     17 O17        -37.2138  18.5896 -21.8843 O.2            1 RES1               0.0000
     18 H18        -37.8240  24.4495 -20.7152 H              1 RES1               0.0000
     19 H19        -37.2824  23.7672 -19.1713 H              1 RES1               0.0000
     20 H20        -40.4727  21.1545 -21.5639 H              1 RES1               0.0000
     21 H21        -39.3577  24.0488 -18.6112 H              1 RES1               0.0000
     22 H22        -37.4480  19.2028 -19.5054 H              1 RES1               0.0000
     23 H23        -37.7202  20.5583 -23.3247 H              1 RES1               0.0000
     24 H24        -35.3559  24.3234 -20.6189 H              1 RES1               0.0000
     25 H25        -35.4331  22.5839 -20.3490 H              1 RES1               0.0000
     26 H26        -35.9714  23.2621 -21.8837 H              1 RES1               0.0000
     27 H27        -42.8361  21.5070 -21.0031 H              1 RES1               0.0000
     28 H28        -41.7229  24.3889 -18.0646 H              1 RES1               0.0000
     29 H29        -43.4716  23.1228 -19.2533 H              1 RES1               0.0000
@<TRIPOS>BOND
    1    1    2 1     
    2    1    3 1     
    3    1    4 1     
    4    1    5 1     
    5    2    6 ar    
    6    2    7 ar    
    7    3    8 1     
    8    3    9 2     
    9    4   10 1     
   10    4   11 2     
   11    5   12 1     
   12    5   18 1     
   13    5   19 1     
   14    6   13 ar    
   15    6   20 1     
   16    7   14 ar    
   17    7   21 1     
   18    8   15 1     
   19    8   22 1     
   20   10   15 1     
   21   10   23 1     
   22   12   24 1     
   23   12   25 1     
   24   12   26 1     
   25   13   16 ar    
   26   13   27 1     
   27   14   16 ar    
   28   14   28 1     
   29   15   17 2     
   30   16   29 1     
@<TRIPOS>SUBSTRUCTURE
      1 RES1           1
@<TRIPOS>SET
DONOR_HYDROGENS      STATIC     ATOMS    <user>   **** ""
2 22 23
ATOM$RED        STATIC     ATOMS    COLORGROUP SYSTEM
2 22 23
@<TRIPOS>COMMENT
> <Gold.Version>
2022.3.0

> <Gold.Id.Protein>
unknown|7ta6_clean|pdb

> <Gold.Protein.RotatedTorsions>
[ 10564 10443 10442 10441 ] final  -99.32 input   60.01 | X-H torsion
[ 11622 11535 11534 11532 ] final    7.03 input   60.01 | X-H torsion
[ 11975 11916 11917 11918 ] final   49.22 input   43.11 | X-H torsion
[ 12166 12076 12077 12078 ] final   97.71 input   60.03 | X-H torsion
[ 12306 12236 12237 12238 ] final  -41.79 input   49.55 | X-H torsion
[ 16043 15965 15964 15962 ] final  -53.35 input   60.00 | X-H torsion
[ 17235 17166 17170 17167 ] final  146.73 input   60.00 | X-H torsion
[ 17240 17169 17168 17167 ] final   68.76 input   59.99 | X-H torsion
[ 17396 17326 17327 17328 ] final -101.31 input   75.34 | X-H torsion
[ 17505 17474 17475 17476 ] final  -16.35 input  132.66 | X-H torsion
[ 17658 17540 17541 17542 ] final -145.51 input  113.35 | X-H torsion
[ 6542 6500 6501 6502 ] final   79.70 input   50.41 | X-H torsion
[ 17776 17724 17725 17726 ] final  -64.22 input  117.84 | X-H torsion
[ 17892 17814 17815 17816 ] final  130.59 input  119.80 | X-H torsion
[ 12567 12491 12492 12493 ] final   35.96 input   85.07 | X-H torsion
[ 17998 17962 17963 17964 ] final  162.87 input  125.49 | X-H torsion
[ 20694 6503 6502 6501 ] final  104.93 input    0.00 | X-H torsion
[ 20698 11689 11688 11687 ] final -122.21 input    0.00 | X-H torsion
[ 20701 11805 11804 11803 ] final  -27.25 input    0.00 | X-H torsion
[ 20704 11919 11918 11917 ] final   32.05 input    0.00 | X-H torsion
[ 20707 12079 12078 12077 ] final  159.03 input    0.00 | X-H torsion
[ 20716 17329 17328 17327 ] final -141.90 input    0.00 | X-H torsion
[ 20719 17477 17476 17475 ] final -118.56 input    0.00 | X-H torsion
[ 20724 6277 6276 6275 ] final  -89.54 input    0.00 | X-H torsion
[ 20727 15687 15686 15685 ] final   57.20 input    0.00 | X-H torsion
[ 20730 17543 17542 17541 ] final -159.18 input    0.00 | X-H torsion

> <Gold.Protein.ActiveResidues>
 TRP28   LEU55   SER60   GLN61   VAL62   LEU63   LYS98   TYR115  GLU116  PRO117 
 ILE118  TYR119  LEU120  VAL123  GLN149  TYR151  LEU157  XCP1    LEU2    GLY3   
 TRP4    CYS5    ILE6    GLY7   

> <Gold.Protein.RotatedAtoms>
  -34.8710   14.9716  -22.6771 H   0  0  0  0  0  0  0  0  0  0  0  0  # atno 6542 bound_to 6500
  -36.7280   18.4598  -15.3098 H   0  0  0  0  0  0  0  0  0  0  0  0  # atno 10564 bound_to 10443
  -38.2268   18.5925  -14.6130 H   0  0  0  0  0  0  0  0  0  0  0  0  # atno 10565 bound_to 10443
  -37.1352   19.8327  -14.4732 H   0  0  0  0  0  0  0  0  0  0  0  0  # atno 10566 bound_to 10443
  -46.0421   20.1090  -20.0576 H   0  0  0  0  0  0  0  0  0  0  0  0  # atno 11622 bound_to 11535
  -37.5082   15.9856  -20.6563 H   0  0  0  0  0  0  0  0  0  0  0  0  # atno 11975 bound_to 11916
  -35.4001   19.1391  -19.6791 H   0  0  0  0  0  0  0  0  0  0  0  0  # atno 12166 bound_to 12076
  -31.8393   19.9549  -21.4802 H   0  0  0  0  0  0  0  0  0  0  0  0  # atno 12306 bound_to 12236
  -48.1091   23.4938  -20.7632 H   0  0  0  0  0  0  0  0  0  0  0  0  # atno 12567 bound_to 12491
  -33.7361   20.4681  -25.8976 H   0  0  0  0  0  0  0  0  0  0  0  0  # atno 16043 bound_to 15965
  -38.3418   26.5727  -20.1432 H   0  0  0  0  0  0  0  0  0  0  0  0  # atno 17235 bound_to 17166
  -37.1042   26.3277  -21.2180 H   0  0  0  0  0  0  0  0  0  0  0  0  # atno 17236 bound_to 17166
  -38.6270   27.0038  -25.9716 H   0  0  0  0  0  0  0  0  0  0  0  0  # atno 17240 bound_to 17169
  -37.2103   27.5442  -24.4825 H   0  0  0  0  0  0  0  0  0  0  0  0  # atno 17396 bound_to 17326
  -36.2785   24.8972  -25.1552 H   0  0  0  0  0  0  0  0  0  0  0  0  # atno 17505 bound_to 17474
  -38.1943   22.3342  -25.6009 H   0  0  0  0  0  0  0  0  0  0  0  0  # atno 17658 bound_to 17540
  -38.4894   24.1476  -28.4981 H   0  0  0  0  0  0  0  0  0  0  0  0  # atno 17776 bound_to 17724
  -35.3280   24.6226  -28.3910 H   0  0  0  0  0  0  0  0  0  0  0  0  # atno 17892 bound_to 17814
  -35.6418   21.6831  -29.3077 H   0  0  0  0  0  0  0  0  0  0  0  0  # atno 17998 bound_to 17962
  -38.0719   15.4425  -22.4000 LP  0  0  0  0  0  0  0  0  0  0  0  0  # atno 20694 bound_to 6503
  -37.2714   14.5149  -21.1757 LP  0  0  0  0  0  0  0  0  0  0  0  0  # atno 20695 bound_to 6503
  -45.4319   19.9026  -21.5518 LP  0  0  0  0  0  0  0  0  0  0  0  0  # atno 20696 bound_to 11535
  -44.4442   19.8709  -20.2518 LP  0  0  0  0  0  0  0  0  0  0  0  0  # atno 20697 bound_to 11535
  -39.6595   14.1071  -19.0109 LP  0  0  0  0  0  0  0  0  0  0  0  0  # atno 20698 bound_to 11689
  -41.1363   13.4047  -19.5816 LP  0  0  0  0  0  0  0  0  0  0  0  0  # atno 20699 bound_to 11689
  -39.3898   17.8800  -17.7482 LP  0  0  0  0  0  0  0  0  0  0  0  0  # atno 20701 bound_to 11805
  -37.8934   17.0851  -17.3893 LP  0  0  0  0  0  0  0  0  0  0  0  0  # atno 20702 bound_to 11805
  -38.2880   16.8604  -19.3561 LP  0  0  0  0  0  0  0  0  0  0  0  0  # atno 20703 bound_to 11916
  -35.7745   16.0757  -21.6996 LP  0  0  0  0  0  0  0  0  0  0  0  0  # atno 20704 bound_to 11919
  -34.1805   16.7410  -21.8290 LP  0  0  0  0  0  0  0  0  0  0  0  0  # atno 20705 bound_to 11919
  -34.6894   17.5584  -19.9403 LP  0  0  0  0  0  0  0  0  0  0  0  0  # atno 20706 bound_to 12076
  -31.6367   19.6735  -18.5658 LP  0  0  0  0  0  0  0  0  0  0  0  0  # atno 20707 bound_to 12079
  -33.2633   20.2388  -18.7529 LP  0  0  0  0  0  0  0  0  0  0  0  0  # atno 20708 bound_to 12079
  -31.7518   18.3035  -20.9046 LP  0  0  0  0  0  0  0  0  0  0  0  0  # atno 20709 bound_to 12236
  -35.1188   20.8087  -26.6846 LP  0  0  0  0  0  0  0  0  0  0  0  0  # atno 20710 bound_to 15965
  -33.7125   21.4821  -27.1698 LP  0  0  0  0  0  0  0  0  0  0  0  0  # atno 20711 bound_to 15965
  -37.8843   27.7750  -21.1690 LP  0  0  0  0  0  0  0  0  0  0  0  0  # atno 20712 bound_to 17166
  -38.9271   25.5737  -25.2551 LP  0  0  0  0  0  0  0  0  0  0  0  0  # atno 20713 bound_to 17169
  -37.4349   25.9050  -25.8297 LP  0  0  0  0  0  0  0  0  0  0  0  0  # atno 20714 bound_to 17169
  -36.8621   26.6227  -22.9720 LP  0  0  0  0  0  0  0  0  0  0  0  0  # atno 20715 bound_to 17326
  -36.1150   24.2989  -27.0566 LP  0  0  0  0  0  0  0  0  0  0  0  0  # atno 20716 bound_to 17329
  -34.7703   25.3894  -27.0047 LP  0  0  0  0  0  0  0  0  0  0  0  0  # atno 20717 bound_to 17329
  -35.7968   24.3339  -23.5710 LP  0  0  0  0  0  0  0  0  0  0  0  0  # atno 20718 bound_to 17474
  -36.4771   22.6044  -28.0729 LP  0  0  0  0  0  0  0  0  0  0  0  0  # atno 20719 bound_to 17477
  -36.3037   21.1310  -27.1790 LP  0  0  0  0  0  0  0  0  0  0  0  0  # atno 20720 bound_to 17477
  -37.8469   23.9958  -26.0066 LP  0  0  0  0  0  0  0  0  0  0  0  0  # atno 20721 bound_to 17540
  -31.5723   17.1252  -22.5824 LP  0  0  0  0  0  0  0  0  0  0  0  0  # atno 20724 bound_to 6277
  -31.9102   18.6123  -23.4036 LP  0  0  0  0  0  0  0  0  0  0  0  0  # atno 20725 bound_to 6277
  -35.2466   15.2290  -24.3685 LP  0  0  0  0  0  0  0  0  0  0  0  0  # atno 20726 bound_to 6500
  -38.2370   16.3842  -26.8319 LP  0  0  0  0  0  0  0  0  0  0  0  0  # atno 20727 bound_to 15687
  -36.5401   16.1759  -27.1095 LP  0  0  0  0  0  0  0  0  0  0  0  0  # atno 20728 bound_to 15687
  -37.8369   25.2250  -27.2878 LP  0  0  0  0  0  0  0  0  0  0  0  0  # atno 20729 bound_to 17724
  -38.2075   23.8343  -30.4451 LP  0  0  0  0  0  0  0  0  0  0  0  0  # atno 20730 bound_to 17543
  -39.5337   22.8463  -29.9303 LP  0  0  0  0  0  0  0  0  0  0  0  0  # atno 20731 bound_to 17543
  -36.1886   24.7636  -29.9051 LP  0  0  0  0  0  0  0  0  0  0  0  0  # atno 20732 bound_to 17814

> <Gold.Score>
     Fitness  S(hb_ext) S(vdw_ext)  S(hb_int)    S(int)      intcor
     40.87       6.06      25.64       0.00      -0.45      -0.78

> <Gold.Goldscore.Fitness>
40.8692

> <Gold.Goldscore.Internal.Vdw>
-0.7201

> <Gold.Goldscore.Internal.Torsion>
-0.5105

> <Gold.Goldscore.External.Vdw>
25.6391

> <Gold.Goldscore.Internal.HBond>
0.0000

> <Gold.Goldscore.External.HBond>
6.0622

> <Gold.Goldscore.Internal.Correction>
-0.7838

> <Gold.Goldscore.Hbonds>
donor molecule, donor type, donor heavy atom, donor atom, acceptor molecule, acceptor atom, score
      P1  H 12076 12166       L1     9  0.02
      L1  H     8    22       P1 11805  0.01
      L1  H    10    23       P1  6376  1.00

> <Gold.Goldscore.Internal.Vdw.Weighted>
-0.7201

> <Gold.Goldscore.Internal.Torsion.Weighted>
-0.5105

> <Gold.Goldscore.External.Vdw.Weighted>
35.2537

> <Gold.Goldscore.Internal.HBond.Weighted>
0.0000

> <Gold.Goldscore.External.HBond.Weighted>
6.0622

> <Gold.Goldscore.Internal.Correction.Weighted>
-0.7838

> <Gold.Rescore>
     Score     S(PLP)   S(hbond)     S(cho)   S(metal)  DE(clash)   DE(tors)     intcor
     27.77     -26.80       1.00       0.00       0.00       0.00       1.02       ----

> <Gold.PLP.Fitness>
27.7734

> <Gold.PLP.PLP>
-26.8038

> <Gold.PLP.part.hbond>
-3.1597

> <Gold.PLP.part.metal>
0.0000

> <Gold.PLP.part.buried>
3.1865

> <Gold.PLP.part.nonpolar>
-28.0652

> <Gold.PLP.part.repulsive>
1.1158

> <Gold.PLP.ligand.clash>
0.0000

> <Gold.PLP.ligand.torsion>
1.0152

> <Gold.PLP.Chemscore.Hbond>
1.0000

> <Gold.PLP.Chemscore.CHOScore>
0.0000

> <Gold.PLP.Chemscore.Metal>
0.0000

> <Gold.Chemscore.Hbonds>
donor molecule, donor type, donor heavy atom, donor atom, acceptor molecule, acceptor atom, score
      L1  H    10    23       P1  6376  0.39

> <Gold.PLP.Chemscore.Internal.Correction>
   9.000000E+99

