#       Name:                CT1002167954
#       Creating user name   hitesit
#       Creation time:       Sun Apr 16 02:23:06 2023


#       File generated by GOLD software.
#

@<TRIPOS>MOLECULE
CT1002167954|ligand_prepared|mol2|1|dock3
    29    30     1
SMALL
NO_CHARGES


@<TRIPOS>ATOM
      1 C1         -37.8493  22.3819 -20.4768 C.3            1 RES1               0.0000
      2 C2         -36.6119  23.3011 -20.5291 C.ar           1 RES1               0.0000
      3 C3         -38.0491  21.8514 -21.8934 C.2            1 RES1               0.0000
      4 C4         -37.5356  21.3025 -19.4467 C.2            1 RES1               0.0000
      5 C5         -39.1444  23.1022 -20.0347 C.3            1 RES1               0.0000
      6 C6         -36.3525  24.1997 -19.4985 C.ar           1 RES1               0.0000
      7 C7         -35.7207  23.2601 -21.5981 C.ar           1 RES1               0.0000
      8 N8         -37.7181  20.5504 -22.1334 N.am           1 RES1               0.0000
      9 O9         -38.4536  22.5746 -22.7954 O.2            1 RES1               0.0000
     10 N10        -37.4147  20.0105 -19.8870 N.am           1 RES1               0.0000
     11 O11        -37.3757  21.5615 -18.2602 O.2            1 RES1               0.0000
     12 C12        -40.3974  22.2523 -20.1758 C.3            1 RES1               0.0000
     13 C13        -35.2410  25.0253 -19.5339 C.ar           1 RES1               0.0000
     14 C14        -34.6099  24.0868 -21.6316 C.ar           1 RES1               0.0000
     15 C15        -37.4613  19.5900 -21.1883 C.2            1 RES1               0.0000
     16 C16        -34.3688  24.9692 -20.6000 C.ar           1 RES1               0.0000
     17 O17        -37.2891  18.4180 -21.5107 O.2            1 RES1               0.0000
     18 H18        -39.0395  23.4052 -18.9856 H              1 RES1               0.0000
     19 H19        -39.2653  24.0119 -20.6359 H              1 RES1               0.0000
     20 H20        -37.0290  24.2597 -18.6525 H              1 RES1               0.0000
     21 H21        -35.8909  22.5745 -22.4213 H              1 RES1               0.0000
     22 H22        -37.6557  20.2652 -23.1056 H              1 RES1               0.0000
     23 H23        -37.2773  19.2961 -19.1792 H              1 RES1               0.0000
     24 H24        -41.2768  22.8051 -19.8523 H              1 RES1               0.0000
     25 H25        -40.5466  21.9541 -21.2115 H              1 RES1               0.0000
     26 H26        -40.3221  21.3510 -19.5710 H              1 RES1               0.0000
     27 H27        -35.0566  25.7189 -18.7202 H              1 RES1               0.0000
     28 H28        -33.9265  24.0397 -22.4730 H              1 RES1               0.0000
     29 H29        -33.4980  25.6158 -20.6273 H              1 RES1               0.0000
@<TRIPOS>BOND
    1    1    2 1     
    2    1    3 1     
    3    1    4 1     
    4    1    5 1     
    5    2    6 ar    
    6    2    7 ar    
    7    3    8 1     
    8    3    9 2     
    9    4   10 1     
   10    4   11 2     
   11    5   12 1     
   12    5   18 1     
   13    5   19 1     
   14    6   13 ar    
   15    6   20 1     
   16    7   14 ar    
   17    7   21 1     
   18    8   15 1     
   19    8   22 1     
   20   10   15 1     
   21   10   23 1     
   22   12   24 1     
   23   12   25 1     
   24   12   26 1     
   25   13   16 ar    
   26   13   27 1     
   27   14   16 ar    
   28   14   28 1     
   29   15   17 2     
   30   16   29 1     
@<TRIPOS>SUBSTRUCTURE
      1 RES1           1
@<TRIPOS>SET
DONOR_HYDROGENS      STATIC     ATOMS    <user>   **** ""
2 22 23
ATOM$RED        STATIC     ATOMS    COLORGROUP SYSTEM
2 22 23
@<TRIPOS>COMMENT
> <Gold.Version>
2022.3.0

> <Gold.Id.Protein>
unknown|7ta6_clean|pdb

> <Gold.Protein.RotatedTorsions>
[ 10564 10443 10442 10441 ] final  106.25 input   60.01 | X-H torsion
[ 11622 11535 11534 11532 ] final  160.51 input   60.01 | X-H torsion
[ 11975 11916 11917 11918 ] final -178.66 input   43.11 | X-H torsion
[ 12166 12076 12077 12078 ] final  -18.32 input   60.03 | X-H torsion
[ 12306 12236 12237 12238 ] final   64.78 input   49.55 | X-H torsion
[ 16043 15965 15964 15962 ] final   60.85 input   60.00 | X-H torsion
[ 17235 17166 17170 17167 ] final  139.00 input   60.00 | X-H torsion
[ 17240 17169 17168 17167 ] final -120.14 input   59.99 | X-H torsion
[ 17396 17326 17327 17328 ] final  -56.52 input   75.34 | X-H torsion
[ 17505 17474 17475 17476 ] final  -41.68 input  132.66 | X-H torsion
[ 17658 17540 17541 17542 ] final  168.13 input  113.35 | X-H torsion
[ 6542 6500 6501 6502 ] final   78.96 input   50.41 | X-H torsion
[ 17776 17724 17725 17726 ] final -148.95 input  117.84 | X-H torsion
[ 17892 17814 17815 17816 ] final  -74.91 input  119.80 | X-H torsion
[ 12567 12491 12492 12493 ] final   -2.31 input   85.07 | X-H torsion
[ 17998 17962 17963 17964 ] final  -68.58 input  125.49 | X-H torsion
[ 20694 6503 6502 6501 ] final   89.26 input    0.00 | X-H torsion
[ 20698 11689 11688 11687 ] final  122.93 input    0.00 | X-H torsion
[ 20701 11805 11804 11803 ] final -120.77 input    0.00 | X-H torsion
[ 20704 11919 11918 11917 ] final   14.46 input    0.00 | X-H torsion
[ 20707 12079 12078 12077 ] final  122.35 input    0.00 | X-H torsion
[ 20716 17329 17328 17327 ] final  -85.96 input    0.00 | X-H torsion
[ 20719 17477 17476 17475 ] final   65.96 input    0.00 | X-H torsion
[ 20724 6277 6276 6275 ] final  139.54 input    0.00 | X-H torsion
[ 20727 15687 15686 15685 ] final   42.85 input    0.00 | X-H torsion
[ 20730 17543 17542 17541 ] final  -12.23 input    0.00 | X-H torsion

> <Gold.Protein.ActiveResidues>
 TRP28   LEU55   SER60   GLN61   VAL62   LEU63   LYS98   TYR115  GLU116  PRO117 
 ILE118  TYR119  LEU120  VAL123  GLN149  TYR151  LEU157  XCP1    LEU2    GLY3   
 TRP4    CYS5    ILE6    GLY7   

> <Gold.Protein.RotatedAtoms>
  -34.8806   14.9773  -22.6742 H   0  0  0  0  0  0  0  0  0  0  0  0  # atno 6542 bound_to 6500
  -37.6639   19.7238  -14.3031 H   0  0  0  0  0  0  0  0  0  0  0  0  # atno 10564 bound_to 10443
  -36.4826   18.9527  -15.1746 H   0  0  0  0  0  0  0  0  0  0  0  0  # atno 10565 bound_to 10443
  -37.9422   18.2091  -14.9186 H   0  0  0  0  0  0  0  0  0  0  0  0  # atno 10566 bound_to 10443
  -44.3985   19.8176  -20.7884 H   0  0  0  0  0  0  0  0  0  0  0  0  # atno 11622 bound_to 11535
  -38.1921   16.1749  -19.1931 H   0  0  0  0  0  0  0  0  0  0  0  0  # atno 11975 bound_to 11916
  -34.3595   18.1145  -19.2730 H   0  0  0  0  0  0  0  0  0  0  0  0  # atno 12166 bound_to 12076
  -31.4221   18.6371  -21.8411 H   0  0  0  0  0  0  0  0  0  0  0  0  # atno 12306 bound_to 12236
  -48.6610   23.5366  -20.9493 H   0  0  0  0  0  0  0  0  0  0  0  0  # atno 12567 bound_to 12491
  -33.6379   21.4538  -27.1176 H   0  0  0  0  0  0  0  0  0  0  0  0  # atno 16043 bound_to 15965
  -38.3971   26.6891  -20.1459 H   0  0  0  0  0  0  0  0  0  0  0  0  # atno 17235 bound_to 17166
  -37.1458   26.2384  -21.1349 H   0  0  0  0  0  0  0  0  0  0  0  0  # atno 17236 bound_to 17166
  -37.9039   25.3626  -25.4520 H   0  0  0  0  0  0  0  0  0  0  0  0  # atno 17240 bound_to 17169
  -37.4825   26.8527  -24.5088 H   0  0  0  0  0  0  0  0  0  0  0  0  # atno 17396 bound_to 17326
  -35.8931   24.8610  -25.1911 H   0  0  0  0  0  0  0  0  0  0  0  0  # atno 17505 bound_to 17474
  -38.6415   22.7827  -25.3202 H   0  0  0  0  0  0  0  0  0  0  0  0  # atno 17658 bound_to 17540
  -38.9311   25.1134  -27.9633 H   0  0  0  0  0  0  0  0  0  0  0  0  # atno 17776 bound_to 17724
  -35.9692   25.0808  -29.9231 H   0  0  0  0  0  0  0  0  0  0  0  0  # atno 17892 bound_to 17814
  -35.0212   22.2337  -30.6565 H   0  0  0  0  0  0  0  0  0  0  0  0  # atno 17998 bound_to 17962
  -37.8522   15.5190  -22.4402 LP  0  0  0  0  0  0  0  0  0  0  0  0  # atno 20694 bound_to 6503
  -37.4910   14.4384  -21.1356 LP  0  0  0  0  0  0  0  0  0  0  0  0  # atno 20695 bound_to 6503
  -45.6098   20.0776  -19.7335 LP  0  0  0  0  0  0  0  0  0  0  0  0  # atno 20696 bound_to 11535
  -45.9218   19.9894  -21.3340 LP  0  0  0  0  0  0  0  0  0  0  0  0  # atno 20697 bound_to 11535
  -40.6128   13.9694  -20.1076 LP  0  0  0  0  0  0  0  0  0  0  0  0  # atno 20698 bound_to 11689
  -40.1830   13.5424  -18.4850 LP  0  0  0  0  0  0  0  0  0  0  0  0  # atno 20699 bound_to 11689
  -38.1612   18.1583  -17.8188 LP  0  0  0  0  0  0  0  0  0  0  0  0  # atno 20701 bound_to 11805
  -39.1220   16.8068  -17.3187 LP  0  0  0  0  0  0  0  0  0  0  0  0  # atno 20702 bound_to 11805
  -37.6263   16.6772  -20.7716 LP  0  0  0  0  0  0  0  0  0  0  0  0  # atno 20703 bound_to 11916
  -35.6434   15.8948  -21.5575 LP  0  0  0  0  0  0  0  0  0  0  0  0  # atno 20704 bound_to 11919
  -34.3116   16.9219  -21.9712 LP  0  0  0  0  0  0  0  0  0  0  0  0  # atno 20705 bound_to 11919
  -35.6896   18.5432  -20.3307 LP  0  0  0  0  0  0  0  0  0  0  0  0  # atno 20706 bound_to 12076
  -31.9756   19.2683  -18.4316 LP  0  0  0  0  0  0  0  0  0  0  0  0  # atno 20707 bound_to 12079
  -32.9244   20.6440  -18.8870 LP  0  0  0  0  0  0  0  0  0  0  0  0  # atno 20708 bound_to 12079
  -32.1543   19.5749  -20.5564 LP  0  0  0  0  0  0  0  0  0  0  0  0  # atno 20709 bound_to 12236
  -33.8175   20.4292  -25.8665 LP  0  0  0  0  0  0  0  0  0  0  0  0  # atno 20710 bound_to 15965
  -35.1129   20.8684  -26.7585 LP  0  0  0  0  0  0  0  0  0  0  0  0  # atno 20711 bound_to 15965
  -37.7888   27.7482  -21.2482 LP  0  0  0  0  0  0  0  0  0  0  0  0  # atno 20712 bound_to 17166
  -37.8480   26.8426  -26.1265 LP  0  0  0  0  0  0  0  0  0  0  0  0  # atno 20713 bound_to 17169
  -39.2420   26.2885  -25.4813 LP  0  0  0  0  0  0  0  0  0  0  0  0  # atno 20714 bound_to 17169
  -36.6394   27.1885  -22.9505 LP  0  0  0  0  0  0  0  0  0  0  0  0  # atno 20715 bound_to 17326
  -36.2565   25.0855  -27.2022 LP  0  0  0  0  0  0  0  0  0  0  0  0  # atno 20716 bound_to 17329
  -34.6289   24.6028  -26.8590 LP  0  0  0  0  0  0  0  0  0  0  0  0  # atno 20717 bound_to 17329
  -36.1717   24.3691  -23.5360 LP  0  0  0  0  0  0  0  0  0  0  0  0  # atno 20718 bound_to 17474
  -36.3663   21.1139  -27.2002 LP  0  0  0  0  0  0  0  0  0  0  0  0  # atno 20719 bound_to 17477
  -36.4144   22.6215  -28.0517 LP  0  0  0  0  0  0  0  0  0  0  0  0  # atno 20720 bound_to 17477
  -37.4070   23.5547  -26.2828 LP  0  0  0  0  0  0  0  0  0  0  0  0  # atno 20721 bound_to 17540
  -32.4934   18.2336  -23.2192 LP  0  0  0  0  0  0  0  0  0  0  0  0  # atno 20724 bound_to 6277
  -30.9891   17.5039  -22.7668 LP  0  0  0  0  0  0  0  0  0  0  0  0  # atno 20725 bound_to 6277
  -35.2373   15.2234  -24.3713 LP  0  0  0  0  0  0  0  0  0  0  0  0  # atno 20726 bound_to 6500
  -38.1989   16.5803  -26.9148 LP  0  0  0  0  0  0  0  0  0  0  0  0  # atno 20727 bound_to 15687
  -36.5782   15.9798  -27.0265 LP  0  0  0  0  0  0  0  0  0  0  0  0  # atno 20728 bound_to 15687
  -37.4042   24.2787  -27.8119 LP  0  0  0  0  0  0  0  0  0  0  0  0  # atno 20729 bound_to 17724
  -39.1303   22.5651  -29.9022 LP  0  0  0  0  0  0  0  0  0  0  0  0  # atno 20730 bound_to 17543
  -38.6109   24.1156  -30.4731 LP  0  0  0  0  0  0  0  0  0  0  0  0  # atno 20731 bound_to 17543
  -35.5614   24.3154  -28.4063 LP  0  0  0  0  0  0  0  0  0  0  0  0  # atno 20732 bound_to 17814

> <Gold.Score>
     Fitness  S(hb_ext) S(vdw_ext)  S(hb_int)    S(int)      intcor
     44.57       6.35      28.65       0.00      -1.18      -0.78

> <Gold.Goldscore.Fitness>
44.5682

> <Gold.Goldscore.Internal.Vdw>
-1.4792

> <Gold.Goldscore.Internal.Torsion>
-0.4834

> <Gold.Goldscore.External.Vdw>
28.6502

> <Gold.Goldscore.Internal.HBond>
0.0000

> <Gold.Goldscore.External.HBond>
6.3529

> <Gold.Goldscore.Internal.Correction>
-0.7838

> <Gold.Goldscore.Hbonds>
donor molecule, donor type, donor heavy atom, donor atom, acceptor molecule, acceptor atom, score
      P1  H 17540 17658       L1     9  0.15
      L1  H     8    22       P1  6376  1.00
      L1  H    10    23       P1 11805  0.03

> <Gold.Goldscore.Internal.Vdw.Weighted>
-1.4792

> <Gold.Goldscore.Internal.Torsion.Weighted>
-0.4834

> <Gold.Goldscore.External.Vdw.Weighted>
39.3940

> <Gold.Goldscore.Internal.HBond.Weighted>
0.0000

> <Gold.Goldscore.External.HBond.Weighted>
6.3529

> <Gold.Goldscore.Internal.Correction.Weighted>
-0.7838

> <Gold.Rescore>
     Score     S(PLP)   S(hbond)     S(cho)   S(metal)  DE(clash)   DE(tors)     intcor
     32.53     -31.05       1.00       0.00       0.00       1.20       0.16       ----

> <Gold.PLP.Fitness>
32.5279

> <Gold.PLP.PLP>
-31.0474

> <Gold.PLP.part.hbond>
-2.7440

> <Gold.PLP.part.metal>
0.0000

> <Gold.PLP.part.buried>
0.8030

> <Gold.PLP.part.nonpolar>
-31.2974

> <Gold.PLP.part.repulsive>
1.0417

> <Gold.PLP.ligand.clash>
1.2003

> <Gold.PLP.ligand.torsion>
0.1596

> <Gold.PLP.Chemscore.Hbond>
1.0000

> <Gold.PLP.Chemscore.CHOScore>
0.0000

> <Gold.PLP.Chemscore.Metal>
0.0000

> <Gold.Chemscore.Hbonds>
donor molecule, donor type, donor heavy atom, donor atom, acceptor molecule, acceptor atom, score
      L1  H     8    22       P1  6376  0.55

> <Gold.PLP.Chemscore.Internal.Correction>
   9.000000E+99

