#       Name:                CT1002167954
#       Creating user name   hitesit
#       Creation time:       Sun Apr 16 02:23:11 2023


#       File generated by GOLD software.
#

@<TRIPOS>MOLECULE
CT1002167954|ligand_prepared|mol2|1|dock10
    29    30     1
SMALL
NO_CHARGES


@<TRIPOS>ATOM
      1 C1         -37.5361  21.6046 -18.3744 C.3            1 RES1               0.0000
      2 C2         -37.9641  21.5100 -19.8531 C.ar           1 RES1               0.0000
      3 C3         -37.9756  20.2998 -17.7168 C.2            1 RES1               0.0000
      4 C4         -36.0268  21.8207 -18.3802 C.2            1 RES1               0.0000
      5 C5         -38.1845  22.7825 -17.6104 C.3            1 RES1               0.0000
      6 C6         -37.6951  20.3648 -20.5968 C.ar           1 RES1               0.0000
      7 C7         -38.6298  22.5566 -20.4855 C.ar           1 RES1               0.0000
      8 N8         -37.0083  19.3870 -17.4151 N.am           1 RES1               0.0000
      9 O9         -39.1572  20.0587 -17.5023 O.2            1 RES1               0.0000
     10 N10        -35.2344  20.8312 -17.8599 N.am           1 RES1               0.0000
     11 O11        -35.5156  22.8318 -18.8457 O.2            1 RES1               0.0000
     12 C12        -37.9194  22.7623 -16.1133 C.3            1 RES1               0.0000
     13 C13        -38.0803  20.2683 -21.9237 C.ar           1 RES1               0.0000
     14 C14        -39.0140  22.4581 -21.8126 C.ar           1 RES1               0.0000
     15 C15        -35.6549  19.6109 -17.4057 C.2            1 RES1               0.0000
     16 C16        -38.7403  21.3145 -22.5323 C.ar           1 RES1               0.0000
     17 O17        -34.8764  18.7513 -17.0031 O.2            1 RES1               0.0000
     18 H18        -37.8030  23.7243 -18.0239 H              1 RES1               0.0000
     19 H19        -39.2684  22.7577 -17.7774 H              1 RES1               0.0000
     20 H20        -37.1745  19.5322 -20.1355 H              1 RES1               0.0000
     21 H21        -38.8547  23.4664 -19.9391 H              1 RES1               0.0000
     22 H22        -37.3199  18.4515 -17.1744 H              1 RES1               0.0000
     23 H23        -34.2389  21.0219 -17.8061 H              1 RES1               0.0000
     24 H24        -38.3964  23.6099 -15.6256 H              1 RES1               0.0000
     25 H25        -38.3084  21.8505 -15.6649 H              1 RES1               0.0000
     26 H26        -36.8517  22.8113 -15.9099 H              1 RES1               0.0000
     27 H27        -37.8614  19.3666 -22.4861 H              1 RES1               0.0000
     28 H28        -39.5326  23.2842 -22.2877 H              1 RES1               0.0000
     29 H29        -39.0423  21.2385 -23.5716 H              1 RES1               0.0000
@<TRIPOS>BOND
    1    1    2 1     
    2    1    3 1     
    3    1    4 1     
    4    1    5 1     
    5    2    6 ar    
    6    2    7 ar    
    7    3    8 1     
    8    3    9 2     
    9    4   10 1     
   10    4   11 2     
   11    5   12 1     
   12    5   18 1     
   13    5   19 1     
   14    6   13 ar    
   15    6   20 1     
   16    7   14 ar    
   17    7   21 1     
   18    8   15 1     
   19    8   22 1     
   20   10   15 1     
   21   10   23 1     
   22   12   24 1     
   23   12   25 1     
   24   12   26 1     
   25   13   16 ar    
   26   13   27 1     
   27   14   16 ar    
   28   14   28 1     
   29   15   17 2     
   30   16   29 1     
@<TRIPOS>SUBSTRUCTURE
      1 RES1           1
@<TRIPOS>SET
DONOR_HYDROGENS      STATIC     ATOMS    <user>   **** ""
2 22 23
ATOM$RED        STATIC     ATOMS    COLORGROUP SYSTEM
2 22 23
@<TRIPOS>COMMENT
> <Gold.Version>
2022.3.0

> <Gold.Id.Protein>
unknown|7ta6_clean|pdb

> <Gold.Protein.RotatedTorsions>
[ 10564 10443 10442 10441 ] final   83.72 input   60.01 | X-H torsion
[ 11622 11535 11534 11532 ] final  112.26 input   60.01 | X-H torsion
[ 11975 11916 11917 11918 ] final -125.59 input   43.11 | X-H torsion
[ 12166 12076 12077 12078 ] final -105.47 input   60.03 | X-H torsion
[ 12306 12236 12237 12238 ] final  -19.83 input   49.55 | X-H torsion
[ 16043 15965 15964 15962 ] final   88.86 input   60.00 | X-H torsion
[ 17235 17166 17170 17167 ] final -107.45 input   60.00 | X-H torsion
[ 17240 17169 17168 17167 ] final   68.51 input   59.99 | X-H torsion
[ 17396 17326 17327 17328 ] final  -81.02 input   75.34 | X-H torsion
[ 17505 17474 17475 17476 ] final  102.35 input  132.66 | X-H torsion
[ 17658 17540 17541 17542 ] final   73.10 input  113.35 | X-H torsion
[ 6542 6500 6501 6502 ] final  -63.07 input   50.41 | X-H torsion
[ 17776 17724 17725 17726 ] final -135.77 input  117.84 | X-H torsion
[ 17892 17814 17815 17816 ] final -137.98 input  119.80 | X-H torsion
[ 12567 12491 12492 12493 ] final   46.84 input   85.07 | X-H torsion
[ 17998 17962 17963 17964 ] final   61.09 input  125.49 | X-H torsion
[ 20694 6503 6502 6501 ] final    4.76 input    0.00 | X-H torsion
[ 20698 11689 11688 11687 ] final  -51.16 input    0.00 | X-H torsion
[ 20701 11805 11804 11803 ] final   87.84 input    0.00 | X-H torsion
[ 20704 11919 11918 11917 ] final   57.64 input    0.00 | X-H torsion
[ 20707 12079 12078 12077 ] final  -92.87 input    0.00 | X-H torsion
[ 20716 17329 17328 17327 ] final   61.45 input    0.00 | X-H torsion
[ 20719 17477 17476 17475 ] final  139.82 input    0.00 | X-H torsion
[ 20724 6277 6276 6275 ] final  112.40 input    0.00 | X-H torsion
[ 20727 15687 15686 15685 ] final -114.97 input    0.00 | X-H torsion
[ 20730 17543 17542 17541 ] final  116.62 input    0.00 | X-H torsion

> <Gold.Protein.ActiveResidues>
 TRP28   LEU55   SER60   GLN61   VAL62   LEU63   LYS98   TYR115  GLU116  PRO117 
 ILE118  TYR119  LEU120  VAL123  GLN149  TYR151  LEU157  XCP1    LEU2    GLY3   
 TRP4    CYS5    ILE6    GLY7   

> <Gold.Protein.RotatedAtoms>
  -35.6739   15.4540  -24.0840 H   0  0  0  0  0  0  0  0  0  0  0  0  # atno 6542 bound_to 6500
  -37.9640   19.5012  -14.2842 H   0  0  0  0  0  0  0  0  0  0  0  0  # atno 10564 bound_to 10443
  -36.4882   19.2885  -15.0097 H   0  0  0  0  0  0  0  0  0  0  0  0  # atno 10565 bound_to 10443
  -37.6366   18.0961  -15.1023 H   0  0  0  0  0  0  0  0  0  0  0  0  # atno 10566 bound_to 10443
  -44.5690   19.9027  -20.0474 H   0  0  0  0  0  0  0  0  0  0  0  0  # atno 11622 bound_to 11535
  -38.2761   16.9449  -19.3720 H   0  0  0  0  0  0  0  0  0  0  0  0  # atno 11975 bound_to 11916
  -34.9068   17.5491  -20.2207 H   0  0  0  0  0  0  0  0  0  0  0  0  # atno 12166 bound_to 12076
  -31.7007   19.8002  -21.7487 H   0  0  0  0  0  0  0  0  0  0  0  0  # atno 12306 bound_to 12236
  -47.9423   23.5200  -20.7697 H   0  0  0  0  0  0  0  0  0  0  0  0  # atno 12567 bound_to 12491
  -34.0509   21.5092  -27.2950 H   0  0  0  0  0  0  0  0  0  0  0  0  # atno 16043 bound_to 15965
  -37.1894   26.1727  -21.0617 H   0  0  0  0  0  0  0  0  0  0  0  0  # atno 17235 bound_to 17166
  -37.7050   27.7277  -21.3130 H   0  0  0  0  0  0  0  0  0  0  0  0  # atno 17236 bound_to 17166
  -38.6308   27.0029  -25.9701 H   0  0  0  0  0  0  0  0  0  0  0  0  # atno 17240 bound_to 17169
  -37.3709   27.2489  -24.5545 H   0  0  0  0  0  0  0  0  0  0  0  0  # atno 17396 bound_to 17326
  -36.6604   24.4827  -23.7375 H   0  0  0  0  0  0  0  0  0  0  0  0  # atno 17505 bound_to 17474
  -38.3125   23.9896  -25.6657 H   0  0  0  0  0  0  0  0  0  0  0  0  # atno 17658 bound_to 17540
  -38.9701   24.9689  -28.0996 H   0  0  0  0  0  0  0  0  0  0  0  0  # atno 17776 bound_to 17724
  -35.3443   25.4471  -29.3497 H   0  0  0  0  0  0  0  0  0  0  0  0  # atno 17892 bound_to 17814
  -36.4286   22.5624  -29.9917 H   0  0  0  0  0  0  0  0  0  0  0  0  # atno 17998 bound_to 17962
  -36.8544   15.2385  -21.9091 LP  0  0  0  0  0  0  0  0  0  0  0  0  # atno 20694 bound_to 6503
  -38.4888   14.7189  -21.6667 LP  0  0  0  0  0  0  0  0  0  0  0  0  # atno 20695 bound_to 6503
  -46.1679   20.1123  -20.2637 LP  0  0  0  0  0  0  0  0  0  0  0  0  # atno 20696 bound_to 11535
  -45.1920   19.8690  -21.5502 LP  0  0  0  0  0  0  0  0  0  0  0  0  # atno 20697 bound_to 11535
  -40.2577   13.4935  -18.4830 LP  0  0  0  0  0  0  0  0  0  0  0  0  # atno 20698 bound_to 11689
  -40.5381   14.0183  -20.1096 LP  0  0  0  0  0  0  0  0  0  0  0  0  # atno 20699 bound_to 11689
  -38.7186   16.6787  -17.2558 LP  0  0  0  0  0  0  0  0  0  0  0  0  # atno 20701 bound_to 11805
  -38.5646   18.2864  -17.8817 LP  0  0  0  0  0  0  0  0  0  0  0  0  # atno 20702 bound_to 11805
  -37.5451   15.9323  -20.5985 LP  0  0  0  0  0  0  0  0  0  0  0  0  # atno 20703 bound_to 11916
  -35.8304   16.3892  -21.9135 LP  0  0  0  0  0  0  0  0  0  0  0  0  # atno 20704 bound_to 11919
  -34.1246   16.4274  -21.6151 LP  0  0  0  0  0  0  0  0  0  0  0  0  # atno 20705 bound_to 11919
  -35.1636   19.0867  -19.4198 LP  0  0  0  0  0  0  0  0  0  0  0  0  # atno 20706 bound_to 12076
  -32.4196   20.7778  -18.9313 LP  0  0  0  0  0  0  0  0  0  0  0  0  # atno 20707 bound_to 12079
  -32.4804   19.1345  -18.3873 LP  0  0  0  0  0  0  0  0  0  0  0  0  # atno 20708 bound_to 12079
  -31.8856   18.4528  -20.6457 LP  0  0  0  0  0  0  0  0  0  0  0  0  # atno 20709 bound_to 12236
  -33.4599   20.6467  -26.0484 LP  0  0  0  0  0  0  0  0  0  0  0  0  # atno 20710 bound_to 15965
  -35.0542   20.5951  -26.3979 LP  0  0  0  0  0  0  0  0  0  0  0  0  # atno 20711 bound_to 15965
  -38.4274   26.7898  -20.1709 LP  0  0  0  0  0  0  0  0  0  0  0  0  # atno 20712 bound_to 17166
  -38.9240   25.5709  -25.2547 LP  0  0  0  0  0  0  0  0  0  0  0  0  # atno 20713 bound_to 17169
  -37.4341   25.9087  -25.8316 LP  0  0  0  0  0  0  0  0  0  0  0  0  # atno 20714 bound_to 17169
  -36.7307   26.8643  -22.9131 LP  0  0  0  0  0  0  0  0  0  0  0  0  # atno 20715 bound_to 17326
  -34.6162   25.0832  -26.9317 LP  0  0  0  0  0  0  0  0  0  0  0  0  # atno 20716 bound_to 17329
  -36.2692   24.6051  -27.1296 LP  0  0  0  0  0  0  0  0  0  0  0  0  # atno 20717 bound_to 17329
  -35.4255   24.7370  -24.9497 LP  0  0  0  0  0  0  0  0  0  0  0  0  # atno 20718 bound_to 17474
  -37.1482   21.4787  -27.7821 LP  0  0  0  0  0  0  0  0  0  0  0  0  # atno 20719 bound_to 17477
  -35.6326   22.2567  -27.4698 LP  0  0  0  0  0  0  0  0  0  0  0  0  # atno 20720 bound_to 17477
  -37.7306   22.3675  -25.9429 LP  0  0  0  0  0  0  0  0  0  0  0  0  # atno 20721 bound_to 17540
  -32.2152   18.4980  -23.3527 LP  0  0  0  0  0  0  0  0  0  0  0  0  # atno 20724 bound_to 6277
  -31.2673   17.2395  -22.6333 LP  0  0  0  0  0  0  0  0  0  0  0  0  # atno 20725 bound_to 6277
  -34.4726   14.7639  -23.0123 LP  0  0  0  0  0  0  0  0  0  0  0  0  # atno 20726 bound_to 6500
  -36.5416   16.2865  -27.1514 LP  0  0  0  0  0  0  0  0  0  0  0  0  # atno 20727 bound_to 15687
  -38.2355   16.2737  -26.7900 LP  0  0  0  0  0  0  0  0  0  0  0  0  # atno 20728 bound_to 15687
  -37.3660   24.4203  -27.6783 LP  0  0  0  0  0  0  0  0  0  0  0  0  # atno 20729 bound_to 17724
  -39.3437   24.0493  -30.3408 LP  0  0  0  0  0  0  0  0  0  0  0  0  # atno 20730 bound_to 17543
  -38.3975   22.6313  -30.0345 LP  0  0  0  0  0  0  0  0  0  0  0  0  # atno 20731 bound_to 17543
  -36.1727   23.9570  -28.9672 LP  0  0  0  0  0  0  0  0  0  0  0  0  # atno 20732 bound_to 17814

> <Gold.Score>
     Fitness  S(hb_ext) S(vdw_ext)  S(hb_int)    S(int)      intcor
     35.91       0.18      26.05       0.00      -0.09      -0.77

> <Gold.Goldscore.Fitness>
35.9101

> <Gold.Goldscore.Internal.Vdw>
-0.3756

> <Gold.Goldscore.Internal.Torsion>
-0.4754

> <Gold.Goldscore.External.Vdw>
26.0504

> <Gold.Goldscore.Internal.HBond>
0.0000

> <Gold.Goldscore.External.HBond>
0.1765

> <Gold.Goldscore.Internal.Correction>
-0.7653

> <Gold.Goldscore.Hbonds>
donor molecule, donor type, donor heavy atom, donor atom, acceptor molecule, acceptor atom, score
      L1  H     8    22       P1 11805  0.09

> <Gold.Goldscore.Internal.Vdw.Weighted>
-0.3756

> <Gold.Goldscore.Internal.Torsion.Weighted>
-0.4754

> <Gold.Goldscore.External.Vdw.Weighted>
35.8193

> <Gold.Goldscore.Internal.HBond.Weighted>
0.0000

> <Gold.Goldscore.External.HBond.Weighted>
0.1765

> <Gold.Goldscore.Internal.Correction.Weighted>
-0.7653

> <Gold.Rescore>
     Score     S(PLP)   S(hbond)     S(cho)   S(metal)  DE(clash)   DE(tors)     intcor
     33.99     -30.84       1.19       0.00       0.00       0.00       0.21       ----

> <Gold.PLP.Fitness>
33.9905

> <Gold.PLP.PLP>
-30.8435

> <Gold.PLP.part.hbond>
-2.3184

> <Gold.PLP.part.metal>
0.0000

> <Gold.PLP.part.buried>
2.7598

> <Gold.PLP.part.nonpolar>
-33.1800

> <Gold.PLP.part.repulsive>
1.4974

> <Gold.PLP.ligand.clash>
0.0000

> <Gold.PLP.ligand.torsion>
0.2107

> <Gold.PLP.Chemscore.Hbond>
1.1895

> <Gold.PLP.Chemscore.CHOScore>
0.0000

> <Gold.PLP.Chemscore.Metal>
0.0000

> <Gold.Chemscore.Hbonds>
donor molecule, donor type, donor heavy atom, donor atom, acceptor molecule, acceptor atom, score
      L1  H     8    22       P1 11805  0.61

> <Gold.PLP.Chemscore.Internal.Correction>
   9.000000E+99

