@<TRIPOS>MOLECULE
K:EDO102
    10     9     1     0     1
SMALL
NO_CHARGES
****
Generated from the CSD

@<TRIPOS>ATOM
     1 C1     -23.7610  30.5990   5.9200   C.3       1 EDO102   0.0000
     2 O1     -24.6120  31.5140   6.6250   O.3       1 EDO102   0.0000
     3 C2     -24.6110  29.6640   5.0640   C.3       1 EDO102   0.0000
     4 O2     -25.4430  30.4370   4.1890   O.3       1 EDO102   0.0000
     5 H1     -24.8730  30.9972   3.5996   H         1 EDO102   0.0000
     6 H2     -23.1870  30.0129   6.6362   H         1 EDO102   0.0000
     7 H3     -23.0801  31.1577   5.2796   H         1 EDO102   0.0000
     8 H4     -25.2365  29.0496   5.7099   H         1 EDO102   0.0000
     9 H5     -23.9600  29.0224   4.4721   H         1 EDO102   0.0000
    10 H6     -25.2329  31.0052   7.2095   H         1 EDO102   0.0000
@<TRIPOS>BOND
     1     1     2    1
     2     1     3    1
     3     3     4    1
     4     4     5    1
     5     1     6    1
     6     1     7    1
     7     3     8    1
     8     3     9    1
     9     2    10    1
@<TRIPOS>SUBSTRUCTURE
     1 EDO102      1 GROUP             0 K     EDO     0  
@<TRIPOS>SET
CCDC_LIGAND STATIC ATOMS
10 1 2 3 4 5 6 7 8 9 \
10 
