#       Name:                GA Fitting Points
#       Creating user name   hitesit
#       Creation time:       Sun Apr 16 02:21:50 2023


#       Fitting Points Used by GA Software.
#

@<TRIPOS>MOLECULE
GA Fitting Points
  9238    0    0
SMALL
NO_CHARGES


@<TRIPOS>ATOM
      1 ****       115.5000 244.2500 362.0000 Du        
      2 ****       115.5000 244.5000 362.0000 Du        
      3 ****       115.5000 244.5000 362.2500 Du        
      4 ****       115.5000 244.7500 362.0000 Du        
      5 ****       115.5000 244.7500 362.2500 Du        
      6 ****       115.5000 245.0000 362.0000 Du        
      7 ****       115.5000 245.0000 362.2500 Du        
      8 ****       115.5000 245.0000 362.5000 Du        
      9 ****       115.5000 245.2500 362.2500 Du        
     10 ****       115.5000 245.2500 362.5000 Du        
     11 ****       115.5000 245.5000 362.2500 Du        
     12 ****       115.5000 245.5000 362.5000 Du        
     13 ****       115.5000 245.5000 362.7500 Du        
     14 ****       115.5000 245.7500 362.2500 Du        
     15 ****       115.5000 245.7500 362.5000 Du        
     16 ****       115.5000 245.7500 362.7500 Du        
     17 ****       115.5000 245.7500 363.0000 Du        
     18 ****       115.5000 246.0000 362.5000 Du        
     19 ****       115.5000 246.0000 362.7500 Du        
     20 ****       115.5000 246.0000 363.0000 Du        
     21 ****       115.5000 246.2500 362.5000 Du        
     22 ****       115.5000 246.2500 362.7500 Du        
     23 ****       115.5000 246.2500 363.0000 Du        
     24 ****       115.5000 246.2500 363.2500 Du        
     25 ****       115.5000 246.5000 362.7500 Du        
     26 ****       115.5000 246.5000 363.0000 Du        
     27 ****       115.5000 246.5000 363.2500 Du        
     28 ****       115.5000 246.5000 363.5000 Du        
     29 ****       115.5000 246.7500 362.7500 Du        
     30 ****       115.5000 246.7500 363.0000 Du        
     31 ****       115.5000 246.7500 363.2500 Du        
     32 ****       115.5000 246.7500 363.5000 Du        
     33 ****       115.5000 247.0000 363.0000 Du        
     34 ****       115.5000 247.0000 363.2500 Du        
     35 ****       115.5000 247.0000 363.5000 Du        
     36 ****       115.5000 247.0000 363.7500 Du        
     37 ****       115.7500 244.0000 361.2500 Du        
     38 ****       115.7500 244.0000 361.5000 Du        
     39 ****       115.7500 244.0000 361.7500 Du        
     40 ****       115.7500 244.2500 361.2500 Du        
     41 ****       115.7500 244.2500 361.5000 Du        
     42 ****       115.7500 244.2500 361.7500 Du        
     43 ****       115.7500 244.2500 362.0000 Du        
     44 ****       115.7500 244.5000 361.2500 Du        
     45 ****       115.7500 244.5000 361.5000 Du        
     46 ****       115.7500 244.5000 361.7500 Du        
     47 ****       115.7500 244.5000 362.0000 Du        
     48 ****       115.7500 244.5000 362.2500 Du        
     49 ****       115.7500 244.7500 361.2500 Du        
     50 ****       115.7500 244.7500 361.5000 Du        
     51 ****       115.7500 244.7500 361.7500 Du        
     52 ****       115.7500 244.7500 362.0000 Du        
     53 ****       115.7500 244.7500 362.2500 Du        
     54 ****       115.7500 244.7500 362.5000 Du        
     55 ****       115.7500 245.0000 361.5000 Du        
     56 ****       115.7500 245.0000 361.7500 Du        
     57 ****       115.7500 245.0000 362.0000 Du        
     58 ****       115.7500 245.0000 362.2500 Du        
     59 ****       115.7500 245.0000 362.5000 Du        
     60 ****       115.7500 245.0000 362.7500 Du        
     61 ****       115.7500 245.2500 361.5000 Du        
     62 ****       115.7500 245.2500 361.7500 Du        
     63 ****       115.7500 245.2500 362.0000 Du        
     64 ****       115.7500 245.2500 362.2500 Du        
     65 ****       115.7500 245.2500 362.5000 Du        
     66 ****       115.7500 245.2500 362.7500 Du        
     67 ****       115.7500 245.5000 361.7500 Du        
     68 ****       115.7500 245.5000 362.0000 Du        
     69 ****       115.7500 245.5000 362.2500 Du        
     70 ****       115.7500 245.5000 362.5000 Du        
     71 ****       115.7500 245.5000 362.7500 Du        
     72 ****       115.7500 245.5000 363.0000 Du        
     73 ****       115.7500 245.7500 361.7500 Du        
     74 ****       115.7500 245.7500 362.0000 Du        
     75 ****       115.7500 245.7500 362.2500 Du        
     76 ****       115.7500 245.7500 362.5000 Du        
     77 ****       115.7500 245.7500 362.7500 Du        
     78 ****       115.7500 245.7500 363.0000 Du        
     79 ****       115.7500 246.0000 361.7500 Du        
     80 ****       115.7500 246.0000 362.0000 Du        
     81 ****       115.7500 246.0000 362.2500 Du        
     82 ****       115.7500 246.0000 362.5000 Du        
     83 ****       115.7500 246.0000 362.7500 Du        
     84 ****       115.7500 246.0000 363.0000 Du        
     85 ****       115.7500 246.0000 363.2500 Du        
     86 ****       115.7500 246.2500 361.5000 Du        
     87 ****       115.7500 246.2500 361.7500 Du        
     88 ****       115.7500 246.2500 362.0000 Du        
     89 ****       115.7500 246.2500 362.2500 Du        
     90 ****       115.7500 246.2500 362.5000 Du        
     91 ****       115.7500 246.2500 362.7500 Du        
     92 ****       115.7500 246.2500 363.0000 Du        
     93 ****       115.7500 246.2500 363.2500 Du        
     94 ****       115.7500 246.2500 363.5000 Du        
     95 ****       115.7500 246.5000 361.7500 Du        
     96 ****       115.7500 246.5000 362.0000 Du        
     97 ****       115.7500 246.5000 362.2500 Du        
     98 ****       115.7500 246.5000 362.5000 Du        
     99 ****       115.7500 246.5000 362.7500 Du        
    100 ****       115.7500 246.5000 363.0000 Du        
    101 ****       115.7500 246.5000 363.2500 Du        
    102 ****       115.7500 246.5000 363.5000 Du        
    103 ****       115.7500 246.7500 361.7500 Du        
    104 ****       115.7500 246.7500 362.0000 Du        
    105 ****       115.7500 246.7500 362.2500 Du        
    106 ****       115.7500 246.7500 362.5000 Du        
    107 ****       115.7500 246.7500 362.7500 Du        
    108 ****       115.7500 246.7500 363.0000 Du        
    109 ****       115.7500 246.7500 363.2500 Du        
    110 ****       115.7500 246.7500 363.5000 Du        
    111 ****       115.7500 246.7500 363.7500 Du        
    112 ****       115.7500 247.0000 362.0000 Du        
    113 ****       115.7500 247.0000 362.2500 Du        
    114 ****       115.7500 247.0000 362.5000 Du        
    115 ****       115.7500 247.0000 362.7500 Du        
    116 ****       115.7500 247.0000 363.0000 Du        
    117 ****       115.7500 247.0000 363.2500 Du        
    118 ****       115.7500 247.0000 363.5000 Du        
    119 ****       115.7500 247.0000 363.7500 Du        
    120 ****       115.7500 247.2500 362.2500 Du        
    121 ****       115.7500 247.2500 362.5000 Du        
    122 ****       115.7500 247.2500 362.7500 Du        
    123 ****       115.7500 247.2500 363.0000 Du        
    124 ****       115.7500 247.2500 363.2500 Du        
    125 ****       115.7500 247.2500 363.5000 Du        
    126 ****       115.7500 247.5000 362.7500 Du        
    127 ****       115.7500 247.5000 363.0000 Du        
    128 ****       116.0000 243.7500 360.5000 Du        
    129 ****       116.0000 243.7500 360.7500 Du        
    130 ****       116.0000 243.7500 361.0000 Du        
    131 ****       116.0000 243.7500 361.2500 Du        
    132 ****       116.0000 244.0000 360.5000 Du        
    133 ****       116.0000 244.0000 360.7500 Du        
    134 ****       116.0000 244.0000 361.0000 Du        
    135 ****       116.0000 244.0000 361.2500 Du        
    136 ****       116.0000 244.0000 361.5000 Du        
    137 ****       116.0000 244.0000 361.7500 Du        
    138 ****       116.0000 244.2500 360.7500 Du        
    139 ****       116.0000 244.2500 361.0000 Du        
    140 ****       116.0000 244.2500 361.2500 Du        
    141 ****       116.0000 244.2500 361.5000 Du        
    142 ****       116.0000 244.2500 361.7500 Du        
    143 ****       116.0000 244.2500 362.0000 Du        
    144 ****       116.0000 244.5000 360.7500 Du        
    145 ****       116.0000 244.5000 361.0000 Du        
    146 ****       116.0000 244.5000 361.2500 Du        
    147 ****       116.0000 244.5000 361.5000 Du        
    148 ****       116.0000 244.5000 361.7500 Du        
    149 ****       116.0000 244.5000 362.0000 Du        
    150 ****       116.0000 244.5000 362.2500 Du        
    151 ****       116.0000 244.7500 360.7500 Du        
    152 ****       116.0000 244.7500 361.0000 Du        
    153 ****       116.0000 244.7500 361.2500 Du        
    154 ****       116.0000 244.7500 361.5000 Du        
    155 ****       116.0000 244.7500 361.7500 Du        
    156 ****       116.0000 244.7500 362.0000 Du        
    157 ****       116.0000 244.7500 362.2500 Du        
    158 ****       116.0000 244.7500 362.5000 Du        
    159 ****       116.0000 245.0000 361.0000 Du        
    160 ****       116.0000 245.0000 361.2500 Du        
    161 ****       116.0000 245.0000 361.5000 Du        
    162 ****       116.0000 245.0000 361.7500 Du        
    163 ****       116.0000 245.0000 362.0000 Du        
    164 ****       116.0000 245.0000 362.2500 Du        
    165 ****       116.0000 245.0000 362.5000 Du        
    166 ****       116.0000 245.0000 362.7500 Du        
    167 ****       116.0000 245.2500 361.0000 Du        
    168 ****       116.0000 245.2500 361.2500 Du        
    169 ****       116.0000 245.2500 361.5000 Du        
    170 ****       116.0000 245.2500 361.7500 Du        
    171 ****       116.0000 245.2500 362.0000 Du        
    172 ****       116.0000 245.2500 362.2500 Du        
    173 ****       116.0000 245.2500 362.5000 Du        
    174 ****       116.0000 245.2500 362.7500 Du        
    175 ****       116.0000 245.5000 361.0000 Du        
    176 ****       116.0000 245.5000 361.2500 Du        
    177 ****       116.0000 245.5000 361.5000 Du        
    178 ****       116.0000 245.5000 361.7500 Du        
    179 ****       116.0000 245.5000 362.0000 Du        
    180 ****       116.0000 245.5000 362.2500 Du        
    181 ****       116.0000 245.5000 362.5000 Du        
    182 ****       116.0000 245.5000 362.7500 Du        
    183 ****       116.0000 245.5000 363.0000 Du        
    184 ****       116.0000 245.7500 361.0000 Du        
    185 ****       116.0000 245.7500 361.2500 Du        
    186 ****       116.0000 245.7500 361.5000 Du        
    187 ****       116.0000 245.7500 361.7500 Du        
    188 ****       116.0000 245.7500 362.0000 Du        
    189 ****       116.0000 245.7500 362.2500 Du        
    190 ****       116.0000 245.7500 362.5000 Du        
    191 ****       116.0000 245.7500 362.7500 Du        
    192 ****       116.0000 245.7500 363.0000 Du        
    193 ****       116.0000 245.7500 363.2500 Du        
    194 ****       116.0000 246.0000 361.0000 Du        
    195 ****       116.0000 246.0000 361.2500 Du        
    196 ****       116.0000 246.0000 361.5000 Du        
    197 ****       116.0000 246.0000 361.7500 Du        
    198 ****       116.0000 246.0000 362.0000 Du        
    199 ****       116.0000 246.0000 362.2500 Du        
    200 ****       116.0000 246.0000 362.5000 Du        
    201 ****       116.0000 246.0000 362.7500 Du        
    202 ****       116.0000 246.0000 363.0000 Du        
    203 ****       116.0000 246.0000 363.2500 Du        
    204 ****       116.0000 246.2500 361.0000 Du        
    205 ****       116.0000 246.2500 361.2500 Du        
    206 ****       116.0000 246.2500 361.5000 Du        
    207 ****       116.0000 246.2500 361.7500 Du        
    208 ****       116.0000 246.2500 362.0000 Du        
    209 ****       116.0000 246.2500 362.2500 Du        
    210 ****       116.0000 246.2500 362.5000 Du        
    211 ****       116.0000 246.2500 362.7500 Du        
    212 ****       116.0000 246.2500 363.0000 Du        
    213 ****       116.0000 246.2500 363.2500 Du        
    214 ****       116.0000 246.2500 363.5000 Du        
    215 ****       116.0000 246.5000 360.7500 Du        
    216 ****       116.0000 246.5000 361.0000 Du        
    217 ****       116.0000 246.5000 361.2500 Du        
    218 ****       116.0000 246.5000 361.5000 Du        
    219 ****       116.0000 246.5000 361.7500 Du        
    220 ****       116.0000 246.5000 362.0000 Du        
    221 ****       116.0000 246.5000 362.2500 Du        
    222 ****       116.0000 246.5000 362.5000 Du        
    223 ****       116.0000 246.5000 362.7500 Du        
    224 ****       116.0000 246.5000 363.0000 Du        
    225 ****       116.0000 246.5000 363.2500 Du        
    226 ****       116.0000 246.5000 363.5000 Du        
    227 ****       116.0000 246.7500 360.7500 Du        
    228 ****       116.0000 246.7500 361.0000 Du        
    229 ****       116.0000 246.7500 361.2500 Du        
    230 ****       116.0000 246.7500 361.5000 Du        
    231 ****       116.0000 246.7500 361.7500 Du        
    232 ****       116.0000 246.7500 362.0000 Du        
    233 ****       116.0000 246.7500 362.2500 Du        
    234 ****       116.0000 246.7500 362.5000 Du        
    235 ****       116.0000 246.7500 362.7500 Du        
    236 ****       116.0000 246.7500 363.0000 Du        
    237 ****       116.0000 246.7500 363.2500 Du        
    238 ****       116.0000 246.7500 363.5000 Du        
    239 ****       116.0000 246.7500 363.7500 Du        
    240 ****       116.0000 247.0000 360.7500 Du        
    241 ****       116.0000 247.0000 361.0000 Du        
    242 ****       116.0000 247.0000 361.2500 Du        
    243 ****       116.0000 247.0000 361.5000 Du        
    244 ****       116.0000 247.0000 361.7500 Du        
    245 ****       116.0000 247.0000 362.0000 Du        
    246 ****       116.0000 247.0000 362.2500 Du        
    247 ****       116.0000 247.0000 362.5000 Du        
    248 ****       116.0000 247.0000 362.7500 Du        
    249 ****       116.0000 247.0000 363.0000 Du        
    250 ****       116.0000 247.0000 363.2500 Du        
    251 ****       116.0000 247.0000 363.5000 Du        
    252 ****       116.0000 247.0000 363.7500 Du        
    253 ****       116.0000 247.2500 360.7500 Du        
    254 ****       116.0000 247.2500 361.0000 Du        
    255 ****       116.0000 247.2500 361.2500 Du        
    256 ****       116.0000 247.2500 361.5000 Du        
    257 ****       116.0000 247.2500 361.7500 Du        
    258 ****       116.0000 247.2500 362.0000 Du        
    259 ****       116.0000 247.2500 362.2500 Du        
    260 ****       116.0000 247.2500 362.5000 Du        
    261 ****       116.0000 247.2500 362.7500 Du        
    262 ****       116.0000 247.2500 363.0000 Du        
    263 ****       116.0000 247.2500 363.2500 Du        
    264 ****       116.0000 247.2500 363.5000 Du        
    265 ****       116.0000 247.2500 363.7500 Du        
    266 ****       116.0000 247.5000 361.5000 Du        
    267 ****       116.0000 247.5000 361.7500 Du        
    268 ****       116.0000 247.5000 362.0000 Du        
    269 ****       116.0000 247.5000 362.2500 Du        
    270 ****       116.0000 247.5000 362.5000 Du        
    271 ****       116.0000 247.5000 362.7500 Du        
    272 ****       116.0000 247.5000 363.0000 Du        
    273 ****       116.0000 247.5000 363.2500 Du        
    274 ****       116.0000 247.7500 361.7500 Du        
    275 ****       116.0000 247.7500 362.0000 Du        
    276 ****       116.0000 247.7500 362.2500 Du        
    277 ****       116.0000 247.7500 362.5000 Du        
    278 ****       116.0000 247.7500 362.7500 Du        
    279 ****       116.2500 243.5000 360.2500 Du        
    280 ****       116.2500 243.5000 360.5000 Du        
    281 ****       116.2500 243.5000 360.7500 Du        
    282 ****       116.2500 243.7500 360.0000 Du        
    283 ****       116.2500 243.7500 360.2500 Du        
    284 ****       116.2500 243.7500 360.5000 Du        
    285 ****       116.2500 243.7500 360.7500 Du        
    286 ****       116.2500 243.7500 361.0000 Du        
    287 ****       116.2500 243.7500 361.2500 Du        
    288 ****       116.2500 244.0000 360.0000 Du        
    289 ****       116.2500 244.0000 360.2500 Du        
    290 ****       116.2500 244.0000 360.5000 Du        
    291 ****       116.2500 244.0000 360.7500 Du        
    292 ****       116.2500 244.0000 361.0000 Du        
    293 ****       116.2500 244.0000 361.2500 Du        
    294 ****       116.2500 244.0000 361.5000 Du        
    295 ****       116.2500 244.2500 360.2500 Du        
    296 ****       116.2500 244.2500 360.5000 Du        
    297 ****       116.2500 244.2500 360.7500 Du        
    298 ****       116.2500 244.2500 361.0000 Du        
    299 ****       116.2500 244.2500 361.2500 Du        
    300 ****       116.2500 244.2500 361.5000 Du        
    301 ****       116.2500 244.2500 361.7500 Du        
    302 ****       116.2500 244.5000 360.2500 Du        
    303 ****       116.2500 244.5000 360.5000 Du        
    304 ****       116.2500 244.5000 360.7500 Du        
    305 ****       116.2500 244.5000 361.0000 Du        
    306 ****       116.2500 244.5000 361.2500 Du        
    307 ****       116.2500 244.5000 361.5000 Du        
    308 ****       116.2500 244.5000 361.7500 Du        
    309 ****       116.2500 244.5000 362.0000 Du        
    310 ****       116.2500 244.7500 360.2500 Du        
    311 ****       116.2500 244.7500 360.5000 Du        
    312 ****       116.2500 244.7500 360.7500 Du        
    313 ****       116.2500 244.7500 361.0000 Du        
    314 ****       116.2500 244.7500 361.2500 Du        
    315 ****       116.2500 244.7500 361.5000 Du        
    316 ****       116.2500 244.7500 361.7500 Du        
    317 ****       116.2500 244.7500 362.0000 Du        
    318 ****       116.2500 244.7500 362.2500 Du        
    319 ****       116.2500 245.0000 360.5000 Du        
    320 ****       116.2500 245.0000 360.7500 Du        
    321 ****       116.2500 245.0000 361.0000 Du        
    322 ****       116.2500 245.0000 361.2500 Du        
    323 ****       116.2500 245.0000 361.5000 Du        
    324 ****       116.2500 245.0000 361.7500 Du        
    325 ****       116.2500 245.0000 362.0000 Du        
    326 ****       116.2500 245.0000 362.2500 Du        
    327 ****       116.2500 245.0000 362.5000 Du        
    328 ****       116.2500 245.2500 360.5000 Du        
    329 ****       116.2500 245.2500 360.7500 Du        
    330 ****       116.2500 245.2500 361.0000 Du        
    331 ****       116.2500 245.2500 361.2500 Du        
    332 ****       116.2500 245.2500 361.5000 Du        
    333 ****       116.2500 245.2500 361.7500 Du        
    334 ****       116.2500 245.2500 362.0000 Du        
    335 ****       116.2500 245.2500 362.2500 Du        
    336 ****       116.2500 245.2500 362.5000 Du        
    337 ****       116.2500 245.2500 362.7500 Du        
    338 ****       116.2500 245.5000 360.5000 Du        
    339 ****       116.2500 245.5000 360.7500 Du        
    340 ****       116.2500 245.5000 361.0000 Du        
    341 ****       116.2500 245.5000 361.2500 Du        
    342 ****       116.2500 245.5000 361.5000 Du        
    343 ****       116.2500 245.5000 361.7500 Du        
    344 ****       116.2500 245.5000 362.0000 Du        
    345 ****       116.2500 245.5000 362.2500 Du        
    346 ****       116.2500 245.5000 362.5000 Du        
    347 ****       116.2500 245.5000 362.7500 Du        
    348 ****       116.2500 245.5000 363.0000 Du        
    349 ****       116.2500 245.7500 360.5000 Du        
    350 ****       116.2500 245.7500 360.7500 Du        
    351 ****       116.2500 245.7500 361.0000 Du        
    352 ****       116.2500 245.7500 361.2500 Du        
    353 ****       116.2500 245.7500 361.5000 Du        
    354 ****       116.2500 245.7500 361.7500 Du        
    355 ****       116.2500 245.7500 362.0000 Du        
    356 ****       116.2500 245.7500 362.2500 Du        
    357 ****       116.2500 245.7500 362.5000 Du        
    358 ****       116.2500 245.7500 362.7500 Du        
    359 ****       116.2500 245.7500 363.0000 Du        
    360 ****       116.2500 245.7500 363.2500 Du        
    361 ****       116.2500 246.0000 360.5000 Du        
    362 ****       116.2500 246.0000 360.7500 Du        
    363 ****       116.2500 246.0000 361.0000 Du        
    364 ****       116.2500 246.0000 361.2500 Du        
    365 ****       116.2500 246.0000 361.5000 Du        
    366 ****       116.2500 246.0000 361.7500 Du        
    367 ****       116.2500 246.0000 362.0000 Du        
    368 ****       116.2500 246.0000 362.2500 Du        
    369 ****       116.2500 246.0000 362.5000 Du        
    370 ****       116.2500 246.0000 362.7500 Du        
    371 ****       116.2500 246.0000 363.0000 Du        
    372 ****       116.2500 246.0000 363.2500 Du        
    373 ****       116.2500 246.2500 360.5000 Du        
    374 ****       116.2500 246.2500 360.7500 Du        
    375 ****       116.2500 246.2500 361.0000 Du        
    376 ****       116.2500 246.2500 361.2500 Du        
    377 ****       116.2500 246.2500 361.5000 Du        
    378 ****       116.2500 246.2500 361.7500 Du        
    379 ****       116.2500 246.2500 362.0000 Du        
    380 ****       116.2500 246.2500 362.2500 Du        
    381 ****       116.2500 246.2500 362.5000 Du        
    382 ****       116.2500 246.2500 362.7500 Du        
    383 ****       116.2500 246.2500 363.0000 Du        
    384 ****       116.2500 246.2500 363.2500 Du        
    385 ****       116.2500 246.2500 363.5000 Du        
    386 ****       116.2500 246.5000 360.5000 Du        
    387 ****       116.2500 246.5000 360.7500 Du        
    388 ****       116.2500 246.5000 361.0000 Du        
    389 ****       116.2500 246.5000 361.2500 Du        
    390 ****       116.2500 246.5000 361.5000 Du        
    391 ****       116.2500 246.5000 361.7500 Du        
    392 ****       116.2500 246.5000 362.0000 Du        
    393 ****       116.2500 246.5000 362.2500 Du        
    394 ****       116.2500 246.5000 362.5000 Du        
    395 ****       116.2500 246.5000 362.7500 Du        
    396 ****       116.2500 246.5000 363.0000 Du        
    397 ****       116.2500 246.5000 363.2500 Du        
    398 ****       116.2500 246.5000 363.5000 Du        
    399 ****       116.2500 246.7500 360.5000 Du        
    400 ****       116.2500 246.7500 360.7500 Du        
    401 ****       116.2500 246.7500 361.0000 Du        
    402 ****       116.2500 246.7500 361.2500 Du        
    403 ****       116.2500 246.7500 361.5000 Du        
    404 ****       116.2500 246.7500 361.7500 Du        
    405 ****       116.2500 246.7500 362.0000 Du        
    406 ****       116.2500 246.7500 362.2500 Du        
    407 ****       116.2500 246.7500 362.5000 Du        
    408 ****       116.2500 246.7500 362.7500 Du        
    409 ****       116.2500 246.7500 363.0000 Du        
    410 ****       116.2500 246.7500 363.2500 Du        
    411 ****       116.2500 246.7500 363.5000 Du        
    412 ****       116.2500 246.7500 363.7500 Du        
    413 ****       116.2500 247.0000 360.2500 Du        
    414 ****       116.2500 247.0000 360.5000 Du        
    415 ****       116.2500 247.0000 360.7500 Du        
    416 ****       116.2500 247.0000 361.0000 Du        
    417 ****       116.2500 247.0000 361.2500 Du        
    418 ****       116.2500 247.0000 361.5000 Du        
    419 ****       116.2500 247.0000 361.7500 Du        
    420 ****       116.2500 247.0000 362.0000 Du        
    421 ****       116.2500 247.0000 362.2500 Du        
    422 ****       116.2500 247.0000 362.5000 Du        
    423 ****       116.2500 247.0000 362.7500 Du        
    424 ****       116.2500 247.0000 363.0000 Du        
    425 ****       116.2500 247.0000 363.2500 Du        
    426 ****       116.2500 247.0000 363.5000 Du        
    427 ****       116.2500 247.0000 363.7500 Du        
    428 ****       116.2500 247.2500 360.5000 Du        
    429 ****       116.2500 247.2500 360.7500 Du        
    430 ****       116.2500 247.2500 361.0000 Du        
    431 ****       116.2500 247.2500 361.2500 Du        
    432 ****       116.2500 247.2500 361.5000 Du        
    433 ****       116.2500 247.2500 361.7500 Du        
    434 ****       116.2500 247.2500 362.0000 Du        
    435 ****       116.2500 247.2500 362.2500 Du        
    436 ****       116.2500 247.2500 362.5000 Du        
    437 ****       116.2500 247.2500 362.7500 Du        
    438 ****       116.2500 247.2500 363.0000 Du        
    439 ****       116.2500 247.2500 363.2500 Du        
    440 ****       116.2500 247.2500 363.5000 Du        
    441 ****       116.2500 247.2500 363.7500 Du        
    442 ****       116.2500 247.5000 360.7500 Du        
    443 ****       116.2500 247.5000 361.0000 Du        
    444 ****       116.2500 247.5000 361.2500 Du        
    445 ****       116.2500 247.5000 361.5000 Du        
    446 ****       116.2500 247.5000 361.7500 Du        
    447 ****       116.2500 247.5000 362.0000 Du        
    448 ****       116.2500 247.5000 362.2500 Du        
    449 ****       116.2500 247.5000 362.5000 Du        
    450 ****       116.2500 247.5000 362.7500 Du        
    451 ****       116.2500 247.5000 363.0000 Du        
    452 ****       116.2500 247.5000 363.2500 Du        
    453 ****       116.2500 247.5000 363.5000 Du        
    454 ****       116.2500 247.7500 360.7500 Du        
    455 ****       116.2500 247.7500 361.0000 Du        
    456 ****       116.2500 247.7500 361.2500 Du        
    457 ****       116.2500 247.7500 361.5000 Du        
    458 ****       116.2500 247.7500 361.7500 Du        
    459 ****       116.2500 247.7500 362.0000 Du        
    460 ****       116.2500 247.7500 362.2500 Du        
    461 ****       116.2500 247.7500 362.5000 Du        
    462 ****       116.2500 247.7500 362.7500 Du        
    463 ****       116.2500 247.7500 363.0000 Du        
    464 ****       116.2500 248.0000 361.2500 Du        
    465 ****       116.2500 248.0000 361.5000 Du        
    466 ****       116.2500 248.0000 361.7500 Du        
    467 ****       116.2500 248.0000 362.0000 Du        
    468 ****       116.2500 248.0000 362.2500 Du        
    469 ****       116.2500 248.0000 362.5000 Du        
    470 ****       116.5000 243.2500 360.5000 Du        
    471 ****       116.5000 243.5000 360.0000 Du        
    472 ****       116.5000 243.5000 360.2500 Du        
    473 ****       116.5000 243.5000 360.5000 Du        
    474 ****       116.5000 243.5000 360.7500 Du        
    475 ****       116.5000 243.5000 361.0000 Du        
    476 ****       116.5000 243.7500 360.0000 Du        
    477 ****       116.5000 243.7500 360.2500 Du        
    478 ****       116.5000 243.7500 360.5000 Du        
    479 ****       116.5000 243.7500 360.7500 Du        
    480 ****       116.5000 243.7500 361.0000 Du        
    481 ****       116.5000 243.7500 361.2500 Du        
    482 ****       116.5000 244.0000 360.0000 Du        
    483 ****       116.5000 244.0000 360.2500 Du        
    484 ****       116.5000 244.0000 360.5000 Du        
    485 ****       116.5000 244.0000 360.7500 Du        
    486 ****       116.5000 244.0000 361.0000 Du        
    487 ****       116.5000 244.0000 361.2500 Du        
    488 ****       116.5000 244.2500 360.0000 Du        
    489 ****       116.5000 244.2500 360.2500 Du        
    490 ****       116.5000 244.2500 360.5000 Du        
    491 ****       116.5000 244.2500 360.7500 Du        
    492 ****       116.5000 244.2500 361.0000 Du        
    493 ****       116.5000 244.2500 361.2500 Du        
    494 ****       116.5000 244.2500 361.5000 Du        
    495 ****       116.5000 244.5000 360.0000 Du        
    496 ****       116.5000 244.5000 360.2500 Du        
    497 ****       116.5000 244.5000 360.5000 Du        
    498 ****       116.5000 244.5000 360.7500 Du        
    499 ****       116.5000 244.5000 361.0000 Du        
    500 ****       116.5000 244.5000 361.2500 Du        
    501 ****       116.5000 244.5000 361.5000 Du        
    502 ****       116.5000 244.5000 361.7500 Du        
    503 ****       116.5000 244.7500 360.0000 Du        
    504 ****       116.5000 244.7500 360.2500 Du        
    505 ****       116.5000 244.7500 360.5000 Du        
    506 ****       116.5000 244.7500 360.7500 Du        
    507 ****       116.5000 244.7500 361.0000 Du        
    508 ****       116.5000 244.7500 361.2500 Du        
    509 ****       116.5000 244.7500 361.5000 Du        
    510 ****       116.5000 244.7500 361.7500 Du        
    511 ****       116.5000 244.7500 362.0000 Du        
    512 ****       116.5000 244.7500 362.2500 Du        
    513 ****       116.5000 245.0000 360.0000 Du        
    514 ****       116.5000 245.0000 360.2500 Du        
    515 ****       116.5000 245.0000 360.5000 Du        
    516 ****       116.5000 245.0000 360.7500 Du        
    517 ****       116.5000 245.0000 361.0000 Du        
    518 ****       116.5000 245.0000 361.2500 Du        
    519 ****       116.5000 245.0000 361.5000 Du        
    520 ****       116.5000 245.0000 361.7500 Du        
    521 ****       116.5000 245.0000 362.0000 Du        
    522 ****       116.5000 245.0000 362.2500 Du        
    523 ****       116.5000 245.0000 362.5000 Du        
    524 ****       116.5000 245.2500 360.0000 Du        
    525 ****       116.5000 245.2500 360.2500 Du        
    526 ****       116.5000 245.2500 360.5000 Du        
    527 ****       116.5000 245.2500 360.7500 Du        
    528 ****       116.5000 245.2500 361.0000 Du        
    529 ****       116.5000 245.2500 361.2500 Du        
    530 ****       116.5000 245.2500 361.5000 Du        
    531 ****       116.5000 245.2500 361.7500 Du        
    532 ****       116.5000 245.2500 362.0000 Du        
    533 ****       116.5000 245.2500 362.2500 Du        
    534 ****       116.5000 245.2500 362.5000 Du        
    535 ****       116.5000 245.2500 362.7500 Du        
    536 ****       116.5000 245.5000 360.0000 Du        
    537 ****       116.5000 245.5000 360.2500 Du        
    538 ****       116.5000 245.5000 360.5000 Du        
    539 ****       116.5000 245.5000 360.7500 Du        
    540 ****       116.5000 245.5000 361.0000 Du        
    541 ****       116.5000 245.5000 361.2500 Du        
    542 ****       116.5000 245.5000 361.5000 Du        
    543 ****       116.5000 245.5000 361.7500 Du        
    544 ****       116.5000 245.5000 362.0000 Du        
    545 ****       116.5000 245.5000 362.2500 Du        
    546 ****       116.5000 245.5000 362.5000 Du        
    547 ****       116.5000 245.5000 362.7500 Du        
    548 ****       116.5000 245.5000 363.0000 Du        
    549 ****       116.5000 245.7500 360.2500 Du        
    550 ****       116.5000 245.7500 360.5000 Du        
    551 ****       116.5000 245.7500 360.7500 Du        
    552 ****       116.5000 245.7500 361.0000 Du        
    553 ****       116.5000 245.7500 361.2500 Du        
    554 ****       116.5000 245.7500 361.5000 Du        
    555 ****       116.5000 245.7500 361.7500 Du        
    556 ****       116.5000 245.7500 362.0000 Du        
    557 ****       116.5000 245.7500 362.2500 Du        
    558 ****       116.5000 245.7500 362.5000 Du        
    559 ****       116.5000 245.7500 362.7500 Du        
    560 ****       116.5000 245.7500 363.0000 Du        
    561 ****       116.5000 245.7500 363.2500 Du        
    562 ****       116.5000 246.0000 360.0000 Du        
    563 ****       116.5000 246.0000 360.2500 Du        
    564 ****       116.5000 246.0000 360.5000 Du        
    565 ****       116.5000 246.0000 360.7500 Du        
    566 ****       116.5000 246.0000 361.0000 Du        
    567 ****       116.5000 246.0000 361.2500 Du        
    568 ****       116.5000 246.0000 361.5000 Du        
    569 ****       116.5000 246.0000 361.7500 Du        
    570 ****       116.5000 246.0000 362.0000 Du        
    571 ****       116.5000 246.0000 362.2500 Du        
    572 ****       116.5000 246.0000 362.5000 Du        
    573 ****       116.5000 246.0000 362.7500 Du        
    574 ****       116.5000 246.0000 363.0000 Du        
    575 ****       116.5000 246.0000 363.2500 Du        
    576 ****       116.5000 246.2500 360.2500 Du        
    577 ****       116.5000 246.2500 360.5000 Du        
    578 ****       116.5000 246.2500 360.7500 Du        
    579 ****       116.5000 246.2500 361.0000 Du        
    580 ****       116.5000 246.2500 361.2500 Du        
    581 ****       116.5000 246.2500 361.5000 Du        
    582 ****       116.5000 246.2500 361.7500 Du        
    583 ****       116.5000 246.2500 362.0000 Du        
    584 ****       116.5000 246.2500 362.2500 Du        
    585 ****       116.5000 246.2500 362.5000 Du        
    586 ****       116.5000 246.2500 362.7500 Du        
    587 ****       116.5000 246.2500 363.0000 Du        
    588 ****       116.5000 246.2500 363.2500 Du        
    589 ****       116.5000 246.2500 363.5000 Du        
    590 ****       116.5000 246.5000 360.2500 Du        
    591 ****       116.5000 246.5000 360.5000 Du        
    592 ****       116.5000 246.5000 360.7500 Du        
    593 ****       116.5000 246.5000 361.0000 Du        
    594 ****       116.5000 246.5000 361.2500 Du        
    595 ****       116.5000 246.5000 361.5000 Du        
    596 ****       116.5000 246.5000 361.7500 Du        
    597 ****       116.5000 246.5000 362.0000 Du        
    598 ****       116.5000 246.5000 362.2500 Du        
    599 ****       116.5000 246.5000 362.5000 Du        
    600 ****       116.5000 246.5000 362.7500 Du        
    601 ****       116.5000 246.5000 363.0000 Du        
    602 ****       116.5000 246.5000 363.2500 Du        
    603 ****       116.5000 246.5000 363.5000 Du        
    604 ****       116.5000 246.7500 360.2500 Du        
    605 ****       116.5000 246.7500 360.5000 Du        
    606 ****       116.5000 246.7500 360.7500 Du        
    607 ****       116.5000 246.7500 361.0000 Du        
    608 ****       116.5000 246.7500 361.2500 Du        
    609 ****       116.5000 246.7500 361.5000 Du        
    610 ****       116.5000 246.7500 361.7500 Du        
    611 ****       116.5000 246.7500 362.0000 Du        
    612 ****       116.5000 246.7500 362.2500 Du        
    613 ****       116.5000 246.7500 362.5000 Du        
    614 ****       116.5000 246.7500 362.7500 Du        
    615 ****       116.5000 246.7500 363.0000 Du        
    616 ****       116.5000 246.7500 363.2500 Du        
    617 ****       116.5000 246.7500 363.5000 Du        
    618 ****       116.5000 246.7500 363.7500 Du        
    619 ****       116.5000 247.0000 360.2500 Du        
    620 ****       116.5000 247.0000 360.5000 Du        
    621 ****       116.5000 247.0000 360.7500 Du        
    622 ****       116.5000 247.0000 361.0000 Du        
    623 ****       116.5000 247.0000 361.2500 Du        
    624 ****       116.5000 247.0000 361.5000 Du        
    625 ****       116.5000 247.0000 361.7500 Du        
    626 ****       116.5000 247.0000 362.0000 Du        
    627 ****       116.5000 247.0000 362.2500 Du        
    628 ****       116.5000 247.0000 362.5000 Du        
    629 ****       116.5000 247.0000 362.7500 Du        
    630 ****       116.5000 247.0000 363.0000 Du        
    631 ****       116.5000 247.0000 363.2500 Du        
    632 ****       116.5000 247.0000 363.5000 Du        
    633 ****       116.5000 247.0000 363.7500 Du        
    634 ****       116.5000 247.2500 360.2500 Du        
    635 ****       116.5000 247.2500 360.5000 Du        
    636 ****       116.5000 247.2500 360.7500 Du        
    637 ****       116.5000 247.2500 361.0000 Du        
    638 ****       116.5000 247.2500 361.2500 Du        
    639 ****       116.5000 247.2500 361.5000 Du        
    640 ****       116.5000 247.2500 361.7500 Du        
    641 ****       116.5000 247.2500 362.0000 Du        
    642 ****       116.5000 247.2500 362.2500 Du        
    643 ****       116.5000 247.2500 362.5000 Du        
    644 ****       116.5000 247.2500 362.7500 Du        
    645 ****       116.5000 247.2500 363.0000 Du        
    646 ****       116.5000 247.2500 363.2500 Du        
    647 ****       116.5000 247.2500 363.5000 Du        
    648 ****       116.5000 247.2500 363.7500 Du        
    649 ****       116.5000 247.5000 360.2500 Du        
    650 ****       116.5000 247.5000 360.5000 Du        
    651 ****       116.5000 247.5000 360.7500 Du        
    652 ****       116.5000 247.5000 361.0000 Du        
    653 ****       116.5000 247.5000 361.2500 Du        
    654 ****       116.5000 247.5000 361.5000 Du        
    655 ****       116.5000 247.5000 361.7500 Du        
    656 ****       116.5000 247.5000 362.0000 Du        
    657 ****       116.5000 247.5000 362.2500 Du        
    658 ****       116.5000 247.5000 362.5000 Du        
    659 ****       116.5000 247.5000 362.7500 Du        
    660 ****       116.5000 247.5000 363.0000 Du        
    661 ****       116.5000 247.5000 363.2500 Du        
    662 ****       116.5000 247.5000 363.5000 Du        
    663 ****       116.5000 247.7500 360.5000 Du        
    664 ****       116.5000 247.7500 360.7500 Du        
    665 ****       116.5000 247.7500 361.0000 Du        
    666 ****       116.5000 247.7500 361.2500 Du        
    667 ****       116.5000 247.7500 361.5000 Du        
    668 ****       116.5000 247.7500 361.7500 Du        
    669 ****       116.5000 247.7500 362.0000 Du        
    670 ****       116.5000 247.7500 362.2500 Du        
    671 ****       116.5000 247.7500 362.5000 Du        
    672 ****       116.5000 247.7500 362.7500 Du        
    673 ****       116.5000 247.7500 363.0000 Du        
    674 ****       116.5000 248.0000 360.7500 Du        
    675 ****       116.5000 248.0000 361.0000 Du        
    676 ****       116.5000 248.0000 361.2500 Du        
    677 ****       116.5000 248.0000 361.5000 Du        
    678 ****       116.5000 248.0000 361.7500 Du        
    679 ****       116.5000 248.0000 362.0000 Du        
    680 ****       116.5000 248.0000 362.2500 Du        
    681 ****       116.5000 248.0000 362.5000 Du        
    682 ****       116.5000 248.2500 361.2500 Du        
    683 ****       116.5000 248.2500 361.5000 Du        
    684 ****       116.7500 243.2500 360.5000 Du        
    685 ****       116.7500 243.5000 360.2500 Du        
    686 ****       116.7500 243.5000 360.5000 Du        
    687 ****       116.7500 243.5000 360.7500 Du        
    688 ****       116.7500 243.7500 360.0000 Du        
    689 ****       116.7500 243.7500 360.2500 Du        
    690 ****       116.7500 243.7500 360.5000 Du        
    691 ****       116.7500 243.7500 360.7500 Du        
    692 ****       116.7500 243.7500 361.0000 Du        
    693 ****       116.7500 244.0000 360.0000 Du        
    694 ****       116.7500 244.0000 360.2500 Du        
    695 ****       116.7500 244.0000 360.5000 Du        
    696 ****       116.7500 244.0000 360.7500 Du        
    697 ****       116.7500 244.0000 361.0000 Du        
    698 ****       116.7500 244.0000 361.2500 Du        
    699 ****       116.7500 244.2500 359.7500 Du        
    700 ****       116.7500 244.2500 360.0000 Du        
    701 ****       116.7500 244.2500 360.2500 Du        
    702 ****       116.7500 244.2500 360.5000 Du        
    703 ****       116.7500 244.2500 360.7500 Du        
    704 ****       116.7500 244.2500 361.0000 Du        
    705 ****       116.7500 244.2500 361.2500 Du        
    706 ****       116.7500 244.2500 361.5000 Du        
    707 ****       116.7500 244.5000 359.7500 Du        
    708 ****       116.7500 244.5000 360.0000 Du        
    709 ****       116.7500 244.5000 360.2500 Du        
    710 ****       116.7500 244.5000 360.5000 Du        
    711 ****       116.7500 244.5000 360.7500 Du        
    712 ****       116.7500 244.5000 361.0000 Du        
    713 ****       116.7500 244.5000 361.2500 Du        
    714 ****       116.7500 244.5000 361.5000 Du        
    715 ****       116.7500 244.7500 359.7500 Du        
    716 ****       116.7500 244.7500 360.0000 Du        
    717 ****       116.7500 244.7500 360.2500 Du        
    718 ****       116.7500 244.7500 360.5000 Du        
    719 ****       116.7500 244.7500 360.7500 Du        
    720 ****       116.7500 244.7500 361.0000 Du        
    721 ****       116.7500 244.7500 361.2500 Du        
    722 ****       116.7500 244.7500 361.5000 Du        
    723 ****       116.7500 244.7500 361.7500 Du        
    724 ****       116.7500 244.7500 362.0000 Du        
    725 ****       116.7500 245.0000 359.7500 Du        
    726 ****       116.7500 245.0000 360.0000 Du        
    727 ****       116.7500 245.0000 360.2500 Du        
    728 ****       116.7500 245.0000 360.5000 Du        
    729 ****       116.7500 245.0000 360.7500 Du        
    730 ****       116.7500 245.0000 361.0000 Du        
    731 ****       116.7500 245.0000 361.2500 Du        
    732 ****       116.7500 245.0000 361.5000 Du        
    733 ****       116.7500 245.0000 361.7500 Du        
    734 ****       116.7500 245.0000 362.0000 Du        
    735 ****       116.7500 245.0000 362.2500 Du        
    736 ****       116.7500 245.2500 359.7500 Du        
    737 ****       116.7500 245.2500 360.0000 Du        
    738 ****       116.7500 245.2500 360.2500 Du        
    739 ****       116.7500 245.2500 360.5000 Du        
    740 ****       116.7500 245.2500 360.7500 Du        
    741 ****       116.7500 245.2500 361.0000 Du        
    742 ****       116.7500 245.2500 361.2500 Du        
    743 ****       116.7500 245.2500 361.5000 Du        
    744 ****       116.7500 245.2500 361.7500 Du        
    745 ****       116.7500 245.2500 362.0000 Du        
    746 ****       116.7500 245.2500 362.2500 Du        
    747 ****       116.7500 245.2500 362.5000 Du        
    748 ****       116.7500 245.2500 362.7500 Du        
    749 ****       116.7500 245.5000 359.7500 Du        
    750 ****       116.7500 245.5000 360.0000 Du        
    751 ****       116.7500 245.5000 360.2500 Du        
    752 ****       116.7500 245.5000 360.5000 Du        
    753 ****       116.7500 245.5000 360.7500 Du        
    754 ****       116.7500 245.5000 361.0000 Du        
    755 ****       116.7500 245.5000 361.2500 Du        
    756 ****       116.7500 245.5000 361.5000 Du        
    757 ****       116.7500 245.5000 361.7500 Du        
    758 ****       116.7500 245.5000 362.0000 Du        
    759 ****       116.7500 245.5000 362.2500 Du        
    760 ****       116.7500 245.5000 362.5000 Du        
    761 ****       116.7500 245.5000 362.7500 Du        
    762 ****       116.7500 245.5000 363.0000 Du        
    763 ****       116.7500 245.7500 359.7500 Du        
    764 ****       116.7500 245.7500 360.0000 Du        
    765 ****       116.7500 245.7500 360.2500 Du        
    766 ****       116.7500 245.7500 360.5000 Du        
    767 ****       116.7500 245.7500 360.7500 Du        
    768 ****       116.7500 245.7500 361.0000 Du        
    769 ****       116.7500 245.7500 361.2500 Du        
    770 ****       116.7500 245.7500 361.5000 Du        
    771 ****       116.7500 245.7500 361.7500 Du        
    772 ****       116.7500 245.7500 362.0000 Du        
    773 ****       116.7500 245.7500 362.2500 Du        
    774 ****       116.7500 245.7500 362.5000 Du        
    775 ****       116.7500 245.7500 362.7500 Du        
    776 ****       116.7500 245.7500 363.0000 Du        
    777 ****       116.7500 245.7500 363.2500 Du        
    778 ****       116.7500 246.0000 360.0000 Du        
    779 ****       116.7500 246.0000 360.2500 Du        
    780 ****       116.7500 246.0000 360.5000 Du        
    781 ****       116.7500 246.0000 360.7500 Du        
    782 ****       116.7500 246.0000 361.0000 Du        
    783 ****       116.7500 246.0000 361.2500 Du        
    784 ****       116.7500 246.0000 361.5000 Du        
    785 ****       116.7500 246.0000 361.7500 Du        
    786 ****       116.7500 246.0000 362.0000 Du        
    787 ****       116.7500 246.0000 362.2500 Du        
    788 ****       116.7500 246.0000 362.5000 Du        
    789 ****       116.7500 246.0000 362.7500 Du        
    790 ****       116.7500 246.0000 363.0000 Du        
    791 ****       116.7500 246.0000 363.2500 Du        
    792 ****       116.7500 246.0000 363.5000 Du        
    793 ****       116.7500 246.2500 360.0000 Du        
    794 ****       116.7500 246.2500 360.2500 Du        
    795 ****       116.7500 246.2500 360.5000 Du        
    796 ****       116.7500 246.2500 360.7500 Du        
    797 ****       116.7500 246.2500 361.0000 Du        
    798 ****       116.7500 246.2500 361.2500 Du        
    799 ****       116.7500 246.2500 361.5000 Du        
    800 ****       116.7500 246.2500 361.7500 Du        
    801 ****       116.7500 246.2500 362.0000 Du        
    802 ****       116.7500 246.2500 362.2500 Du        
    803 ****       116.7500 246.2500 362.5000 Du        
    804 ****       116.7500 246.2500 362.7500 Du        
    805 ****       116.7500 246.2500 363.0000 Du        
    806 ****       116.7500 246.2500 363.2500 Du        
    807 ****       116.7500 246.2500 363.5000 Du        
    808 ****       116.7500 246.5000 360.0000 Du        
    809 ****       116.7500 246.5000 360.2500 Du        
    810 ****       116.7500 246.5000 360.5000 Du        
    811 ****       116.7500 246.5000 360.7500 Du        
    812 ****       116.7500 246.5000 361.0000 Du        
    813 ****       116.7500 246.5000 361.2500 Du        
    814 ****       116.7500 246.5000 361.5000 Du        
    815 ****       116.7500 246.5000 361.7500 Du        
    816 ****       116.7500 246.5000 362.0000 Du        
    817 ****       116.7500 246.5000 362.2500 Du        
    818 ****       116.7500 246.5000 362.5000 Du        
    819 ****       116.7500 246.5000 362.7500 Du        
    820 ****       116.7500 246.5000 363.0000 Du        
    821 ****       116.7500 246.5000 363.2500 Du        
    822 ****       116.7500 246.5000 363.5000 Du        
    823 ****       116.7500 246.5000 363.7500 Du        
    824 ****       116.7500 246.7500 360.0000 Du        
    825 ****       116.7500 246.7500 360.2500 Du        
    826 ****       116.7500 246.7500 360.5000 Du        
    827 ****       116.7500 246.7500 360.7500 Du        
    828 ****       116.7500 246.7500 361.0000 Du        
    829 ****       116.7500 246.7500 361.2500 Du        
    830 ****       116.7500 246.7500 361.5000 Du        
    831 ****       116.7500 246.7500 361.7500 Du        
    832 ****       116.7500 246.7500 362.0000 Du        
    833 ****       116.7500 246.7500 362.2500 Du        
    834 ****       116.7500 246.7500 362.5000 Du        
    835 ****       116.7500 246.7500 362.7500 Du        
    836 ****       116.7500 246.7500 363.0000 Du        
    837 ****       116.7500 246.7500 363.2500 Du        
    838 ****       116.7500 246.7500 363.5000 Du        
    839 ****       116.7500 246.7500 363.7500 Du        
    840 ****       116.7500 247.0000 360.0000 Du        
    841 ****       116.7500 247.0000 360.2500 Du        
    842 ****       116.7500 247.0000 360.5000 Du        
    843 ****       116.7500 247.0000 360.7500 Du        
    844 ****       116.7500 247.0000 361.0000 Du        
    845 ****       116.7500 247.0000 361.2500 Du        
    846 ****       116.7500 247.0000 361.5000 Du        
    847 ****       116.7500 247.0000 361.7500 Du        
    848 ****       116.7500 247.0000 362.0000 Du        
    849 ****       116.7500 247.0000 362.2500 Du        
    850 ****       116.7500 247.0000 362.5000 Du        
    851 ****       116.7500 247.0000 362.7500 Du        
    852 ****       116.7500 247.0000 363.0000 Du        
    853 ****       116.7500 247.0000 363.2500 Du        
    854 ****       116.7500 247.0000 363.5000 Du        
    855 ****       116.7500 247.0000 363.7500 Du        
    856 ****       116.7500 247.2500 360.0000 Du        
    857 ****       116.7500 247.2500 360.2500 Du        
    858 ****       116.7500 247.2500 360.5000 Du        
    859 ****       116.7500 247.2500 360.7500 Du        
    860 ****       116.7500 247.2500 361.0000 Du        
    861 ****       116.7500 247.2500 361.2500 Du        
    862 ****       116.7500 247.2500 361.5000 Du        
    863 ****       116.7500 247.2500 361.7500 Du        
    864 ****       116.7500 247.2500 362.0000 Du        
    865 ****       116.7500 247.2500 362.2500 Du        
    866 ****       116.7500 247.2500 362.5000 Du        
    867 ****       116.7500 247.2500 362.7500 Du        
    868 ****       116.7500 247.2500 363.0000 Du        
    869 ****       116.7500 247.2500 363.2500 Du        
    870 ****       116.7500 247.2500 363.5000 Du        
    871 ****       116.7500 247.2500 363.7500 Du        
    872 ****       116.7500 247.5000 360.2500 Du        
    873 ****       116.7500 247.5000 360.5000 Du        
    874 ****       116.7500 247.5000 360.7500 Du        
    875 ****       116.7500 247.5000 361.0000 Du        
    876 ****       116.7500 247.5000 361.2500 Du        
    877 ****       116.7500 247.5000 361.5000 Du        
    878 ****       116.7500 247.5000 361.7500 Du        
    879 ****       116.7500 247.5000 362.0000 Du        
    880 ****       116.7500 247.5000 362.2500 Du        
    881 ****       116.7500 247.5000 362.5000 Du        
    882 ****       116.7500 247.5000 362.7500 Du        
    883 ****       116.7500 247.5000 363.0000 Du        
    884 ****       116.7500 247.5000 363.2500 Du        
    885 ****       116.7500 247.5000 363.5000 Du        
    886 ****       116.7500 247.5000 363.7500 Du        
    887 ****       116.7500 247.7500 360.2500 Du        
    888 ****       116.7500 247.7500 360.5000 Du        
    889 ****       116.7500 247.7500 360.7500 Du        
    890 ****       116.7500 247.7500 361.0000 Du        
    891 ****       116.7500 247.7500 361.2500 Du        
    892 ****       116.7500 247.7500 361.5000 Du        
    893 ****       116.7500 247.7500 361.7500 Du        
    894 ****       116.7500 247.7500 362.0000 Du        
    895 ****       116.7500 247.7500 362.2500 Du        
    896 ****       116.7500 247.7500 362.5000 Du        
    897 ****       116.7500 247.7500 362.7500 Du        
    898 ****       116.7500 247.7500 363.0000 Du        
    899 ****       116.7500 247.7500 363.2500 Du        
    900 ****       116.7500 248.0000 360.5000 Du        
    901 ****       116.7500 248.0000 360.7500 Du        
    902 ****       116.7500 248.0000 361.0000 Du        
    903 ****       116.7500 248.0000 361.2500 Du        
    904 ****       116.7500 248.0000 361.5000 Du        
    905 ****       116.7500 248.0000 361.7500 Du        
    906 ****       116.7500 248.0000 362.0000 Du        
    907 ****       116.7500 248.0000 362.2500 Du        
    908 ****       116.7500 248.0000 362.5000 Du        
    909 ****       116.7500 248.0000 362.7500 Du        
    910 ****       116.7500 248.2500 360.7500 Du        
    911 ****       116.7500 248.2500 361.0000 Du        
    912 ****       116.7500 248.2500 361.2500 Du        
    913 ****       116.7500 248.2500 361.5000 Du        
    914 ****       116.7500 248.2500 361.7500 Du        
    915 ****       117.0000 243.5000 360.2500 Du        
    916 ****       117.0000 243.5000 360.5000 Du        
    917 ****       117.0000 243.5000 360.7500 Du        
    918 ****       117.0000 243.7500 360.2500 Du        
    919 ****       117.0000 243.7500 360.5000 Du        
    920 ****       117.0000 243.7500 360.7500 Du        
    921 ****       117.0000 243.7500 361.0000 Du        
    922 ****       117.0000 244.0000 360.0000 Du        
    923 ****       117.0000 244.0000 360.2500 Du        
    924 ****       117.0000 244.0000 360.5000 Du        
    925 ****       117.0000 244.0000 360.7500 Du        
    926 ****       117.0000 244.0000 361.0000 Du        
    927 ****       117.0000 244.2500 360.0000 Du        
    928 ****       117.0000 244.2500 360.2500 Du        
    929 ****       117.0000 244.2500 360.5000 Du        
    930 ****       117.0000 244.2500 360.7500 Du        
    931 ****       117.0000 244.2500 361.0000 Du        
    932 ****       117.0000 244.2500 361.2500 Du        
    933 ****       117.0000 244.5000 359.7500 Du        
    934 ****       117.0000 244.5000 360.0000 Du        
    935 ****       117.0000 244.5000 360.2500 Du        
    936 ****       117.0000 244.5000 360.5000 Du        
    937 ****       117.0000 244.5000 360.7500 Du        
    938 ****       117.0000 244.5000 361.0000 Du        
    939 ****       117.0000 244.5000 361.2500 Du        
    940 ****       117.0000 244.5000 361.5000 Du        
    941 ****       117.0000 244.7500 359.7500 Du        
    942 ****       117.0000 244.7500 360.0000 Du        
    943 ****       117.0000 244.7500 360.2500 Du        
    944 ****       117.0000 244.7500 360.5000 Du        
    945 ****       117.0000 244.7500 360.7500 Du        
    946 ****       117.0000 244.7500 361.0000 Du        
    947 ****       117.0000 244.7500 361.2500 Du        
    948 ****       117.0000 244.7500 361.5000 Du        
    949 ****       117.0000 245.0000 359.7500 Du        
    950 ****       117.0000 245.0000 360.0000 Du        
    951 ****       117.0000 245.0000 360.2500 Du        
    952 ****       117.0000 245.0000 360.5000 Du        
    953 ****       117.0000 245.0000 360.7500 Du        
    954 ****       117.0000 245.0000 361.0000 Du        
    955 ****       117.0000 245.0000 361.2500 Du        
    956 ****       117.0000 245.0000 361.5000 Du        
    957 ****       117.0000 245.0000 361.7500 Du        
    958 ****       117.0000 245.0000 362.0000 Du        
    959 ****       117.0000 245.2500 359.7500 Du        
    960 ****       117.0000 245.2500 360.0000 Du        
    961 ****       117.0000 245.2500 360.2500 Du        
    962 ****       117.0000 245.2500 360.5000 Du        
    963 ****       117.0000 245.2500 360.7500 Du        
    964 ****       117.0000 245.2500 361.0000 Du        
    965 ****       117.0000 245.2500 361.2500 Du        
    966 ****       117.0000 245.2500 361.5000 Du        
    967 ****       117.0000 245.2500 361.7500 Du        
    968 ****       117.0000 245.2500 362.0000 Du        
    969 ****       117.0000 245.2500 362.2500 Du        
    970 ****       117.0000 245.2500 362.5000 Du        
    971 ****       117.0000 245.5000 359.7500 Du        
    972 ****       117.0000 245.5000 360.0000 Du        
    973 ****       117.0000 245.5000 360.2500 Du        
    974 ****       117.0000 245.5000 360.5000 Du        
    975 ****       117.0000 245.5000 360.7500 Du        
    976 ****       117.0000 245.5000 361.0000 Du        
    977 ****       117.0000 245.5000 361.2500 Du        
    978 ****       117.0000 245.5000 361.5000 Du        
    979 ****       117.0000 245.5000 361.7500 Du        
    980 ****       117.0000 245.5000 362.0000 Du        
    981 ****       117.0000 245.5000 362.2500 Du        
    982 ****       117.0000 245.5000 362.5000 Du        
    983 ****       117.0000 245.5000 362.7500 Du        
    984 ****       117.0000 245.7500 359.7500 Du        
    985 ****       117.0000 245.7500 360.0000 Du        
    986 ****       117.0000 245.7500 360.2500 Du        
    987 ****       117.0000 245.7500 360.5000 Du        
    988 ****       117.0000 245.7500 360.7500 Du        
    989 ****       117.0000 245.7500 361.0000 Du        
    990 ****       117.0000 245.7500 361.2500 Du        
    991 ****       117.0000 245.7500 361.5000 Du        
    992 ****       117.0000 245.7500 361.7500 Du        
    993 ****       117.0000 245.7500 362.0000 Du        
    994 ****       117.0000 245.7500 362.2500 Du        
    995 ****       117.0000 245.7500 362.5000 Du        
    996 ****       117.0000 245.7500 362.7500 Du        
    997 ****       117.0000 245.7500 363.0000 Du        
    998 ****       117.0000 245.7500 363.2500 Du        
    999 ****       117.0000 246.0000 359.7500 Du        
   1000 ****       117.0000 246.0000 360.0000 Du        
   1001 ****       117.0000 246.0000 360.2500 Du        
   1002 ****       117.0000 246.0000 360.5000 Du        
   1003 ****       117.0000 246.0000 360.7500 Du        
   1004 ****       117.0000 246.0000 361.0000 Du        
   1005 ****       117.0000 246.0000 361.2500 Du        
   1006 ****       117.0000 246.0000 361.5000 Du        
   1007 ****       117.0000 246.0000 361.7500 Du        
   1008 ****       117.0000 246.0000 362.0000 Du        
   1009 ****       117.0000 246.0000 362.2500 Du        
   1010 ****       117.0000 246.0000 362.5000 Du        
   1011 ****       117.0000 246.0000 362.7500 Du        
   1012 ****       117.0000 246.0000 363.0000 Du        
   1013 ****       117.0000 246.0000 363.2500 Du        
   1014 ****       117.0000 246.0000 363.5000 Du        
   1015 ****       117.0000 246.2500 359.7500 Du        
   1016 ****       117.0000 246.2500 360.0000 Du        
   1017 ****       117.0000 246.2500 360.2500 Du        
   1018 ****       117.0000 246.2500 360.5000 Du        
   1019 ****       117.0000 246.2500 360.7500 Du        
   1020 ****       117.0000 246.2500 361.0000 Du        
   1021 ****       117.0000 246.2500 361.2500 Du        
   1022 ****       117.0000 246.2500 361.5000 Du        
   1023 ****       117.0000 246.2500 361.7500 Du        
   1024 ****       117.0000 246.2500 362.0000 Du        
   1025 ****       117.0000 246.2500 362.2500 Du        
   1026 ****       117.0000 246.2500 362.5000 Du        
   1027 ****       117.0000 246.2500 362.7500 Du        
   1028 ****       117.0000 246.2500 363.0000 Du        
   1029 ****       117.0000 246.2500 363.2500 Du        
   1030 ****       117.0000 246.2500 363.5000 Du        
   1031 ****       117.0000 246.5000 359.7500 Du        
   1032 ****       117.0000 246.5000 360.0000 Du        
   1033 ****       117.0000 246.5000 360.2500 Du        
   1034 ****       117.0000 246.5000 360.5000 Du        
   1035 ****       117.0000 246.5000 360.7500 Du        
   1036 ****       117.0000 246.5000 361.0000 Du        
   1037 ****       117.0000 246.5000 361.2500 Du        
   1038 ****       117.0000 246.5000 361.5000 Du        
   1039 ****       117.0000 246.5000 361.7500 Du        
   1040 ****       117.0000 246.5000 362.0000 Du        
   1041 ****       117.0000 246.5000 362.2500 Du        
   1042 ****       117.0000 246.5000 362.5000 Du        
   1043 ****       117.0000 246.5000 362.7500 Du        
   1044 ****       117.0000 246.5000 363.0000 Du        
   1045 ****       117.0000 246.5000 363.2500 Du        
   1046 ****       117.0000 246.5000 363.5000 Du        
   1047 ****       117.0000 246.5000 363.7500 Du        
   1048 ****       117.0000 246.7500 359.7500 Du        
   1049 ****       117.0000 246.7500 360.0000 Du        
   1050 ****       117.0000 246.7500 360.2500 Du        
   1051 ****       117.0000 246.7500 360.5000 Du        
   1052 ****       117.0000 246.7500 360.7500 Du        
   1053 ****       117.0000 246.7500 361.0000 Du        
   1054 ****       117.0000 246.7500 361.2500 Du        
   1055 ****       117.0000 246.7500 361.5000 Du        
   1056 ****       117.0000 246.7500 361.7500 Du        
   1057 ****       117.0000 246.7500 362.0000 Du        
   1058 ****       117.0000 246.7500 362.2500 Du        
   1059 ****       117.0000 246.7500 362.5000 Du        
   1060 ****       117.0000 246.7500 362.7500 Du        
   1061 ****       117.0000 246.7500 363.0000 Du        
   1062 ****       117.0000 246.7500 363.2500 Du        
   1063 ****       117.0000 246.7500 363.5000 Du        
   1064 ****       117.0000 246.7500 363.7500 Du        
   1065 ****       117.0000 247.0000 359.7500 Du        
   1066 ****       117.0000 247.0000 360.0000 Du        
   1067 ****       117.0000 247.0000 360.2500 Du        
   1068 ****       117.0000 247.0000 360.5000 Du        
   1069 ****       117.0000 247.0000 360.7500 Du        
   1070 ****       117.0000 247.0000 361.0000 Du        
   1071 ****       117.0000 247.0000 361.2500 Du        
   1072 ****       117.0000 247.0000 361.5000 Du        
   1073 ****       117.0000 247.0000 361.7500 Du        
   1074 ****       117.0000 247.0000 362.0000 Du        
   1075 ****       117.0000 247.0000 362.2500 Du        
   1076 ****       117.0000 247.0000 362.5000 Du        
   1077 ****       117.0000 247.0000 362.7500 Du        
   1078 ****       117.0000 247.0000 363.0000 Du        
   1079 ****       117.0000 247.0000 363.2500 Du        
   1080 ****       117.0000 247.0000 363.5000 Du        
   1081 ****       117.0000 247.0000 363.7500 Du        
   1082 ****       117.0000 247.2500 360.0000 Du        
   1083 ****       117.0000 247.2500 360.2500 Du        
   1084 ****       117.0000 247.2500 360.5000 Du        
   1085 ****       117.0000 247.2500 360.7500 Du        
   1086 ****       117.0000 247.2500 361.0000 Du        
   1087 ****       117.0000 247.2500 361.2500 Du        
   1088 ****       117.0000 247.2500 361.5000 Du        
   1089 ****       117.0000 247.2500 361.7500 Du        
   1090 ****       117.0000 247.2500 362.0000 Du        
   1091 ****       117.0000 247.2500 362.2500 Du        
   1092 ****       117.0000 247.2500 362.5000 Du        
   1093 ****       117.0000 247.2500 362.7500 Du        
   1094 ****       117.0000 247.2500 363.0000 Du        
   1095 ****       117.0000 247.2500 363.2500 Du        
   1096 ****       117.0000 247.2500 363.5000 Du        
   1097 ****       117.0000 247.2500 363.7500 Du        
   1098 ****       117.0000 247.5000 360.0000 Du        
   1099 ****       117.0000 247.5000 360.2500 Du        
   1100 ****       117.0000 247.5000 360.5000 Du        
   1101 ****       117.0000 247.5000 360.7500 Du        
   1102 ****       117.0000 247.5000 361.0000 Du        
   1103 ****       117.0000 247.5000 361.2500 Du        
   1104 ****       117.0000 247.5000 361.5000 Du        
   1105 ****       117.0000 247.5000 361.7500 Du        
   1106 ****       117.0000 247.5000 362.0000 Du        
   1107 ****       117.0000 247.5000 362.2500 Du        
   1108 ****       117.0000 247.5000 362.5000 Du        
   1109 ****       117.0000 247.5000 362.7500 Du        
   1110 ****       117.0000 247.5000 363.0000 Du        
   1111 ****       117.0000 247.5000 363.2500 Du        
   1112 ****       117.0000 247.5000 363.5000 Du        
   1113 ****       117.0000 247.5000 363.7500 Du        
   1114 ****       117.0000 247.7500 360.0000 Du        
   1115 ****       117.0000 247.7500 360.2500 Du        
   1116 ****       117.0000 247.7500 360.5000 Du        
   1117 ****       117.0000 247.7500 360.7500 Du        
   1118 ****       117.0000 247.7500 361.0000 Du        
   1119 ****       117.0000 247.7500 361.2500 Du        
   1120 ****       117.0000 247.7500 361.5000 Du        
   1121 ****       117.0000 247.7500 361.7500 Du        
   1122 ****       117.0000 247.7500 362.0000 Du        
   1123 ****       117.0000 247.7500 362.2500 Du        
   1124 ****       117.0000 247.7500 362.5000 Du        
   1125 ****       117.0000 247.7500 362.7500 Du        
   1126 ****       117.0000 247.7500 363.0000 Du        
   1127 ****       117.0000 247.7500 363.2500 Du        
   1128 ****       117.0000 247.7500 363.5000 Du        
   1129 ****       117.0000 248.0000 360.2500 Du        
   1130 ****       117.0000 248.0000 360.5000 Du        
   1131 ****       117.0000 248.0000 360.7500 Du        
   1132 ****       117.0000 248.0000 361.0000 Du        
   1133 ****       117.0000 248.0000 361.2500 Du        
   1134 ****       117.0000 248.0000 361.5000 Du        
   1135 ****       117.0000 248.0000 361.7500 Du        
   1136 ****       117.0000 248.0000 362.0000 Du        
   1137 ****       117.0000 248.0000 362.2500 Du        
   1138 ****       117.0000 248.0000 362.5000 Du        
   1139 ****       117.0000 248.0000 362.7500 Du        
   1140 ****       117.0000 248.2500 360.5000 Du        
   1141 ****       117.0000 248.2500 360.7500 Du        
   1142 ****       117.0000 248.2500 361.0000 Du        
   1143 ****       117.0000 248.2500 361.2500 Du        
   1144 ****       117.0000 248.2500 361.5000 Du        
   1145 ****       117.0000 248.2500 361.7500 Du        
   1146 ****       117.0000 248.2500 362.0000 Du        
   1147 ****       117.0000 248.5000 360.7500 Du        
   1148 ****       117.0000 248.5000 361.0000 Du        
   1149 ****       117.0000 248.5000 361.2500 Du        
   1150 ****       117.2500 243.5000 360.5000 Du        
   1151 ****       117.2500 243.7500 360.2500 Du        
   1152 ****       117.2500 243.7500 360.5000 Du        
   1153 ****       117.2500 243.7500 360.7500 Du        
   1154 ****       117.2500 244.0000 360.2500 Du        
   1155 ****       117.2500 244.0000 360.5000 Du        
   1156 ****       117.2500 244.0000 360.7500 Du        
   1157 ****       117.2500 244.0000 361.0000 Du        
   1158 ****       117.2500 244.2500 360.0000 Du        
   1159 ****       117.2500 244.2500 360.2500 Du        
   1160 ****       117.2500 244.2500 360.5000 Du        
   1161 ****       117.2500 244.2500 360.7500 Du        
   1162 ****       117.2500 244.2500 361.0000 Du        
   1163 ****       117.2500 244.5000 360.0000 Du        
   1164 ****       117.2500 244.5000 360.2500 Du        
   1165 ****       117.2500 244.5000 360.5000 Du        
   1166 ****       117.2500 244.5000 360.7500 Du        
   1167 ****       117.2500 244.5000 361.0000 Du        
   1168 ****       117.2500 244.5000 361.2500 Du        
   1169 ****       117.2500 244.7500 359.7500 Du        
   1170 ****       117.2500 244.7500 360.0000 Du        
   1171 ****       117.2500 244.7500 360.2500 Du        
   1172 ****       117.2500 244.7500 360.5000 Du        
   1173 ****       117.2500 244.7500 360.7500 Du        
   1174 ****       117.2500 244.7500 361.0000 Du        
   1175 ****       117.2500 244.7500 361.2500 Du        
   1176 ****       117.2500 245.0000 359.7500 Du        
   1177 ****       117.2500 245.0000 360.0000 Du        
   1178 ****       117.2500 245.0000 360.2500 Du        
   1179 ****       117.2500 245.0000 360.5000 Du        
   1180 ****       117.2500 245.0000 360.7500 Du        
   1181 ****       117.2500 245.0000 361.0000 Du        
   1182 ****       117.2500 245.0000 361.2500 Du        
   1183 ****       117.2500 245.0000 361.5000 Du        
   1184 ****       117.2500 245.2500 359.7500 Du        
   1185 ****       117.2500 245.2500 360.0000 Du        
   1186 ****       117.2500 245.2500 360.2500 Du        
   1187 ****       117.2500 245.2500 360.5000 Du        
   1188 ****       117.2500 245.2500 360.7500 Du        
   1189 ****       117.2500 245.2500 361.0000 Du        
   1190 ****       117.2500 245.2500 361.2500 Du        
   1191 ****       117.2500 245.2500 361.5000 Du        
   1192 ****       117.2500 245.2500 361.7500 Du        
   1193 ****       117.2500 245.2500 362.0000 Du        
   1194 ****       117.2500 245.5000 359.5000 Du        
   1195 ****       117.2500 245.5000 359.7500 Du        
   1196 ****       117.2500 245.5000 360.0000 Du        
   1197 ****       117.2500 245.5000 360.2500 Du        
   1198 ****       117.2500 245.5000 360.5000 Du        
   1199 ****       117.2500 245.5000 360.7500 Du        
   1200 ****       117.2500 245.5000 361.0000 Du        
   1201 ****       117.2500 245.5000 361.2500 Du        
   1202 ****       117.2500 245.5000 361.5000 Du        
   1203 ****       117.2500 245.5000 361.7500 Du        
   1204 ****       117.2500 245.5000 362.0000 Du        
   1205 ****       117.2500 245.5000 362.2500 Du        
   1206 ****       117.2500 245.7500 359.5000 Du        
   1207 ****       117.2500 245.7500 359.7500 Du        
   1208 ****       117.2500 245.7500 360.0000 Du        
   1209 ****       117.2500 245.7500 360.2500 Du        
   1210 ****       117.2500 245.7500 360.5000 Du        
   1211 ****       117.2500 245.7500 360.7500 Du        
   1212 ****       117.2500 245.7500 361.0000 Du        
   1213 ****       117.2500 245.7500 361.2500 Du        
   1214 ****       117.2500 245.7500 361.5000 Du        
   1215 ****       117.2500 245.7500 361.7500 Du        
   1216 ****       117.2500 245.7500 362.0000 Du        
   1217 ****       117.2500 245.7500 362.2500 Du        
   1218 ****       117.2500 245.7500 362.5000 Du        
   1219 ****       117.2500 245.7500 362.7500 Du        
   1220 ****       117.2500 245.7500 363.0000 Du        
   1221 ****       117.2500 246.0000 359.5000 Du        
   1222 ****       117.2500 246.0000 359.7500 Du        
   1223 ****       117.2500 246.0000 360.0000 Du        
   1224 ****       117.2500 246.0000 360.2500 Du        
   1225 ****       117.2500 246.0000 360.5000 Du        
   1226 ****       117.2500 246.0000 360.7500 Du        
   1227 ****       117.2500 246.0000 361.0000 Du        
   1228 ****       117.2500 246.0000 361.2500 Du        
   1229 ****       117.2500 246.0000 361.5000 Du        
   1230 ****       117.2500 246.0000 361.7500 Du        
   1231 ****       117.2500 246.0000 362.0000 Du        
   1232 ****       117.2500 246.0000 362.2500 Du        
   1233 ****       117.2500 246.0000 362.5000 Du        
   1234 ****       117.2500 246.0000 362.7500 Du        
   1235 ****       117.2500 246.0000 363.0000 Du        
   1236 ****       117.2500 246.0000 363.2500 Du        
   1237 ****       117.2500 246.2500 359.5000 Du        
   1238 ****       117.2500 246.2500 359.7500 Du        
   1239 ****       117.2500 246.2500 360.0000 Du        
   1240 ****       117.2500 246.2500 360.2500 Du        
   1241 ****       117.2500 246.2500 360.5000 Du        
   1242 ****       117.2500 246.2500 360.7500 Du        
   1243 ****       117.2500 246.2500 361.0000 Du        
   1244 ****       117.2500 246.2500 361.2500 Du        
   1245 ****       117.2500 246.2500 361.5000 Du        
   1246 ****       117.2500 246.2500 361.7500 Du        
   1247 ****       117.2500 246.2500 362.0000 Du        
   1248 ****       117.2500 246.2500 362.2500 Du        
   1249 ****       117.2500 246.2500 362.5000 Du        
   1250 ****       117.2500 246.2500 362.7500 Du        
   1251 ****       117.2500 246.2500 363.0000 Du        
   1252 ****       117.2500 246.2500 363.2500 Du        
   1253 ****       117.2500 246.2500 363.5000 Du        
   1254 ****       117.2500 246.5000 359.5000 Du        
   1255 ****       117.2500 246.5000 359.7500 Du        
   1256 ****       117.2500 246.5000 360.0000 Du        
   1257 ****       117.2500 246.5000 360.2500 Du        
   1258 ****       117.2500 246.5000 360.5000 Du        
   1259 ****       117.2500 246.5000 360.7500 Du        
   1260 ****       117.2500 246.5000 361.0000 Du        
   1261 ****       117.2500 246.5000 361.2500 Du        
   1262 ****       117.2500 246.5000 361.5000 Du        
   1263 ****       117.2500 246.5000 361.7500 Du        
   1264 ****       117.2500 246.5000 362.0000 Du        
   1265 ****       117.2500 246.5000 362.2500 Du        
   1266 ****       117.2500 246.5000 362.5000 Du        
   1267 ****       117.2500 246.5000 362.7500 Du        
   1268 ****       117.2500 246.5000 363.0000 Du        
   1269 ****       117.2500 246.5000 363.2500 Du        
   1270 ****       117.2500 246.5000 363.5000 Du        
   1271 ****       117.2500 246.5000 363.7500 Du        
   1272 ****       117.2500 246.7500 359.7500 Du        
   1273 ****       117.2500 246.7500 360.0000 Du        
   1274 ****       117.2500 246.7500 360.2500 Du        
   1275 ****       117.2500 246.7500 360.5000 Du        
   1276 ****       117.2500 246.7500 360.7500 Du        
   1277 ****       117.2500 246.7500 361.0000 Du        
   1278 ****       117.2500 246.7500 361.2500 Du        
   1279 ****       117.2500 246.7500 361.5000 Du        
   1280 ****       117.2500 246.7500 361.7500 Du        
   1281 ****       117.2500 246.7500 362.0000 Du        
   1282 ****       117.2500 246.7500 362.2500 Du        
   1283 ****       117.2500 246.7500 362.5000 Du        
   1284 ****       117.2500 246.7500 362.7500 Du        
   1285 ****       117.2500 246.7500 363.0000 Du        
   1286 ****       117.2500 246.7500 363.2500 Du        
   1287 ****       117.2500 246.7500 363.5000 Du        
   1288 ****       117.2500 246.7500 363.7500 Du        
   1289 ****       117.2500 247.0000 359.7500 Du        
   1290 ****       117.2500 247.0000 360.0000 Du        
   1291 ****       117.2500 247.0000 360.2500 Du        
   1292 ****       117.2500 247.0000 360.5000 Du        
   1293 ****       117.2500 247.0000 360.7500 Du        
   1294 ****       117.2500 247.0000 361.0000 Du        
   1295 ****       117.2500 247.0000 361.2500 Du        
   1296 ****       117.2500 247.0000 361.5000 Du        
   1297 ****       117.2500 247.0000 361.7500 Du        
   1298 ****       117.2500 247.0000 362.0000 Du        
   1299 ****       117.2500 247.0000 362.2500 Du        
   1300 ****       117.2500 247.0000 362.5000 Du        
   1301 ****       117.2500 247.0000 362.7500 Du        
   1302 ****       117.2500 247.0000 363.0000 Du        
   1303 ****       117.2500 247.0000 363.2500 Du        
   1304 ****       117.2500 247.0000 363.5000 Du        
   1305 ****       117.2500 247.0000 363.7500 Du        
   1306 ****       117.2500 247.2500 359.7500 Du        
   1307 ****       117.2500 247.2500 360.0000 Du        
   1308 ****       117.2500 247.2500 360.2500 Du        
   1309 ****       117.2500 247.2500 360.5000 Du        
   1310 ****       117.2500 247.2500 360.7500 Du        
   1311 ****       117.2500 247.2500 361.0000 Du        
   1312 ****       117.2500 247.2500 361.2500 Du        
   1313 ****       117.2500 247.2500 361.5000 Du        
   1314 ****       117.2500 247.2500 361.7500 Du        
   1315 ****       117.2500 247.2500 362.0000 Du        
   1316 ****       117.2500 247.2500 362.2500 Du        
   1317 ****       117.2500 247.2500 362.5000 Du        
   1318 ****       117.2500 247.2500 362.7500 Du        
   1319 ****       117.2500 247.2500 363.0000 Du        
   1320 ****       117.2500 247.2500 363.2500 Du        
   1321 ****       117.2500 247.2500 363.5000 Du        
   1322 ****       117.2500 247.2500 363.7500 Du        
   1323 ****       117.2500 247.5000 359.7500 Du        
   1324 ****       117.2500 247.5000 360.0000 Du        
   1325 ****       117.2500 247.5000 360.2500 Du        
   1326 ****       117.2500 247.5000 360.5000 Du        
   1327 ****       117.2500 247.5000 360.7500 Du        
   1328 ****       117.2500 247.5000 361.0000 Du        
   1329 ****       117.2500 247.5000 361.2500 Du        
   1330 ****       117.2500 247.5000 361.5000 Du        
   1331 ****       117.2500 247.5000 361.7500 Du        
   1332 ****       117.2500 247.5000 362.0000 Du        
   1333 ****       117.2500 247.5000 362.2500 Du        
   1334 ****       117.2500 247.5000 362.5000 Du        
   1335 ****       117.2500 247.5000 362.7500 Du        
   1336 ****       117.2500 247.5000 363.0000 Du        
   1337 ****       117.2500 247.5000 363.2500 Du        
   1338 ****       117.2500 247.5000 363.5000 Du        
   1339 ****       117.2500 247.5000 363.7500 Du        
   1340 ****       117.2500 247.7500 360.0000 Du        
   1341 ****       117.2500 247.7500 360.2500 Du        
   1342 ****       117.2500 247.7500 360.5000 Du        
   1343 ****       117.2500 247.7500 360.7500 Du        
   1344 ****       117.2500 247.7500 361.0000 Du        
   1345 ****       117.2500 247.7500 361.2500 Du        
   1346 ****       117.2500 247.7500 361.5000 Du        
   1347 ****       117.2500 247.7500 361.7500 Du        
   1348 ****       117.2500 247.7500 362.0000 Du        
   1349 ****       117.2500 247.7500 362.2500 Du        
   1350 ****       117.2500 247.7500 362.5000 Du        
   1351 ****       117.2500 247.7500 362.7500 Du        
   1352 ****       117.2500 247.7500 363.0000 Du        
   1353 ****       117.2500 247.7500 363.2500 Du        
   1354 ****       117.2500 247.7500 363.5000 Du        
   1355 ****       117.2500 248.0000 360.0000 Du        
   1356 ****       117.2500 248.0000 360.2500 Du        
   1357 ****       117.2500 248.0000 360.5000 Du        
   1358 ****       117.2500 248.0000 360.7500 Du        
   1359 ****       117.2500 248.0000 361.0000 Du        
   1360 ****       117.2500 248.0000 361.2500 Du        
   1361 ****       117.2500 248.0000 361.5000 Du        
   1362 ****       117.2500 248.0000 361.7500 Du        
   1363 ****       117.2500 248.0000 362.0000 Du        
   1364 ****       117.2500 248.0000 362.2500 Du        
   1365 ****       117.2500 248.0000 362.5000 Du        
   1366 ****       117.2500 248.0000 362.7500 Du        
   1367 ****       117.2500 248.0000 363.0000 Du        
   1368 ****       117.2500 248.2500 360.2500 Du        
   1369 ****       117.2500 248.2500 360.5000 Du        
   1370 ****       117.2500 248.2500 360.7500 Du        
   1371 ****       117.2500 248.2500 361.0000 Du        
   1372 ****       117.2500 248.2500 361.2500 Du        
   1373 ****       117.2500 248.2500 361.5000 Du        
   1374 ****       117.2500 248.2500 361.7500 Du        
   1375 ****       117.2500 248.2500 362.0000 Du        
   1376 ****       117.2500 248.5000 360.5000 Du        
   1377 ****       117.2500 248.5000 360.7500 Du        
   1378 ****       117.2500 248.5000 361.0000 Du        
   1379 ****       117.2500 248.5000 361.2500 Du        
   1380 ****       117.2500 248.7500 360.7500 Du        
   1381 ****       117.2500 248.7500 361.0000 Du        
   1382 ****       117.5000 243.7500 360.5000 Du        
   1383 ****       117.5000 244.0000 360.2500 Du        
   1384 ****       117.5000 244.0000 360.5000 Du        
   1385 ****       117.5000 244.0000 360.7500 Du        
   1386 ****       117.5000 244.2500 360.2500 Du        
   1387 ****       117.5000 244.2500 360.5000 Du        
   1388 ****       117.5000 244.2500 360.7500 Du        
   1389 ****       117.5000 244.5000 360.0000 Du        
   1390 ****       117.5000 244.5000 360.2500 Du        
   1391 ****       117.5000 244.5000 360.5000 Du        
   1392 ****       117.5000 244.5000 360.7500 Du        
   1393 ****       117.5000 244.5000 361.0000 Du        
   1394 ****       117.5000 244.7500 360.0000 Du        
   1395 ****       117.5000 244.7500 360.2500 Du        
   1396 ****       117.5000 244.7500 360.5000 Du        
   1397 ****       117.5000 244.7500 360.7500 Du        
   1398 ****       117.5000 244.7500 361.0000 Du        
   1399 ****       117.5000 245.0000 360.0000 Du        
   1400 ****       117.5000 245.0000 360.2500 Du        
   1401 ****       117.5000 245.0000 360.5000 Du        
   1402 ****       117.5000 245.0000 360.7500 Du        
   1403 ****       117.5000 245.0000 361.0000 Du        
   1404 ****       117.5000 245.0000 361.2500 Du        
   1405 ****       117.5000 245.2500 359.7500 Du        
   1406 ****       117.5000 245.2500 360.0000 Du        
   1407 ****       117.5000 245.2500 360.2500 Du        
   1408 ****       117.5000 245.2500 360.5000 Du        
   1409 ****       117.5000 245.2500 360.7500 Du        
   1410 ****       117.5000 245.2500 361.0000 Du        
   1411 ****       117.5000 245.2500 361.2500 Du        
   1412 ****       117.5000 245.2500 361.5000 Du        
   1413 ****       117.5000 245.5000 359.7500 Du        
   1414 ****       117.5000 245.5000 360.0000 Du        
   1415 ****       117.5000 245.5000 360.2500 Du        
   1416 ****       117.5000 245.5000 360.5000 Du        
   1417 ****       117.5000 245.5000 360.7500 Du        
   1418 ****       117.5000 245.5000 361.0000 Du        
   1419 ****       117.5000 245.5000 361.2500 Du        
   1420 ****       117.5000 245.5000 361.5000 Du        
   1421 ****       117.5000 245.5000 361.7500 Du        
   1422 ****       117.5000 245.7500 359.5000 Du        
   1423 ****       117.5000 245.7500 359.7500 Du        
   1424 ****       117.5000 245.7500 360.0000 Du        
   1425 ****       117.5000 245.7500 360.2500 Du        
   1426 ****       117.5000 245.7500 360.5000 Du        
   1427 ****       117.5000 245.7500 360.7500 Du        
   1428 ****       117.5000 245.7500 361.0000 Du        
   1429 ****       117.5000 245.7500 361.2500 Du        
   1430 ****       117.5000 245.7500 361.5000 Du        
   1431 ****       117.5000 245.7500 361.7500 Du        
   1432 ****       117.5000 245.7500 362.0000 Du        
   1433 ****       117.5000 245.7500 362.2500 Du        
   1434 ****       117.5000 246.0000 359.5000 Du        
   1435 ****       117.5000 246.0000 359.7500 Du        
   1436 ****       117.5000 246.0000 360.0000 Du        
   1437 ****       117.5000 246.0000 360.2500 Du        
   1438 ****       117.5000 246.0000 360.5000 Du        
   1439 ****       117.5000 246.0000 360.7500 Du        
   1440 ****       117.5000 246.0000 361.0000 Du        
   1441 ****       117.5000 246.0000 361.2500 Du        
   1442 ****       117.5000 246.0000 361.5000 Du        
   1443 ****       117.5000 246.0000 361.7500 Du        
   1444 ****       117.5000 246.0000 362.0000 Du        
   1445 ****       117.5000 246.0000 362.2500 Du        
   1446 ****       117.5000 246.0000 362.5000 Du        
   1447 ****       117.5000 246.0000 362.7500 Du        
   1448 ****       117.5000 246.0000 363.0000 Du        
   1449 ****       117.5000 246.0000 363.2500 Du        
   1450 ****       117.5000 246.2500 359.5000 Du        
   1451 ****       117.5000 246.2500 359.7500 Du        
   1452 ****       117.5000 246.2500 360.0000 Du        
   1453 ****       117.5000 246.2500 360.2500 Du        
   1454 ****       117.5000 246.2500 360.5000 Du        
   1455 ****       117.5000 246.2500 360.7500 Du        
   1456 ****       117.5000 246.2500 361.0000 Du        
   1457 ****       117.5000 246.2500 361.2500 Du        
   1458 ****       117.5000 246.2500 361.5000 Du        
   1459 ****       117.5000 246.2500 361.7500 Du        
   1460 ****       117.5000 246.2500 362.0000 Du        
   1461 ****       117.5000 246.2500 362.2500 Du        
   1462 ****       117.5000 246.2500 362.5000 Du        
   1463 ****       117.5000 246.2500 362.7500 Du        
   1464 ****       117.5000 246.2500 363.0000 Du        
   1465 ****       117.5000 246.2500 363.2500 Du        
   1466 ****       117.5000 246.2500 363.5000 Du        
   1467 ****       117.5000 246.5000 359.5000 Du        
   1468 ****       117.5000 246.5000 359.7500 Du        
   1469 ****       117.5000 246.5000 360.0000 Du        
   1470 ****       117.5000 246.5000 360.2500 Du        
   1471 ****       117.5000 246.5000 360.5000 Du        
   1472 ****       117.5000 246.5000 360.7500 Du        
   1473 ****       117.5000 246.5000 361.0000 Du        
   1474 ****       117.5000 246.5000 361.2500 Du        
   1475 ****       117.5000 246.5000 361.5000 Du        
   1476 ****       117.5000 246.5000 361.7500 Du        
   1477 ****       117.5000 246.5000 362.0000 Du        
   1478 ****       117.5000 246.5000 362.2500 Du        
   1479 ****       117.5000 246.5000 362.5000 Du        
   1480 ****       117.5000 246.5000 362.7500 Du        
   1481 ****       117.5000 246.5000 363.0000 Du        
   1482 ****       117.5000 246.5000 363.2500 Du        
   1483 ****       117.5000 246.5000 363.5000 Du        
   1484 ****       117.5000 246.7500 359.5000 Du        
   1485 ****       117.5000 246.7500 359.7500 Du        
   1486 ****       117.5000 246.7500 360.0000 Du        
   1487 ****       117.5000 246.7500 360.2500 Du        
   1488 ****       117.5000 246.7500 360.5000 Du        
   1489 ****       117.5000 246.7500 360.7500 Du        
   1490 ****       117.5000 246.7500 361.0000 Du        
   1491 ****       117.5000 246.7500 361.2500 Du        
   1492 ****       117.5000 246.7500 361.5000 Du        
   1493 ****       117.5000 246.7500 361.7500 Du        
   1494 ****       117.5000 246.7500 362.0000 Du        
   1495 ****       117.5000 246.7500 362.2500 Du        
   1496 ****       117.5000 246.7500 362.5000 Du        
   1497 ****       117.5000 246.7500 362.7500 Du        
   1498 ****       117.5000 246.7500 363.0000 Du        
   1499 ****       117.5000 246.7500 363.2500 Du        
   1500 ****       117.5000 246.7500 363.5000 Du        
   1501 ****       117.5000 246.7500 363.7500 Du        
   1502 ****       117.5000 247.0000 359.5000 Du        
   1503 ****       117.5000 247.0000 359.7500 Du        
   1504 ****       117.5000 247.0000 360.0000 Du        
   1505 ****       117.5000 247.0000 360.2500 Du        
   1506 ****       117.5000 247.0000 360.5000 Du        
   1507 ****       117.5000 247.0000 360.7500 Du        
   1508 ****       117.5000 247.0000 361.0000 Du        
   1509 ****       117.5000 247.0000 361.2500 Du        
   1510 ****       117.5000 247.0000 361.5000 Du        
   1511 ****       117.5000 247.0000 361.7500 Du        
   1512 ****       117.5000 247.0000 362.0000 Du        
   1513 ****       117.5000 247.0000 362.2500 Du        
   1514 ****       117.5000 247.0000 362.5000 Du        
   1515 ****       117.5000 247.0000 362.7500 Du        
   1516 ****       117.5000 247.0000 363.0000 Du        
   1517 ****       117.5000 247.0000 363.2500 Du        
   1518 ****       117.5000 247.0000 363.5000 Du        
   1519 ****       117.5000 247.0000 363.7500 Du        
   1520 ****       117.5000 247.2500 359.5000 Du        
   1521 ****       117.5000 247.2500 359.7500 Du        
   1522 ****       117.5000 247.2500 360.0000 Du        
   1523 ****       117.5000 247.2500 360.2500 Du        
   1524 ****       117.5000 247.2500 360.5000 Du        
   1525 ****       117.5000 247.2500 360.7500 Du        
   1526 ****       117.5000 247.2500 361.0000 Du        
   1527 ****       117.5000 247.2500 361.2500 Du        
   1528 ****       117.5000 247.2500 361.5000 Du        
   1529 ****       117.5000 247.2500 361.7500 Du        
   1530 ****       117.5000 247.2500 362.0000 Du        
   1531 ****       117.5000 247.2500 362.2500 Du        
   1532 ****       117.5000 247.2500 362.5000 Du        
   1533 ****       117.5000 247.2500 362.7500 Du        
   1534 ****       117.5000 247.2500 363.0000 Du        
   1535 ****       117.5000 247.2500 363.2500 Du        
   1536 ****       117.5000 247.2500 363.5000 Du        
   1537 ****       117.5000 247.2500 363.7500 Du        
   1538 ****       117.5000 247.5000 359.7500 Du        
   1539 ****       117.5000 247.5000 360.0000 Du        
   1540 ****       117.5000 247.5000 360.2500 Du        
   1541 ****       117.5000 247.5000 360.5000 Du        
   1542 ****       117.5000 247.5000 360.7500 Du        
   1543 ****       117.5000 247.5000 361.0000 Du        
   1544 ****       117.5000 247.5000 361.2500 Du        
   1545 ****       117.5000 247.5000 361.5000 Du        
   1546 ****       117.5000 247.5000 361.7500 Du        
   1547 ****       117.5000 247.5000 362.0000 Du        
   1548 ****       117.5000 247.5000 362.2500 Du        
   1549 ****       117.5000 247.5000 362.5000 Du        
   1550 ****       117.5000 247.5000 362.7500 Du        
   1551 ****       117.5000 247.5000 363.0000 Du        
   1552 ****       117.5000 247.5000 363.2500 Du        
   1553 ****       117.5000 247.5000 363.5000 Du        
   1554 ****       117.5000 247.7500 359.7500 Du        
   1555 ****       117.5000 247.7500 360.0000 Du        
   1556 ****       117.5000 247.7500 360.2500 Du        
   1557 ****       117.5000 247.7500 360.5000 Du        
   1558 ****       117.5000 247.7500 360.7500 Du        
   1559 ****       117.5000 247.7500 361.0000 Du        
   1560 ****       117.5000 247.7500 361.2500 Du        
   1561 ****       117.5000 247.7500 361.5000 Du        
   1562 ****       117.5000 247.7500 361.7500 Du        
   1563 ****       117.5000 247.7500 362.0000 Du        
   1564 ****       117.5000 247.7500 362.2500 Du        
   1565 ****       117.5000 247.7500 362.5000 Du        
   1566 ****       117.5000 247.7500 362.7500 Du        
   1567 ****       117.5000 247.7500 363.0000 Du        
   1568 ****       117.5000 247.7500 363.2500 Du        
   1569 ****       117.5000 248.0000 359.7500 Du        
   1570 ****       117.5000 248.0000 360.0000 Du        
   1571 ****       117.5000 248.0000 360.2500 Du        
   1572 ****       117.5000 248.0000 360.5000 Du        
   1573 ****       117.5000 248.0000 360.7500 Du        
   1574 ****       117.5000 248.0000 361.0000 Du        
   1575 ****       117.5000 248.0000 361.2500 Du        
   1576 ****       117.5000 248.0000 361.5000 Du        
   1577 ****       117.5000 248.0000 361.7500 Du        
   1578 ****       117.5000 248.0000 362.0000 Du        
   1579 ****       117.5000 248.0000 362.2500 Du        
   1580 ****       117.5000 248.0000 362.5000 Du        
   1581 ****       117.5000 248.0000 362.7500 Du        
   1582 ****       117.5000 248.2500 360.0000 Du        
   1583 ****       117.5000 248.2500 360.2500 Du        
   1584 ****       117.5000 248.2500 360.5000 Du        
   1585 ****       117.5000 248.2500 360.7500 Du        
   1586 ****       117.5000 248.2500 361.0000 Du        
   1587 ****       117.5000 248.2500 361.2500 Du        
   1588 ****       117.5000 248.2500 361.5000 Du        
   1589 ****       117.5000 248.2500 361.7500 Du        
   1590 ****       117.5000 248.2500 362.0000 Du        
   1591 ****       117.5000 248.5000 360.2500 Du        
   1592 ****       117.5000 248.5000 360.5000 Du        
   1593 ****       117.5000 248.5000 360.7500 Du        
   1594 ****       117.5000 248.5000 361.0000 Du        
   1595 ****       117.5000 248.5000 361.2500 Du        
   1596 ****       117.5000 248.7500 360.2500 Du        
   1597 ****       117.5000 248.7500 360.5000 Du        
   1598 ****       117.5000 248.7500 360.7500 Du        
   1599 ****       117.5000 248.7500 361.0000 Du        
   1600 ****       117.5000 249.0000 360.5000 Du        
   1601 ****       117.5000 249.0000 360.7500 Du        
   1602 ****       117.7500 244.0000 360.5000 Du        
   1603 ****       117.7500 244.2500 360.2500 Du        
   1604 ****       117.7500 244.2500 360.5000 Du        
   1605 ****       117.7500 244.2500 360.7500 Du        
   1606 ****       117.7500 244.5000 360.2500 Du        
   1607 ****       117.7500 244.5000 360.5000 Du        
   1608 ****       117.7500 244.5000 360.7500 Du        
   1609 ****       117.7500 244.7500 360.2500 Du        
   1610 ****       117.7500 244.7500 360.5000 Du        
   1611 ****       117.7500 244.7500 360.7500 Du        
   1612 ****       117.7500 245.0000 360.0000 Du        
   1613 ****       117.7500 245.0000 360.2500 Du        
   1614 ****       117.7500 245.0000 360.5000 Du        
   1615 ****       117.7500 245.0000 360.7500 Du        
   1616 ****       117.7500 245.0000 361.0000 Du        
   1617 ****       117.7500 245.2500 360.0000 Du        
   1618 ****       117.7500 245.2500 360.2500 Du        
   1619 ****       117.7500 245.2500 360.5000 Du        
   1620 ****       117.7500 245.2500 360.7500 Du        
   1621 ****       117.7500 245.2500 361.0000 Du        
   1622 ****       117.7500 245.2500 361.2500 Du        
   1623 ****       117.7500 245.5000 359.7500 Du        
   1624 ****       117.7500 245.5000 360.0000 Du        
   1625 ****       117.7500 245.5000 360.2500 Du        
   1626 ****       117.7500 245.5000 360.5000 Du        
   1627 ****       117.7500 245.5000 360.7500 Du        
   1628 ****       117.7500 245.5000 361.0000 Du        
   1629 ****       117.7500 245.5000 361.2500 Du        
   1630 ****       117.7500 245.5000 361.5000 Du        
   1631 ****       117.7500 245.7500 359.5000 Du        
   1632 ****       117.7500 245.7500 359.7500 Du        
   1633 ****       117.7500 245.7500 360.0000 Du        
   1634 ****       117.7500 245.7500 360.2500 Du        
   1635 ****       117.7500 245.7500 360.5000 Du        
   1636 ****       117.7500 245.7500 360.7500 Du        
   1637 ****       117.7500 245.7500 361.0000 Du        
   1638 ****       117.7500 245.7500 361.2500 Du        
   1639 ****       117.7500 245.7500 361.5000 Du        
   1640 ****       117.7500 245.7500 361.7500 Du        
   1641 ****       117.7500 245.7500 362.0000 Du        
   1642 ****       117.7500 246.0000 359.5000 Du        
   1643 ****       117.7500 246.0000 359.7500 Du        
   1644 ****       117.7500 246.0000 360.0000 Du        
   1645 ****       117.7500 246.0000 360.2500 Du        
   1646 ****       117.7500 246.0000 360.5000 Du        
   1647 ****       117.7500 246.0000 360.7500 Du        
   1648 ****       117.7500 246.0000 361.0000 Du        
   1649 ****       117.7500 246.0000 361.2500 Du        
   1650 ****       117.7500 246.0000 361.5000 Du        
   1651 ****       117.7500 246.0000 361.7500 Du        
   1652 ****       117.7500 246.0000 362.0000 Du        
   1653 ****       117.7500 246.0000 362.2500 Du        
   1654 ****       117.7500 246.0000 362.5000 Du        
   1655 ****       117.7500 246.0000 362.7500 Du        
   1656 ****       117.7500 246.2500 359.2500 Du        
   1657 ****       117.7500 246.2500 359.5000 Du        
   1658 ****       117.7500 246.2500 359.7500 Du        
   1659 ****       117.7500 246.2500 360.0000 Du        
   1660 ****       117.7500 246.2500 360.2500 Du        
   1661 ****       117.7500 246.2500 360.5000 Du        
   1662 ****       117.7500 246.2500 360.7500 Du        
   1663 ****       117.7500 246.2500 361.0000 Du        
   1664 ****       117.7500 246.2500 361.2500 Du        
   1665 ****       117.7500 246.2500 361.5000 Du        
   1666 ****       117.7500 246.2500 361.7500 Du        
   1667 ****       117.7500 246.2500 362.0000 Du        
   1668 ****       117.7500 246.2500 362.2500 Du        
   1669 ****       117.7500 246.2500 362.5000 Du        
   1670 ****       117.7500 246.2500 362.7500 Du        
   1671 ****       117.7500 246.2500 363.0000 Du        
   1672 ****       117.7500 246.2500 363.2500 Du        
   1673 ****       117.7500 246.5000 359.2500 Du        
   1674 ****       117.7500 246.5000 359.5000 Du        
   1675 ****       117.7500 246.5000 359.7500 Du        
   1676 ****       117.7500 246.5000 360.0000 Du        
   1677 ****       117.7500 246.5000 360.2500 Du        
   1678 ****       117.7500 246.5000 360.5000 Du        
   1679 ****       117.7500 246.5000 360.7500 Du        
   1680 ****       117.7500 246.5000 361.0000 Du        
   1681 ****       117.7500 246.5000 361.2500 Du        
   1682 ****       117.7500 246.5000 361.5000 Du        
   1683 ****       117.7500 246.5000 361.7500 Du        
   1684 ****       117.7500 246.5000 362.0000 Du        
   1685 ****       117.7500 246.5000 362.2500 Du        
   1686 ****       117.7500 246.5000 362.5000 Du        
   1687 ****       117.7500 246.5000 362.7500 Du        
   1688 ****       117.7500 246.5000 363.0000 Du        
   1689 ****       117.7500 246.5000 363.2500 Du        
   1690 ****       117.7500 246.5000 363.5000 Du        
   1691 ****       117.7500 246.7500 359.2500 Du        
   1692 ****       117.7500 246.7500 359.5000 Du        
   1693 ****       117.7500 246.7500 359.7500 Du        
   1694 ****       117.7500 246.7500 360.0000 Du        
   1695 ****       117.7500 246.7500 360.2500 Du        
   1696 ****       117.7500 246.7500 360.5000 Du        
   1697 ****       117.7500 246.7500 360.7500 Du        
   1698 ****       117.7500 246.7500 361.0000 Du        
   1699 ****       117.7500 246.7500 361.2500 Du        
   1700 ****       117.7500 246.7500 361.5000 Du        
   1701 ****       117.7500 246.7500 361.7500 Du        
   1702 ****       117.7500 246.7500 362.0000 Du        
   1703 ****       117.7500 246.7500 362.2500 Du        
   1704 ****       117.7500 246.7500 362.5000 Du        
   1705 ****       117.7500 246.7500 362.7500 Du        
   1706 ****       117.7500 246.7500 363.0000 Du        
   1707 ****       117.7500 246.7500 363.2500 Du        
   1708 ****       117.7500 246.7500 363.5000 Du        
   1709 ****       117.7500 247.0000 359.5000 Du        
   1710 ****       117.7500 247.0000 359.7500 Du        
   1711 ****       117.7500 247.0000 360.0000 Du        
   1712 ****       117.7500 247.0000 360.2500 Du        
   1713 ****       117.7500 247.0000 360.5000 Du        
   1714 ****       117.7500 247.0000 360.7500 Du        
   1715 ****       117.7500 247.0000 361.0000 Du        
   1716 ****       117.7500 247.0000 361.2500 Du        
   1717 ****       117.7500 247.0000 361.5000 Du        
   1718 ****       117.7500 247.0000 361.7500 Du        
   1719 ****       117.7500 247.0000 362.0000 Du        
   1720 ****       117.7500 247.0000 362.2500 Du        
   1721 ****       117.7500 247.0000 362.5000 Du        
   1722 ****       117.7500 247.0000 362.7500 Du        
   1723 ****       117.7500 247.0000 363.0000 Du        
   1724 ****       117.7500 247.0000 363.2500 Du        
   1725 ****       117.7500 247.0000 363.5000 Du        
   1726 ****       117.7500 247.2500 359.5000 Du        
   1727 ****       117.7500 247.2500 359.7500 Du        
   1728 ****       117.7500 247.2500 360.0000 Du        
   1729 ****       117.7500 247.2500 360.2500 Du        
   1730 ****       117.7500 247.2500 360.5000 Du        
   1731 ****       117.7500 247.2500 360.7500 Du        
   1732 ****       117.7500 247.2500 361.0000 Du        
   1733 ****       117.7500 247.2500 361.2500 Du        
   1734 ****       117.7500 247.2500 361.5000 Du        
   1735 ****       117.7500 247.2500 361.7500 Du        
   1736 ****       117.7500 247.2500 362.0000 Du        
   1737 ****       117.7500 247.2500 362.2500 Du        
   1738 ****       117.7500 247.2500 362.5000 Du        
   1739 ****       117.7500 247.2500 362.7500 Du        
   1740 ****       117.7500 247.2500 363.0000 Du        
   1741 ****       117.7500 247.2500 363.2500 Du        
   1742 ****       117.7500 247.2500 363.5000 Du        
   1743 ****       117.7500 247.5000 359.5000 Du        
   1744 ****       117.7500 247.5000 359.7500 Du        
   1745 ****       117.7500 247.5000 360.0000 Du        
   1746 ****       117.7500 247.5000 360.2500 Du        
   1747 ****       117.7500 247.5000 360.5000 Du        
   1748 ****       117.7500 247.5000 360.7500 Du        
   1749 ****       117.7500 247.5000 361.0000 Du        
   1750 ****       117.7500 247.5000 361.2500 Du        
   1751 ****       117.7500 247.5000 361.5000 Du        
   1752 ****       117.7500 247.5000 361.7500 Du        
   1753 ****       117.7500 247.5000 362.0000 Du        
   1754 ****       117.7500 247.5000 362.2500 Du        
   1755 ****       117.7500 247.5000 362.5000 Du        
   1756 ****       117.7500 247.5000 362.7500 Du        
   1757 ****       117.7500 247.5000 363.0000 Du        
   1758 ****       117.7500 247.5000 363.2500 Du        
   1759 ****       117.7500 247.7500 359.5000 Du        
   1760 ****       117.7500 247.7500 359.7500 Du        
   1761 ****       117.7500 247.7500 360.0000 Du        
   1762 ****       117.7500 247.7500 360.2500 Du        
   1763 ****       117.7500 247.7500 360.5000 Du        
   1764 ****       117.7500 247.7500 360.7500 Du        
   1765 ****       117.7500 247.7500 361.0000 Du        
   1766 ****       117.7500 247.7500 361.2500 Du        
   1767 ****       117.7500 247.7500 361.5000 Du        
   1768 ****       117.7500 247.7500 361.7500 Du        
   1769 ****       117.7500 247.7500 362.0000 Du        
   1770 ****       117.7500 247.7500 362.2500 Du        
   1771 ****       117.7500 247.7500 362.5000 Du        
   1772 ****       117.7500 247.7500 362.7500 Du        
   1773 ****       117.7500 247.7500 363.0000 Du        
   1774 ****       117.7500 248.0000 359.7500 Du        
   1775 ****       117.7500 248.0000 360.0000 Du        
   1776 ****       117.7500 248.0000 360.2500 Du        
   1777 ****       117.7500 248.0000 360.5000 Du        
   1778 ****       117.7500 248.0000 360.7500 Du        
   1779 ****       117.7500 248.0000 361.0000 Du        
   1780 ****       117.7500 248.0000 361.2500 Du        
   1781 ****       117.7500 248.0000 361.5000 Du        
   1782 ****       117.7500 248.0000 361.7500 Du        
   1783 ****       117.7500 248.0000 362.0000 Du        
   1784 ****       117.7500 248.0000 362.2500 Du        
   1785 ****       117.7500 248.2500 359.7500 Du        
   1786 ****       117.7500 248.2500 360.0000 Du        
   1787 ****       117.7500 248.2500 360.2500 Du        
   1788 ****       117.7500 248.2500 360.5000 Du        
   1789 ****       117.7500 248.2500 360.7500 Du        
   1790 ****       117.7500 248.2500 361.0000 Du        
   1791 ****       117.7500 248.2500 361.2500 Du        
   1792 ****       117.7500 248.2500 361.5000 Du        
   1793 ****       117.7500 248.2500 361.7500 Du        
   1794 ****       117.7500 248.5000 359.7500 Du        
   1795 ****       117.7500 248.5000 360.0000 Du        
   1796 ****       117.7500 248.5000 360.2500 Du        
   1797 ****       117.7500 248.5000 360.5000 Du        
   1798 ****       117.7500 248.5000 360.7500 Du        
   1799 ****       117.7500 248.5000 361.0000 Du        
   1800 ****       117.7500 248.5000 361.2500 Du        
   1801 ****       117.7500 248.7500 360.0000 Du        
   1802 ****       117.7500 248.7500 360.2500 Du        
   1803 ****       117.7500 248.7500 360.5000 Du        
   1804 ****       117.7500 248.7500 360.7500 Du        
   1805 ****       117.7500 248.7500 361.0000 Du        
   1806 ****       117.7500 249.0000 360.2500 Du        
   1807 ****       117.7500 249.0000 360.5000 Du        
   1808 ****       117.7500 249.0000 360.7500 Du        
   1809 ****       117.7500 249.2500 360.2500 Du        
   1810 ****       117.7500 249.2500 360.5000 Du        
   1811 ****       118.0000 244.5000 360.5000 Du        
   1812 ****       118.0000 244.7500 360.2500 Du        
   1813 ****       118.0000 244.7500 360.5000 Du        
   1814 ****       118.0000 244.7500 360.7500 Du        
   1815 ****       118.0000 245.0000 360.2500 Du        
   1816 ****       118.0000 245.0000 360.5000 Du        
   1817 ****       118.0000 245.0000 360.7500 Du        
   1818 ****       118.0000 245.2500 360.0000 Du        
   1819 ****       118.0000 245.2500 360.2500 Du        
   1820 ****       118.0000 245.2500 360.5000 Du        
   1821 ****       118.0000 245.2500 360.7500 Du        
   1822 ****       118.0000 245.2500 361.0000 Du        
   1823 ****       118.0000 245.5000 360.0000 Du        
   1824 ****       118.0000 245.5000 360.2500 Du        
   1825 ****       118.0000 245.5000 360.5000 Du        
   1826 ****       118.0000 245.5000 360.7500 Du        
   1827 ****       118.0000 245.5000 361.0000 Du        
   1828 ****       118.0000 245.5000 361.2500 Du        
   1829 ****       118.0000 245.7500 359.7500 Du        
   1830 ****       118.0000 245.7500 360.0000 Du        
   1831 ****       118.0000 245.7500 360.2500 Du        
   1832 ****       118.0000 245.7500 360.5000 Du        
   1833 ****       118.0000 245.7500 360.7500 Du        
   1834 ****       118.0000 245.7500 361.0000 Du        
   1835 ****       118.0000 245.7500 361.2500 Du        
   1836 ****       118.0000 245.7500 361.5000 Du        
   1837 ****       118.0000 246.0000 359.5000 Du        
   1838 ****       118.0000 246.0000 359.7500 Du        
   1839 ****       118.0000 246.0000 360.0000 Du        
   1840 ****       118.0000 246.0000 360.2500 Du        
   1841 ****       118.0000 246.0000 360.5000 Du        
   1842 ****       118.0000 246.0000 360.7500 Du        
   1843 ****       118.0000 246.0000 361.0000 Du        
   1844 ****       118.0000 246.0000 361.2500 Du        
   1845 ****       118.0000 246.0000 361.5000 Du        
   1846 ****       118.0000 246.0000 361.7500 Du        
   1847 ****       118.0000 246.0000 362.0000 Du        
   1848 ****       118.0000 246.2500 359.2500 Du        
   1849 ****       118.0000 246.2500 359.5000 Du        
   1850 ****       118.0000 246.2500 359.7500 Du        
   1851 ****       118.0000 246.2500 360.0000 Du        
   1852 ****       118.0000 246.2500 360.2500 Du        
   1853 ****       118.0000 246.2500 360.5000 Du        
   1854 ****       118.0000 246.2500 360.7500 Du        
   1855 ****       118.0000 246.2500 361.0000 Du        
   1856 ****       118.0000 246.2500 361.2500 Du        
   1857 ****       118.0000 246.2500 361.5000 Du        
   1858 ****       118.0000 246.2500 361.7500 Du        
   1859 ****       118.0000 246.2500 362.0000 Du        
   1860 ****       118.0000 246.2500 362.2500 Du        
   1861 ****       118.0000 246.2500 362.5000 Du        
   1862 ****       118.0000 246.2500 362.7500 Du        
   1863 ****       118.0000 246.2500 363.0000 Du        
   1864 ****       118.0000 246.5000 359.2500 Du        
   1865 ****       118.0000 246.5000 359.5000 Du        
   1866 ****       118.0000 246.5000 359.7500 Du        
   1867 ****       118.0000 246.5000 360.0000 Du        
   1868 ****       118.0000 246.5000 360.2500 Du        
   1869 ****       118.0000 246.5000 360.5000 Du        
   1870 ****       118.0000 246.5000 360.7500 Du        
   1871 ****       118.0000 246.5000 361.0000 Du        
   1872 ****       118.0000 246.5000 361.2500 Du        
   1873 ****       118.0000 246.5000 361.5000 Du        
   1874 ****       118.0000 246.5000 361.7500 Du        
   1875 ****       118.0000 246.5000 362.0000 Du        
   1876 ****       118.0000 246.5000 362.2500 Du        
   1877 ****       118.0000 246.5000 362.5000 Du        
   1878 ****       118.0000 246.5000 362.7500 Du        
   1879 ****       118.0000 246.5000 363.0000 Du        
   1880 ****       118.0000 246.5000 363.2500 Du        
   1881 ****       118.0000 246.7500 359.2500 Du        
   1882 ****       118.0000 246.7500 359.5000 Du        
   1883 ****       118.0000 246.7500 359.7500 Du        
   1884 ****       118.0000 246.7500 360.0000 Du        
   1885 ****       118.0000 246.7500 360.2500 Du        
   1886 ****       118.0000 246.7500 360.5000 Du        
   1887 ****       118.0000 246.7500 360.7500 Du        
   1888 ****       118.0000 246.7500 361.0000 Du        
   1889 ****       118.0000 246.7500 361.2500 Du        
   1890 ****       118.0000 246.7500 361.5000 Du        
   1891 ****       118.0000 246.7500 361.7500 Du        
   1892 ****       118.0000 246.7500 362.0000 Du        
   1893 ****       118.0000 246.7500 362.2500 Du        
   1894 ****       118.0000 246.7500 362.5000 Du        
   1895 ****       118.0000 246.7500 362.7500 Du        
   1896 ****       118.0000 246.7500 363.0000 Du        
   1897 ****       118.0000 246.7500 363.2500 Du        
   1898 ****       118.0000 246.7500 363.5000 Du        
   1899 ****       118.0000 247.0000 359.2500 Du        
   1900 ****       118.0000 247.0000 359.5000 Du        
   1901 ****       118.0000 247.0000 359.7500 Du        
   1902 ****       118.0000 247.0000 360.0000 Du        
   1903 ****       118.0000 247.0000 360.2500 Du        
   1904 ****       118.0000 247.0000 360.5000 Du        
   1905 ****       118.0000 247.0000 360.7500 Du        
   1906 ****       118.0000 247.0000 361.0000 Du        
   1907 ****       118.0000 247.0000 361.2500 Du        
   1908 ****       118.0000 247.0000 361.5000 Du        
   1909 ****       118.0000 247.0000 361.7500 Du        
   1910 ****       118.0000 247.0000 362.0000 Du        
   1911 ****       118.0000 247.0000 362.2500 Du        
   1912 ****       118.0000 247.0000 362.5000 Du        
   1913 ****       118.0000 247.0000 362.7500 Du        
   1914 ****       118.0000 247.0000 363.0000 Du        
   1915 ****       118.0000 247.0000 363.2500 Du        
   1916 ****       118.0000 247.2500 359.2500 Du        
   1917 ****       118.0000 247.2500 359.5000 Du        
   1918 ****       118.0000 247.2500 359.7500 Du        
   1919 ****       118.0000 247.2500 360.0000 Du        
   1920 ****       118.0000 247.2500 360.2500 Du        
   1921 ****       118.0000 247.2500 360.5000 Du        
   1922 ****       118.0000 247.2500 360.7500 Du        
   1923 ****       118.0000 247.2500 361.0000 Du        
   1924 ****       118.0000 247.2500 361.2500 Du        
   1925 ****       118.0000 247.2500 361.5000 Du        
   1926 ****       118.0000 247.2500 361.7500 Du        
   1927 ****       118.0000 247.2500 362.0000 Du        
   1928 ****       118.0000 247.2500 362.2500 Du        
   1929 ****       118.0000 247.2500 362.5000 Du        
   1930 ****       118.0000 247.2500 362.7500 Du        
   1931 ****       118.0000 247.2500 363.0000 Du        
   1932 ****       118.0000 247.2500 363.2500 Du        
   1933 ****       118.0000 247.5000 359.5000 Du        
   1934 ****       118.0000 247.5000 359.7500 Du        
   1935 ****       118.0000 247.5000 360.0000 Du        
   1936 ****       118.0000 247.5000 360.2500 Du        
   1937 ****       118.0000 247.5000 360.5000 Du        
   1938 ****       118.0000 247.5000 360.7500 Du        
   1939 ****       118.0000 247.5000 361.0000 Du        
   1940 ****       118.0000 247.5000 361.2500 Du        
   1941 ****       118.0000 247.5000 361.5000 Du        
   1942 ****       118.0000 247.5000 361.7500 Du        
   1943 ****       118.0000 247.5000 362.0000 Du        
   1944 ****       118.0000 247.5000 362.2500 Du        
   1945 ****       118.0000 247.5000 362.5000 Du        
   1946 ****       118.0000 247.5000 362.7500 Du        
   1947 ****       118.0000 247.7500 359.5000 Du        
   1948 ****       118.0000 247.7500 359.7500 Du        
   1949 ****       118.0000 247.7500 360.0000 Du        
   1950 ****       118.0000 247.7500 360.2500 Du        
   1951 ****       118.0000 247.7500 360.5000 Du        
   1952 ****       118.0000 247.7500 360.7500 Du        
   1953 ****       118.0000 247.7500 361.0000 Du        
   1954 ****       118.0000 247.7500 361.2500 Du        
   1955 ****       118.0000 247.7500 361.5000 Du        
   1956 ****       118.0000 247.7500 361.7500 Du        
   1957 ****       118.0000 247.7500 362.0000 Du        
   1958 ****       118.0000 247.7500 362.2500 Du        
   1959 ****       118.0000 248.0000 359.5000 Du        
   1960 ****       118.0000 248.0000 359.7500 Du        
   1961 ****       118.0000 248.0000 360.0000 Du        
   1962 ****       118.0000 248.0000 360.2500 Du        
   1963 ****       118.0000 248.0000 360.5000 Du        
   1964 ****       118.0000 248.0000 360.7500 Du        
   1965 ****       118.0000 248.0000 361.0000 Du        
   1966 ****       118.0000 248.0000 361.2500 Du        
   1967 ****       118.0000 248.0000 361.5000 Du        
   1968 ****       118.0000 248.0000 361.7500 Du        
   1969 ****       118.0000 248.2500 359.5000 Du        
   1970 ****       118.0000 248.2500 359.7500 Du        
   1971 ****       118.0000 248.2500 360.0000 Du        
   1972 ****       118.0000 248.2500 360.2500 Du        
   1973 ****       118.0000 248.2500 360.5000 Du        
   1974 ****       118.0000 248.2500 360.7500 Du        
   1975 ****       118.0000 248.2500 361.0000 Du        
   1976 ****       118.0000 248.2500 361.2500 Du        
   1977 ****       118.0000 248.2500 361.5000 Du        
   1978 ****       118.0000 248.5000 359.7500 Du        
   1979 ****       118.0000 248.5000 360.0000 Du        
   1980 ****       118.0000 248.5000 360.2500 Du        
   1981 ****       118.0000 248.5000 360.5000 Du        
   1982 ****       118.0000 248.5000 360.7500 Du        
   1983 ****       118.0000 248.5000 361.0000 Du        
   1984 ****       118.0000 248.7500 359.7500 Du        
   1985 ****       118.0000 248.7500 360.0000 Du        
   1986 ****       118.0000 248.7500 360.2500 Du        
   1987 ****       118.0000 248.7500 360.5000 Du        
   1988 ****       118.0000 248.7500 360.7500 Du        
   1989 ****       118.0000 248.7500 361.0000 Du        
   1990 ****       118.0000 249.0000 359.7500 Du        
   1991 ****       118.0000 249.0000 360.0000 Du        
   1992 ****       118.0000 249.0000 360.2500 Du        
   1993 ****       118.0000 249.0000 360.5000 Du        
   1994 ****       118.0000 249.0000 360.7500 Du        
   1995 ****       118.0000 249.2500 360.0000 Du        
   1996 ****       118.0000 249.2500 360.2500 Du        
   1997 ****       118.0000 249.2500 360.5000 Du        
   1998 ****       118.0000 249.5000 360.2500 Du        
   1999 ****       118.0000 249.5000 360.5000 Du        
   2000 ****       118.0000 249.7500 360.2500 Du        
   2001 ****       118.2500 244.7500 360.5000 Du        
   2002 ****       118.2500 245.0000 360.2500 Du        
   2003 ****       118.2500 245.0000 360.5000 Du        
   2004 ****       118.2500 245.2500 360.2500 Du        
   2005 ****       118.2500 245.2500 360.5000 Du        
   2006 ****       118.2500 245.2500 360.7500 Du        
   2007 ****       118.2500 245.5000 360.0000 Du        
   2008 ****       118.2500 245.5000 360.2500 Du        
   2009 ****       118.2500 245.5000 360.5000 Du        
   2010 ****       118.2500 245.5000 360.7500 Du        
   2011 ****       118.2500 245.5000 361.0000 Du        
   2012 ****       118.2500 245.7500 359.7500 Du        
   2013 ****       118.2500 245.7500 360.0000 Du        
   2014 ****       118.2500 245.7500 360.2500 Du        
   2015 ****       118.2500 245.7500 360.5000 Du        
   2016 ****       118.2500 245.7500 360.7500 Du        
   2017 ****       118.2500 245.7500 361.0000 Du        
   2018 ****       118.2500 245.7500 361.2500 Du        
   2019 ****       118.2500 246.0000 359.5000 Du        
   2020 ****       118.2500 246.0000 359.7500 Du        
   2021 ****       118.2500 246.0000 360.0000 Du        
   2022 ****       118.2500 246.0000 360.2500 Du        
   2023 ****       118.2500 246.0000 360.5000 Du        
   2024 ****       118.2500 246.0000 360.7500 Du        
   2025 ****       118.2500 246.0000 361.0000 Du        
   2026 ****       118.2500 246.0000 361.2500 Du        
   2027 ****       118.2500 246.0000 361.5000 Du        
   2028 ****       118.2500 246.0000 361.7500 Du        
   2029 ****       118.2500 246.2500 359.5000 Du        
   2030 ****       118.2500 246.2500 359.7500 Du        
   2031 ****       118.2500 246.2500 360.0000 Du        
   2032 ****       118.2500 246.2500 360.2500 Du        
   2033 ****       118.2500 246.2500 360.5000 Du        
   2034 ****       118.2500 246.2500 360.7500 Du        
   2035 ****       118.2500 246.2500 361.0000 Du        
   2036 ****       118.2500 246.2500 361.2500 Du        
   2037 ****       118.2500 246.2500 361.5000 Du        
   2038 ****       118.2500 246.2500 361.7500 Du        
   2039 ****       118.2500 246.2500 362.0000 Du        
   2040 ****       118.2500 246.2500 362.2500 Du        
   2041 ****       118.2500 246.5000 359.2500 Du        
   2042 ****       118.2500 246.5000 359.5000 Du        
   2043 ****       118.2500 246.5000 359.7500 Du        
   2044 ****       118.2500 246.5000 360.0000 Du        
   2045 ****       118.2500 246.5000 360.2500 Du        
   2046 ****       118.2500 246.5000 360.5000 Du        
   2047 ****       118.2500 246.5000 360.7500 Du        
   2048 ****       118.2500 246.5000 361.0000 Du        
   2049 ****       118.2500 246.5000 361.2500 Du        
   2050 ****       118.2500 246.5000 361.5000 Du        
   2051 ****       118.2500 246.5000 361.7500 Du        
   2052 ****       118.2500 246.5000 362.0000 Du        
   2053 ****       118.2500 246.5000 362.2500 Du        
   2054 ****       118.2500 246.5000 362.5000 Du        
   2055 ****       118.2500 246.5000 362.7500 Du        
   2056 ****       118.2500 246.5000 363.0000 Du        
   2057 ****       118.2500 246.7500 359.2500 Du        
   2058 ****       118.2500 246.7500 359.5000 Du        
   2059 ****       118.2500 246.7500 359.7500 Du        
   2060 ****       118.2500 246.7500 360.0000 Du        
   2061 ****       118.2500 246.7500 360.2500 Du        
   2062 ****       118.2500 246.7500 360.5000 Du        
   2063 ****       118.2500 246.7500 360.7500 Du        
   2064 ****       118.2500 246.7500 361.0000 Du        
   2065 ****       118.2500 246.7500 361.2500 Du        
   2066 ****       118.2500 246.7500 361.5000 Du        
   2067 ****       118.2500 246.7500 361.7500 Du        
   2068 ****       118.2500 246.7500 362.0000 Du        
   2069 ****       118.2500 246.7500 362.2500 Du        
   2070 ****       118.2500 246.7500 362.5000 Du        
   2071 ****       118.2500 246.7500 362.7500 Du        
   2072 ****       118.2500 246.7500 363.0000 Du        
   2073 ****       118.2500 246.7500 363.2500 Du        
   2074 ****       118.2500 247.0000 359.2500 Du        
   2075 ****       118.2500 247.0000 359.5000 Du        
   2076 ****       118.2500 247.0000 359.7500 Du        
   2077 ****       118.2500 247.0000 360.0000 Du        
   2078 ****       118.2500 247.0000 360.2500 Du        
   2079 ****       118.2500 247.0000 360.5000 Du        
   2080 ****       118.2500 247.0000 360.7500 Du        
   2081 ****       118.2500 247.0000 361.0000 Du        
   2082 ****       118.2500 247.0000 361.2500 Du        
   2083 ****       118.2500 247.0000 361.5000 Du        
   2084 ****       118.2500 247.0000 361.7500 Du        
   2085 ****       118.2500 247.0000 362.0000 Du        
   2086 ****       118.2500 247.0000 362.2500 Du        
   2087 ****       118.2500 247.0000 362.5000 Du        
   2088 ****       118.2500 247.0000 362.7500 Du        
   2089 ****       118.2500 247.0000 363.0000 Du        
   2090 ****       118.2500 247.2500 359.2500 Du        
   2091 ****       118.2500 247.2500 359.5000 Du        
   2092 ****       118.2500 247.2500 359.7500 Du        
   2093 ****       118.2500 247.2500 360.0000 Du        
   2094 ****       118.2500 247.2500 360.2500 Du        
   2095 ****       118.2500 247.2500 360.5000 Du        
   2096 ****       118.2500 247.2500 360.7500 Du        
   2097 ****       118.2500 247.2500 361.0000 Du        
   2098 ****       118.2500 247.2500 361.2500 Du        
   2099 ****       118.2500 247.2500 361.5000 Du        
   2100 ****       118.2500 247.2500 361.7500 Du        
   2101 ****       118.2500 247.2500 362.0000 Du        
   2102 ****       118.2500 247.5000 359.2500 Du        
   2103 ****       118.2500 247.5000 359.5000 Du        
   2104 ****       118.2500 247.5000 359.7500 Du        
   2105 ****       118.2500 247.5000 360.0000 Du        
   2106 ****       118.2500 247.5000 360.2500 Du        
   2107 ****       118.2500 247.5000 360.5000 Du        
   2108 ****       118.2500 247.5000 360.7500 Du        
   2109 ****       118.2500 247.5000 361.0000 Du        
   2110 ****       118.2500 247.5000 361.2500 Du        
   2111 ****       118.2500 247.5000 361.5000 Du        
   2112 ****       118.2500 247.5000 361.7500 Du        
   2113 ****       118.2500 247.7500 359.2500 Du        
   2114 ****       118.2500 247.7500 359.5000 Du        
   2115 ****       118.2500 247.7500 359.7500 Du        
   2116 ****       118.2500 247.7500 360.0000 Du        
   2117 ****       118.2500 247.7500 360.2500 Du        
   2118 ****       118.2500 247.7500 360.5000 Du        
   2119 ****       118.2500 247.7500 360.7500 Du        
   2120 ****       118.2500 247.7500 361.0000 Du        
   2121 ****       118.2500 247.7500 361.2500 Du        
   2122 ****       118.2500 248.0000 359.2500 Du        
   2123 ****       118.2500 248.0000 359.5000 Du        
   2124 ****       118.2500 248.0000 359.7500 Du        
   2125 ****       118.2500 248.0000 360.0000 Du        
   2126 ****       118.2500 248.0000 360.2500 Du        
   2127 ****       118.2500 248.0000 360.5000 Du        
   2128 ****       118.2500 248.0000 360.7500 Du        
   2129 ****       118.2500 248.0000 361.0000 Du        
   2130 ****       118.2500 248.2500 359.5000 Du        
   2131 ****       118.2500 248.2500 359.7500 Du        
   2132 ****       118.2500 248.2500 360.0000 Du        
   2133 ****       118.2500 248.2500 360.2500 Du        
   2134 ****       118.2500 248.2500 360.5000 Du        
   2135 ****       118.2500 248.2500 360.7500 Du        
   2136 ****       118.2500 248.5000 359.5000 Du        
   2137 ****       118.2500 248.5000 359.7500 Du        
   2138 ****       118.2500 248.5000 360.0000 Du        
   2139 ****       118.2500 248.5000 360.2500 Du        
   2140 ****       118.2500 248.5000 360.5000 Du        
   2141 ****       118.2500 248.7500 359.5000 Du        
   2142 ****       118.2500 248.7500 359.7500 Du        
   2143 ****       118.2500 248.7500 360.0000 Du        
   2144 ****       118.2500 248.7500 360.2500 Du        
   2145 ****       118.2500 248.7500 360.5000 Du        
   2146 ****       118.2500 249.0000 359.5000 Du        
   2147 ****       118.2500 249.0000 359.7500 Du        
   2148 ****       118.2500 249.0000 360.0000 Du        
   2149 ****       118.2500 249.0000 360.2500 Du        
   2150 ****       118.2500 249.2500 359.7500 Du        
   2151 ****       118.2500 249.2500 360.0000 Du        
   2152 ****       118.2500 249.2500 360.2500 Du        
   2153 ****       118.2500 249.5000 360.0000 Du        
   2154 ****       118.2500 249.5000 360.2500 Du        
   2155 ****       118.2500 249.7500 360.0000 Du        
   2156 ****       118.2500 249.7500 360.2500 Du        
   2157 ****       118.5000 245.2500 360.2500 Du        
   2158 ****       118.5000 245.2500 360.5000 Du        
   2159 ****       118.5000 245.5000 360.2500 Du        
   2160 ****       118.5000 245.5000 360.5000 Du        
   2161 ****       118.5000 245.5000 360.7500 Du        
   2162 ****       118.5000 245.7500 360.0000 Du        
   2163 ****       118.5000 245.7500 360.2500 Du        
   2164 ****       118.5000 245.7500 360.5000 Du        
   2165 ****       118.5000 245.7500 360.7500 Du        
   2166 ****       118.5000 245.7500 361.0000 Du        
   2167 ****       118.5000 246.0000 359.7500 Du        
   2168 ****       118.5000 246.0000 360.0000 Du        
   2169 ****       118.5000 246.0000 360.2500 Du        
   2170 ****       118.5000 246.0000 360.5000 Du        
   2171 ****       118.5000 246.0000 360.7500 Du        
   2172 ****       118.5000 246.0000 361.0000 Du        
   2173 ****       118.5000 246.0000 361.2500 Du        
   2174 ****       118.5000 246.2500 359.5000 Du        
   2175 ****       118.5000 246.2500 359.7500 Du        
   2176 ****       118.5000 246.2500 360.0000 Du        
   2177 ****       118.5000 246.2500 360.2500 Du        
   2178 ****       118.5000 246.2500 360.5000 Du        
   2179 ****       118.5000 246.2500 360.7500 Du        
   2180 ****       118.5000 246.2500 361.0000 Du        
   2181 ****       118.5000 246.2500 361.2500 Du        
   2182 ****       118.5000 246.2500 361.5000 Du        
   2183 ****       118.5000 246.2500 361.7500 Du        
   2184 ****       118.5000 246.5000 359.2500 Du        
   2185 ****       118.5000 246.5000 359.5000 Du        
   2186 ****       118.5000 246.5000 359.7500 Du        
   2187 ****       118.5000 246.5000 360.0000 Du        
   2188 ****       118.5000 246.5000 360.2500 Du        
   2189 ****       118.5000 246.5000 360.5000 Du        
   2190 ****       118.5000 246.5000 360.7500 Du        
   2191 ****       118.5000 246.5000 361.0000 Du        
   2192 ****       118.5000 246.5000 361.2500 Du        
   2193 ****       118.5000 246.5000 361.5000 Du        
   2194 ****       118.5000 246.5000 361.7500 Du        
   2195 ****       118.5000 246.5000 362.0000 Du        
   2196 ****       118.5000 246.7500 359.2500 Du        
   2197 ****       118.5000 246.7500 359.5000 Du        
   2198 ****       118.5000 246.7500 359.7500 Du        
   2199 ****       118.5000 246.7500 360.0000 Du        
   2200 ****       118.5000 246.7500 360.2500 Du        
   2201 ****       118.5000 246.7500 360.5000 Du        
   2202 ****       118.5000 246.7500 360.7500 Du        
   2203 ****       118.5000 246.7500 361.0000 Du        
   2204 ****       118.5000 246.7500 361.2500 Du        
   2205 ****       118.5000 246.7500 361.5000 Du        
   2206 ****       118.5000 246.7500 361.7500 Du        
   2207 ****       118.5000 246.7500 362.0000 Du        
   2208 ****       118.5000 247.0000 359.2500 Du        
   2209 ****       118.5000 247.0000 359.5000 Du        
   2210 ****       118.5000 247.0000 359.7500 Du        
   2211 ****       118.5000 247.0000 360.0000 Du        
   2212 ****       118.5000 247.0000 360.2500 Du        
   2213 ****       118.5000 247.0000 360.5000 Du        
   2214 ****       118.5000 247.0000 360.7500 Du        
   2215 ****       118.5000 247.0000 361.0000 Du        
   2216 ****       118.5000 247.0000 361.2500 Du        
   2217 ****       118.5000 247.0000 361.5000 Du        
   2218 ****       118.5000 247.2500 359.2500 Du        
   2219 ****       118.5000 247.2500 359.5000 Du        
   2220 ****       118.5000 247.2500 359.7500 Du        
   2221 ****       118.5000 247.2500 360.0000 Du        
   2222 ****       118.5000 247.2500 360.2500 Du        
   2223 ****       118.5000 247.2500 360.5000 Du        
   2224 ****       118.5000 247.2500 360.7500 Du        
   2225 ****       118.5000 247.2500 361.0000 Du        
   2226 ****       118.5000 247.2500 361.2500 Du        
   2227 ****       118.5000 247.5000 359.2500 Du        
   2228 ****       118.5000 247.5000 359.5000 Du        
   2229 ****       118.5000 247.5000 359.7500 Du        
   2230 ****       118.5000 247.5000 360.0000 Du        
   2231 ****       118.5000 247.5000 360.2500 Du        
   2232 ****       118.5000 247.5000 360.5000 Du        
   2233 ****       118.5000 247.5000 360.7500 Du        
   2234 ****       118.5000 247.5000 361.0000 Du        
   2235 ****       118.5000 247.7500 359.2500 Du        
   2236 ****       118.5000 247.7500 359.5000 Du        
   2237 ****       118.5000 247.7500 359.7500 Du        
   2238 ****       118.5000 247.7500 360.0000 Du        
   2239 ****       118.5000 247.7500 360.2500 Du        
   2240 ****       118.5000 247.7500 360.5000 Du        
   2241 ****       118.5000 247.7500 360.7500 Du        
   2242 ****       118.5000 248.0000 359.2500 Du        
   2243 ****       118.5000 248.0000 359.5000 Du        
   2244 ****       118.5000 248.0000 359.7500 Du        
   2245 ****       118.5000 248.0000 360.0000 Du        
   2246 ****       118.5000 248.0000 360.2500 Du        
   2247 ****       118.5000 248.0000 360.5000 Du        
   2248 ****       118.5000 248.2500 359.2500 Du        
   2249 ****       118.5000 248.2500 359.5000 Du        
   2250 ****       118.5000 248.2500 359.7500 Du        
   2251 ****       118.5000 248.2500 360.0000 Du        
   2252 ****       118.5000 248.2500 360.2500 Du        
   2253 ****       118.5000 248.5000 359.2500 Du        
   2254 ****       118.5000 248.5000 359.5000 Du        
   2255 ****       118.5000 248.5000 359.7500 Du        
   2256 ****       118.5000 248.5000 360.0000 Du        
   2257 ****       118.5000 248.7500 359.2500 Du        
   2258 ****       118.5000 248.7500 359.5000 Du        
   2259 ****       118.5000 248.7500 359.7500 Du        
   2260 ****       118.5000 248.7500 360.0000 Du        
   2261 ****       118.5000 249.0000 359.5000 Du        
   2262 ****       118.5000 249.0000 359.7500 Du        
   2263 ****       118.5000 249.0000 360.0000 Du        
   2264 ****       118.5000 249.2500 359.5000 Du        
   2265 ****       118.5000 249.2500 359.7500 Du        
   2266 ****       118.5000 249.2500 360.0000 Du        
   2267 ****       118.7500 245.2500 360.2500 Du        
   2268 ****       118.7500 245.2500 360.5000 Du        
   2269 ****       118.7500 245.5000 360.2500 Du        
   2270 ****       118.7500 245.5000 360.5000 Du        
   2271 ****       118.7500 245.5000 360.7500 Du        
   2272 ****       118.7500 245.7500 360.0000 Du        
   2273 ****       118.7500 245.7500 360.2500 Du        
   2274 ****       118.7500 245.7500 360.5000 Du        
   2275 ****       118.7500 245.7500 360.7500 Du        
   2276 ****       118.7500 245.7500 361.0000 Du        
   2277 ****       118.7500 246.0000 359.7500 Du        
   2278 ****       118.7500 246.0000 360.0000 Du        
   2279 ****       118.7500 246.0000 360.2500 Du        
   2280 ****       118.7500 246.0000 360.5000 Du        
   2281 ****       118.7500 246.0000 360.7500 Du        
   2282 ****       118.7500 246.0000 361.0000 Du        
   2283 ****       118.7500 246.0000 361.2500 Du        
   2284 ****       118.7500 246.2500 359.5000 Du        
   2285 ****       118.7500 246.2500 359.7500 Du        
   2286 ****       118.7500 246.2500 360.0000 Du        
   2287 ****       118.7500 246.2500 360.2500 Du        
   2288 ****       118.7500 246.2500 360.5000 Du        
   2289 ****       118.7500 246.2500 360.7500 Du        
   2290 ****       118.7500 246.2500 361.0000 Du        
   2291 ****       118.7500 246.2500 361.2500 Du        
   2292 ****       118.7500 246.2500 361.5000 Du        
   2293 ****       118.7500 246.5000 359.2500 Du        
   2294 ****       118.7500 246.5000 359.5000 Du        
   2295 ****       118.7500 246.5000 359.7500 Du        
   2296 ****       118.7500 246.5000 360.0000 Du        
   2297 ****       118.7500 246.5000 360.2500 Du        
   2298 ****       118.7500 246.5000 360.5000 Du        
   2299 ****       118.7500 246.5000 360.7500 Du        
   2300 ****       118.7500 246.5000 361.0000 Du        
   2301 ****       118.7500 246.5000 361.2500 Du        
   2302 ****       118.7500 246.5000 361.5000 Du        
   2303 ****       118.7500 246.7500 359.2500 Du        
   2304 ****       118.7500 246.7500 359.5000 Du        
   2305 ****       118.7500 246.7500 359.7500 Du        
   2306 ****       118.7500 246.7500 360.0000 Du        
   2307 ****       118.7500 246.7500 360.2500 Du        
   2308 ****       118.7500 246.7500 360.5000 Du        
   2309 ****       118.7500 246.7500 360.7500 Du        
   2310 ****       118.7500 246.7500 361.0000 Du        
   2311 ****       118.7500 246.7500 361.2500 Du        
   2312 ****       118.7500 247.0000 359.2500 Du        
   2313 ****       118.7500 247.0000 359.5000 Du        
   2314 ****       118.7500 247.0000 359.7500 Du        
   2315 ****       118.7500 247.0000 360.0000 Du        
   2316 ****       118.7500 247.0000 360.2500 Du        
   2317 ****       118.7500 247.0000 360.5000 Du        
   2318 ****       118.7500 247.0000 360.7500 Du        
   2319 ****       118.7500 247.0000 361.0000 Du        
   2320 ****       118.7500 247.0000 361.2500 Du        
   2321 ****       118.7500 247.2500 359.2500 Du        
   2322 ****       118.7500 247.2500 359.5000 Du        
   2323 ****       118.7500 247.2500 359.7500 Du        
   2324 ****       118.7500 247.2500 360.0000 Du        
   2325 ****       118.7500 247.2500 360.2500 Du        
   2326 ****       118.7500 247.2500 360.5000 Du        
   2327 ****       118.7500 247.2500 360.7500 Du        
   2328 ****       118.7500 247.2500 361.0000 Du        
   2329 ****       118.7500 247.5000 359.2500 Du        
   2330 ****       118.7500 247.5000 359.5000 Du        
   2331 ****       118.7500 247.5000 359.7500 Du        
   2332 ****       118.7500 247.5000 360.0000 Du        
   2333 ****       118.7500 247.5000 360.2500 Du        
   2334 ****       118.7500 247.5000 360.5000 Du        
   2335 ****       118.7500 247.5000 360.7500 Du        
   2336 ****       118.7500 247.7500 359.2500 Du        
   2337 ****       118.7500 247.7500 359.5000 Du        
   2338 ****       118.7500 247.7500 359.7500 Du        
   2339 ****       118.7500 247.7500 360.0000 Du        
   2340 ****       118.7500 247.7500 360.2500 Du        
   2341 ****       118.7500 248.0000 359.2500 Du        
   2342 ****       118.7500 248.0000 359.5000 Du        
   2343 ****       118.7500 248.0000 359.7500 Du        
   2344 ****       118.7500 248.0000 360.0000 Du        
   2345 ****       118.7500 248.0000 360.2500 Du        
   2346 ****       118.7500 248.2500 359.2500 Du        
   2347 ****       118.7500 248.2500 359.5000 Du        
   2348 ****       118.7500 248.2500 359.7500 Du        
   2349 ****       118.7500 248.2500 360.0000 Du        
   2350 ****       118.7500 248.5000 359.2500 Du        
   2351 ****       118.7500 248.5000 359.5000 Du        
   2352 ****       118.7500 248.5000 359.7500 Du        
   2353 ****       118.7500 248.7500 359.2500 Du        
   2354 ****       118.7500 248.7500 359.5000 Du        
   2355 ****       118.7500 248.7500 359.7500 Du        
   2356 ****       118.7500 249.0000 359.2500 Du        
   2357 ****       118.7500 249.0000 359.5000 Du        
   2358 ****       118.7500 249.0000 359.7500 Du        
   2359 ****       118.7500 249.2500 359.2500 Du        
   2360 ****       118.7500 249.2500 359.5000 Du        
   2361 ****       119.0000 245.2500 360.2500 Du        
   2362 ****       119.0000 245.2500 360.5000 Du        
   2363 ****       119.0000 245.5000 360.2500 Du        
   2364 ****       119.0000 245.5000 360.5000 Du        
   2365 ****       119.0000 245.5000 360.7500 Du        
   2366 ****       119.0000 245.7500 360.0000 Du        
   2367 ****       119.0000 245.7500 360.2500 Du        
   2368 ****       119.0000 245.7500 360.5000 Du        
   2369 ****       119.0000 245.7500 360.7500 Du        
   2370 ****       119.0000 245.7500 361.0000 Du        
   2371 ****       119.0000 246.0000 359.7500 Du        
   2372 ****       119.0000 246.0000 360.0000 Du        
   2373 ****       119.0000 246.0000 360.2500 Du        
   2374 ****       119.0000 246.0000 360.5000 Du        
   2375 ****       119.0000 246.0000 360.7500 Du        
   2376 ****       119.0000 246.0000 361.0000 Du        
   2377 ****       119.0000 246.0000 361.2500 Du        
   2378 ****       119.0000 246.2500 359.5000 Du        
   2379 ****       119.0000 246.2500 359.7500 Du        
   2380 ****       119.0000 246.2500 360.0000 Du        
   2381 ****       119.0000 246.2500 360.2500 Du        
   2382 ****       119.0000 246.2500 360.5000 Du        
   2383 ****       119.0000 246.2500 360.7500 Du        
   2384 ****       119.0000 246.2500 361.0000 Du        
   2385 ****       119.0000 246.2500 361.2500 Du        
   2386 ****       119.0000 246.5000 359.5000 Du        
   2387 ****       119.0000 246.5000 359.7500 Du        
   2388 ****       119.0000 246.5000 360.0000 Du        
   2389 ****       119.0000 246.5000 360.2500 Du        
   2390 ****       119.0000 246.5000 360.5000 Du        
   2391 ****       119.0000 246.5000 360.7500 Du        
   2392 ****       119.0000 246.5000 361.0000 Du        
   2393 ****       119.0000 246.5000 361.2500 Du        
   2394 ****       119.0000 246.7500 359.2500 Du        
   2395 ****       119.0000 246.7500 359.5000 Du        
   2396 ****       119.0000 246.7500 359.7500 Du        
   2397 ****       119.0000 246.7500 360.0000 Du        
   2398 ****       119.0000 246.7500 360.2500 Du        
   2399 ****       119.0000 246.7500 360.5000 Du        
   2400 ****       119.0000 246.7500 360.7500 Du        
   2401 ****       119.0000 246.7500 361.0000 Du        
   2402 ****       119.0000 247.0000 359.2500 Du        
   2403 ****       119.0000 247.0000 359.5000 Du        
   2404 ****       119.0000 247.0000 359.7500 Du        
   2405 ****       119.0000 247.0000 360.0000 Du        
   2406 ****       119.0000 247.0000 360.2500 Du        
   2407 ****       119.0000 247.0000 360.5000 Du        
   2408 ****       119.0000 247.0000 360.7500 Du        
   2409 ****       119.0000 247.2500 359.2500 Du        
   2410 ****       119.0000 247.2500 359.5000 Du        
   2411 ****       119.0000 247.2500 359.7500 Du        
   2412 ****       119.0000 247.2500 360.0000 Du        
   2413 ****       119.0000 247.2500 360.2500 Du        
   2414 ****       119.0000 247.2500 360.5000 Du        
   2415 ****       119.0000 247.5000 359.2500 Du        
   2416 ****       119.0000 247.5000 359.5000 Du        
   2417 ****       119.0000 247.5000 359.7500 Du        
   2418 ****       119.0000 247.5000 360.0000 Du        
   2419 ****       119.0000 247.5000 360.2500 Du        
   2420 ****       119.0000 247.7500 359.2500 Du        
   2421 ****       119.0000 247.7500 359.5000 Du        
   2422 ****       119.0000 247.7500 359.7500 Du        
   2423 ****       119.0000 247.7500 360.0000 Du        
   2424 ****       119.0000 248.0000 359.2500 Du        
   2425 ****       119.0000 248.0000 359.5000 Du        
   2426 ****       119.0000 248.0000 359.7500 Du        
   2427 ****       119.0000 248.0000 360.0000 Du        
   2428 ****       119.0000 248.2500 359.2500 Du        
   2429 ****       119.0000 248.2500 359.5000 Du        
   2430 ****       119.0000 248.2500 359.7500 Du        
   2431 ****       119.0000 248.5000 359.2500 Du        
   2432 ****       119.0000 248.5000 359.5000 Du        
   2433 ****       119.0000 248.5000 359.7500 Du        
   2434 ****       119.0000 248.7500 359.0000 Du        
   2435 ****       119.0000 248.7500 359.2500 Du        
   2436 ****       119.0000 248.7500 359.5000 Du        
   2437 ****       119.0000 249.0000 359.0000 Du        
   2438 ****       119.0000 249.0000 359.2500 Du        
   2439 ****       119.0000 249.0000 359.5000 Du        
   2440 ****       119.0000 249.2500 359.2500 Du        
   2441 ****       119.2500 243.2500 352.5000 Du        
   2442 ****       119.2500 243.2500 352.7500 Du        
   2443 ****       119.2500 243.2500 353.0000 Du        
   2444 ****       119.2500 243.5000 352.2500 Du        
   2445 ****       119.2500 243.5000 352.5000 Du        
   2446 ****       119.2500 243.5000 352.7500 Du        
   2447 ****       119.2500 243.5000 353.0000 Du        
   2448 ****       119.2500 243.7500 352.2500 Du        
   2449 ****       119.2500 243.7500 352.5000 Du        
   2450 ****       119.2500 243.7500 352.7500 Du        
   2451 ****       119.2500 243.7500 353.0000 Du        
   2452 ****       119.2500 244.0000 352.2500 Du        
   2453 ****       119.2500 244.0000 352.5000 Du        
   2454 ****       119.2500 244.0000 352.7500 Du        
   2455 ****       119.2500 244.0000 353.0000 Du        
   2456 ****       119.2500 244.2500 352.2500 Du        
   2457 ****       119.2500 244.2500 352.5000 Du        
   2458 ****       119.2500 244.2500 352.7500 Du        
   2459 ****       119.2500 245.2500 360.2500 Du        
   2460 ****       119.2500 245.2500 360.5000 Du        
   2461 ****       119.2500 245.5000 360.2500 Du        
   2462 ****       119.2500 245.5000 360.5000 Du        
   2463 ****       119.2500 245.5000 360.7500 Du        
   2464 ****       119.2500 245.7500 360.0000 Du        
   2465 ****       119.2500 245.7500 360.2500 Du        
   2466 ****       119.2500 245.7500 360.5000 Du        
   2467 ****       119.2500 245.7500 360.7500 Du        
   2468 ****       119.2500 246.0000 359.7500 Du        
   2469 ****       119.2500 246.0000 360.0000 Du        
   2470 ****       119.2500 246.0000 360.2500 Du        
   2471 ****       119.2500 246.0000 360.5000 Du        
   2472 ****       119.2500 246.0000 360.7500 Du        
   2473 ****       119.2500 246.0000 361.0000 Du        
   2474 ****       119.2500 246.2500 359.5000 Du        
   2475 ****       119.2500 246.2500 359.7500 Du        
   2476 ****       119.2500 246.2500 360.0000 Du        
   2477 ****       119.2500 246.2500 360.2500 Du        
   2478 ****       119.2500 246.2500 360.5000 Du        
   2479 ****       119.2500 246.2500 360.7500 Du        
   2480 ****       119.2500 246.2500 361.0000 Du        
   2481 ****       119.2500 246.5000 359.5000 Du        
   2482 ****       119.2500 246.5000 359.7500 Du        
   2483 ****       119.2500 246.5000 360.0000 Du        
   2484 ****       119.2500 246.5000 360.2500 Du        
   2485 ****       119.2500 246.5000 360.5000 Du        
   2486 ****       119.2500 246.5000 360.7500 Du        
   2487 ****       119.2500 246.5000 361.0000 Du        
   2488 ****       119.2500 246.7500 359.2500 Du        
   2489 ****       119.2500 246.7500 359.5000 Du        
   2490 ****       119.2500 246.7500 359.7500 Du        
   2491 ****       119.2500 246.7500 360.0000 Du        
   2492 ****       119.2500 246.7500 360.2500 Du        
   2493 ****       119.2500 246.7500 360.5000 Du        
   2494 ****       119.2500 246.7500 360.7500 Du        
   2495 ****       119.2500 247.0000 359.2500 Du        
   2496 ****       119.2500 247.0000 359.5000 Du        
   2497 ****       119.2500 247.0000 359.7500 Du        
   2498 ****       119.2500 247.0000 360.0000 Du        
   2499 ****       119.2500 247.0000 360.2500 Du        
   2500 ****       119.2500 247.0000 360.5000 Du        
   2501 ****       119.2500 247.2500 359.2500 Du        
   2502 ****       119.2500 247.2500 359.5000 Du        
   2503 ****       119.2500 247.2500 359.7500 Du        
   2504 ****       119.2500 247.2500 360.0000 Du        
   2505 ****       119.2500 247.2500 360.2500 Du        
   2506 ****       119.2500 247.5000 359.2500 Du        
   2507 ****       119.2500 247.5000 359.5000 Du        
   2508 ****       119.2500 247.5000 359.7500 Du        
   2509 ****       119.2500 247.5000 360.0000 Du        
   2510 ****       119.2500 247.7500 359.2500 Du        
   2511 ****       119.2500 247.7500 359.5000 Du        
   2512 ****       119.2500 247.7500 359.7500 Du        
   2513 ****       119.2500 248.0000 359.2500 Du        
   2514 ****       119.2500 248.0000 359.5000 Du        
   2515 ****       119.2500 248.0000 359.7500 Du        
   2516 ****       119.2500 248.2500 359.2500 Du        
   2517 ****       119.2500 248.2500 359.5000 Du        
   2518 ****       119.2500 248.5000 359.2500 Du        
   2519 ****       119.2500 248.5000 359.5000 Du        
   2520 ****       119.2500 248.7500 359.0000 Du        
   2521 ****       119.2500 248.7500 359.2500 Du        
   2522 ****       119.2500 249.0000 359.0000 Du        
   2523 ****       119.2500 249.0000 359.2500 Du        
   2524 ****       119.2500 249.2500 359.0000 Du        
   2525 ****       119.2500 249.2500 359.2500 Du        
   2526 ****       119.5000 243.0000 352.7500 Du        
   2527 ****       119.5000 243.2500 352.5000 Du        
   2528 ****       119.5000 243.2500 352.7500 Du        
   2529 ****       119.5000 243.2500 353.0000 Du        
   2530 ****       119.5000 243.5000 352.2500 Du        
   2531 ****       119.5000 243.5000 352.5000 Du        
   2532 ****       119.5000 243.5000 352.7500 Du        
   2533 ****       119.5000 243.5000 353.0000 Du        
   2534 ****       119.5000 243.7500 352.2500 Du        
   2535 ****       119.5000 243.7500 352.5000 Du        
   2536 ****       119.5000 243.7500 352.7500 Du        
   2537 ****       119.5000 243.7500 353.0000 Du        
   2538 ****       119.5000 244.0000 352.2500 Du        
   2539 ****       119.5000 244.0000 352.5000 Du        
   2540 ****       119.5000 244.0000 352.7500 Du        
   2541 ****       119.5000 244.0000 353.0000 Du        
   2542 ****       119.5000 244.2500 352.2500 Du        
   2543 ****       119.5000 244.2500 352.5000 Du        
   2544 ****       119.5000 244.2500 352.7500 Du        
   2545 ****       119.5000 245.2500 360.2500 Du        
   2546 ****       119.5000 245.5000 360.2500 Du        
   2547 ****       119.5000 245.5000 360.5000 Du        
   2548 ****       119.5000 245.7500 360.0000 Du        
   2549 ****       119.5000 245.7500 360.2500 Du        
   2550 ****       119.5000 245.7500 360.5000 Du        
   2551 ****       119.5000 245.7500 360.7500 Du        
   2552 ****       119.5000 246.0000 359.7500 Du        
   2553 ****       119.5000 246.0000 360.0000 Du        
   2554 ****       119.5000 246.0000 360.2500 Du        
   2555 ****       119.5000 246.0000 360.5000 Du        
   2556 ****       119.5000 246.0000 360.7500 Du        
   2557 ****       119.5000 246.0000 361.0000 Du        
   2558 ****       119.5000 246.2500 359.5000 Du        
   2559 ****       119.5000 246.2500 359.7500 Du        
   2560 ****       119.5000 246.2500 360.0000 Du        
   2561 ****       119.5000 246.2500 360.2500 Du        
   2562 ****       119.5000 246.2500 360.5000 Du        
   2563 ****       119.5000 246.2500 360.7500 Du        
   2564 ****       119.5000 246.2500 361.0000 Du        
   2565 ****       119.5000 246.5000 359.5000 Du        
   2566 ****       119.5000 246.5000 359.7500 Du        
   2567 ****       119.5000 246.5000 360.0000 Du        
   2568 ****       119.5000 246.5000 360.2500 Du        
   2569 ****       119.5000 246.5000 360.5000 Du        
   2570 ****       119.5000 246.5000 360.7500 Du        
   2571 ****       119.5000 246.7500 359.2500 Du        
   2572 ****       119.5000 246.7500 359.5000 Du        
   2573 ****       119.5000 246.7500 359.7500 Du        
   2574 ****       119.5000 246.7500 360.0000 Du        
   2575 ****       119.5000 246.7500 360.2500 Du        
   2576 ****       119.5000 246.7500 360.5000 Du        
   2577 ****       119.5000 247.0000 359.2500 Du        
   2578 ****       119.5000 247.0000 359.5000 Du        
   2579 ****       119.5000 247.0000 359.7500 Du        
   2580 ****       119.5000 247.0000 360.0000 Du        
   2581 ****       119.5000 247.0000 360.2500 Du        
   2582 ****       119.5000 247.2500 359.2500 Du        
   2583 ****       119.5000 247.2500 359.5000 Du        
   2584 ****       119.5000 247.2500 359.7500 Du        
   2585 ****       119.5000 247.2500 360.0000 Du        
   2586 ****       119.5000 247.5000 359.2500 Du        
   2587 ****       119.5000 247.5000 359.5000 Du        
   2588 ****       119.5000 247.5000 359.7500 Du        
   2589 ****       119.5000 247.7500 359.2500 Du        
   2590 ****       119.5000 247.7500 359.5000 Du        
   2591 ****       119.5000 248.0000 359.2500 Du        
   2592 ****       119.5000 248.2500 359.2500 Du        
   2593 ****       119.5000 248.5000 359.2500 Du        
   2594 ****       119.5000 248.7500 359.0000 Du        
   2595 ****       119.5000 248.7500 359.2500 Du        
   2596 ****       119.5000 249.0000 359.0000 Du        
   2597 ****       119.5000 249.2500 359.0000 Du        
   2598 ****       119.7500 243.0000 352.7500 Du        
   2599 ****       119.7500 243.2500 352.5000 Du        
   2600 ****       119.7500 243.2500 352.7500 Du        
   2601 ****       119.7500 243.2500 353.0000 Du        
   2602 ****       119.7500 243.5000 352.2500 Du        
   2603 ****       119.7500 243.5000 352.5000 Du        
   2604 ****       119.7500 243.5000 352.7500 Du        
   2605 ****       119.7500 243.5000 353.0000 Du        
   2606 ****       119.7500 243.7500 352.2500 Du        
   2607 ****       119.7500 243.7500 352.5000 Du        
   2608 ****       119.7500 243.7500 352.7500 Du        
   2609 ****       119.7500 243.7500 353.0000 Du        
   2610 ****       119.7500 244.0000 352.2500 Du        
   2611 ****       119.7500 244.0000 352.5000 Du        
   2612 ****       119.7500 244.0000 352.7500 Du        
   2613 ****       119.7500 244.0000 353.0000 Du        
   2614 ****       119.7500 244.2500 352.2500 Du        
   2615 ****       119.7500 244.2500 352.5000 Du        
   2616 ****       119.7500 244.2500 352.7500 Du        
   2617 ****       119.7500 245.2500 360.2500 Du        
   2618 ****       119.7500 245.2500 360.5000 Du        
   2619 ****       119.7500 245.5000 360.0000 Du        
   2620 ****       119.7500 245.5000 360.2500 Du        
   2621 ****       119.7500 245.5000 360.5000 Du        
   2622 ****       119.7500 245.5000 360.7500 Du        
   2623 ****       119.7500 245.7500 360.0000 Du        
   2624 ****       119.7500 245.7500 360.2500 Du        
   2625 ****       119.7500 245.7500 360.5000 Du        
   2626 ****       119.7500 245.7500 360.7500 Du        
   2627 ****       119.7500 246.0000 359.7500 Du        
   2628 ****       119.7500 246.0000 360.0000 Du        
   2629 ****       119.7500 246.0000 360.2500 Du        
   2630 ****       119.7500 246.0000 360.5000 Du        
   2631 ****       119.7500 246.0000 360.7500 Du        
   2632 ****       119.7500 246.0000 361.0000 Du        
   2633 ****       119.7500 246.2500 359.5000 Du        
   2634 ****       119.7500 246.2500 359.7500 Du        
   2635 ****       119.7500 246.2500 360.0000 Du        
   2636 ****       119.7500 246.2500 360.2500 Du        
   2637 ****       119.7500 246.2500 360.5000 Du        
   2638 ****       119.7500 246.2500 360.7500 Du        
   2639 ****       119.7500 246.5000 359.2500 Du        
   2640 ****       119.7500 246.5000 359.5000 Du        
   2641 ****       119.7500 246.5000 359.7500 Du        
   2642 ****       119.7500 246.5000 360.0000 Du        
   2643 ****       119.7500 246.5000 360.2500 Du        
   2644 ****       119.7500 246.5000 360.5000 Du        
   2645 ****       119.7500 246.7500 359.2500 Du        
   2646 ****       119.7500 246.7500 359.5000 Du        
   2647 ****       119.7500 246.7500 359.7500 Du        
   2648 ****       119.7500 246.7500 360.0000 Du        
   2649 ****       119.7500 246.7500 360.2500 Du        
   2650 ****       119.7500 247.0000 359.2500 Du        
   2651 ****       119.7500 247.0000 359.5000 Du        
   2652 ****       119.7500 247.0000 359.7500 Du        
   2653 ****       119.7500 247.0000 360.0000 Du        
   2654 ****       119.7500 247.2500 359.2500 Du        
   2655 ****       119.7500 247.2500 359.5000 Du        
   2656 ****       119.7500 247.2500 359.7500 Du        
   2657 ****       119.7500 247.5000 359.2500 Du        
   2658 ****       119.7500 247.5000 359.5000 Du        
   2659 ****       119.7500 247.5000 359.7500 Du        
   2660 ****       119.7500 247.7500 359.2500 Du        
   2661 ****       119.7500 247.7500 359.5000 Du        
   2662 ****       119.7500 248.0000 359.2500 Du        
   2663 ****       119.7500 248.7500 359.0000 Du        
   2664 ****       119.7500 249.0000 359.0000 Du        
   2665 ****       119.7500 249.2500 359.0000 Du        
   2666 ****       120.0000 243.0000 352.7500 Du        
   2667 ****       120.0000 243.2500 352.5000 Du        
   2668 ****       120.0000 243.2500 352.7500 Du        
   2669 ****       120.0000 243.2500 353.0000 Du        
   2670 ****       120.0000 243.5000 352.2500 Du        
   2671 ****       120.0000 243.5000 352.5000 Du        
   2672 ****       120.0000 243.5000 352.7500 Du        
   2673 ****       120.0000 243.5000 353.0000 Du        
   2674 ****       120.0000 243.7500 352.2500 Du        
   2675 ****       120.0000 243.7500 352.5000 Du        
   2676 ****       120.0000 243.7500 352.7500 Du        
   2677 ****       120.0000 243.7500 353.0000 Du        
   2678 ****       120.0000 244.0000 352.2500 Du        
   2679 ****       120.0000 244.0000 352.5000 Du        
   2680 ****       120.0000 244.0000 352.7500 Du        
   2681 ****       120.0000 244.0000 353.0000 Du        
   2682 ****       120.0000 244.2500 352.2500 Du        
   2683 ****       120.0000 244.2500 352.5000 Du        
   2684 ****       120.0000 244.2500 352.7500 Du        
   2685 ****       120.0000 245.0000 360.2500 Du        
   2686 ****       120.0000 245.2500 360.2500 Du        
   2687 ****       120.0000 245.2500 360.5000 Du        
   2688 ****       120.0000 245.5000 360.0000 Du        
   2689 ****       120.0000 245.5000 360.2500 Du        
   2690 ****       120.0000 245.5000 360.5000 Du        
   2691 ****       120.0000 245.5000 360.7500 Du        
   2692 ****       120.0000 245.7500 359.7500 Du        
   2693 ****       120.0000 245.7500 360.0000 Du        
   2694 ****       120.0000 245.7500 360.2500 Du        
   2695 ****       120.0000 245.7500 360.5000 Du        
   2696 ****       120.0000 245.7500 360.7500 Du        
   2697 ****       120.0000 245.7500 361.0000 Du        
   2698 ****       120.0000 246.0000 359.5000 Du        
   2699 ****       120.0000 246.0000 359.7500 Du        
   2700 ****       120.0000 246.0000 360.0000 Du        
   2701 ****       120.0000 246.0000 360.2500 Du        
   2702 ****       120.0000 246.0000 360.5000 Du        
   2703 ****       120.0000 246.0000 360.7500 Du        
   2704 ****       120.0000 246.0000 361.0000 Du        
   2705 ****       120.0000 246.2500 359.5000 Du        
   2706 ****       120.0000 246.2500 359.7500 Du        
   2707 ****       120.0000 246.2500 360.0000 Du        
   2708 ****       120.0000 246.2500 360.2500 Du        
   2709 ****       120.0000 246.2500 360.5000 Du        
   2710 ****       120.0000 246.2500 360.7500 Du        
   2711 ****       120.0000 246.5000 359.2500 Du        
   2712 ****       120.0000 246.5000 359.5000 Du        
   2713 ****       120.0000 246.5000 359.7500 Du        
   2714 ****       120.0000 246.5000 360.0000 Du        
   2715 ****       120.0000 246.5000 360.2500 Du        
   2716 ****       120.0000 246.5000 360.5000 Du        
   2717 ****       120.0000 246.7500 359.2500 Du        
   2718 ****       120.0000 246.7500 359.5000 Du        
   2719 ****       120.0000 246.7500 359.7500 Du        
   2720 ****       120.0000 246.7500 360.0000 Du        
   2721 ****       120.0000 246.7500 360.2500 Du        
   2722 ****       120.0000 247.0000 359.2500 Du        
   2723 ****       120.0000 247.0000 359.5000 Du        
   2724 ****       120.0000 247.0000 359.7500 Du        
   2725 ****       120.0000 247.0000 360.0000 Du        
   2726 ****       120.0000 247.2500 359.2500 Du        
   2727 ****       120.0000 247.2500 359.5000 Du        
   2728 ****       120.0000 247.2500 359.7500 Du        
   2729 ****       120.0000 247.5000 359.2500 Du        
   2730 ****       120.0000 247.5000 359.5000 Du        
   2731 ****       120.0000 247.7500 359.2500 Du        
   2732 ****       120.0000 248.0000 359.2500 Du        
   2733 ****       120.0000 248.5000 359.0000 Du        
   2734 ****       120.0000 248.7500 359.0000 Du        
   2735 ****       120.0000 249.0000 358.7500 Du        
   2736 ****       120.0000 249.0000 359.0000 Du        
   2737 ****       120.0000 249.2500 358.7500 Du        
   2738 ****       120.2500 243.2500 352.7500 Du        
   2739 ****       120.2500 243.5000 352.5000 Du        
   2740 ****       120.2500 243.5000 352.7500 Du        
   2741 ****       120.2500 243.5000 353.0000 Du        
   2742 ****       120.2500 243.7500 352.2500 Du        
   2743 ****       120.2500 243.7500 352.5000 Du        
   2744 ****       120.2500 243.7500 352.7500 Du        
   2745 ****       120.2500 243.7500 353.0000 Du        
   2746 ****       120.2500 244.0000 352.0000 Du        
   2747 ****       120.2500 244.0000 352.2500 Du        
   2748 ****       120.2500 244.0000 352.5000 Du        
   2749 ****       120.2500 244.0000 352.7500 Du        
   2750 ****       120.2500 244.0000 353.0000 Du        
   2751 ****       120.2500 244.2500 352.0000 Du        
   2752 ****       120.2500 244.2500 352.2500 Du        
   2753 ****       120.2500 244.2500 352.5000 Du        
   2754 ****       120.2500 244.2500 352.7500 Du        
   2755 ****       120.2500 245.0000 360.2500 Du        
   2756 ****       120.2500 245.0000 360.5000 Du        
   2757 ****       120.2500 245.2500 360.0000 Du        
   2758 ****       120.2500 245.2500 360.2500 Du        
   2759 ****       120.2500 245.2500 360.5000 Du        
   2760 ****       120.2500 245.2500 360.7500 Du        
   2761 ****       120.2500 245.5000 360.0000 Du        
   2762 ****       120.2500 245.5000 360.2500 Du        
   2763 ****       120.2500 245.5000 360.5000 Du        
   2764 ****       120.2500 245.5000 360.7500 Du        
   2765 ****       120.2500 245.7500 359.7500 Du        
   2766 ****       120.2500 245.7500 360.0000 Du        
   2767 ****       120.2500 245.7500 360.2500 Du        
   2768 ****       120.2500 245.7500 360.5000 Du        
   2769 ****       120.2500 245.7500 360.7500 Du        
   2770 ****       120.2500 245.7500 361.0000 Du        
   2771 ****       120.2500 246.0000 359.5000 Du        
   2772 ****       120.2500 246.0000 359.7500 Du        
   2773 ****       120.2500 246.0000 360.0000 Du        
   2774 ****       120.2500 246.0000 360.2500 Du        
   2775 ****       120.2500 246.0000 360.5000 Du        
   2776 ****       120.2500 246.0000 360.7500 Du        
   2777 ****       120.2500 246.0000 361.0000 Du        
   2778 ****       120.2500 246.2500 359.2500 Du        
   2779 ****       120.2500 246.2500 359.5000 Du        
   2780 ****       120.2500 246.2500 359.7500 Du        
   2781 ****       120.2500 246.2500 360.0000 Du        
   2782 ****       120.2500 246.2500 360.2500 Du        
   2783 ****       120.2500 246.2500 360.5000 Du        
   2784 ****       120.2500 246.2500 360.7500 Du        
   2785 ****       120.2500 246.5000 359.2500 Du        
   2786 ****       120.2500 246.5000 359.5000 Du        
   2787 ****       120.2500 246.5000 359.7500 Du        
   2788 ****       120.2500 246.5000 360.0000 Du        
   2789 ****       120.2500 246.5000 360.2500 Du        
   2790 ****       120.2500 246.7500 359.0000 Du        
   2791 ****       120.2500 246.7500 359.2500 Du        
   2792 ****       120.2500 246.7500 359.5000 Du        
   2793 ****       120.2500 246.7500 359.7500 Du        
   2794 ****       120.2500 246.7500 360.0000 Du        
   2795 ****       120.2500 247.0000 359.0000 Du        
   2796 ****       120.2500 247.0000 359.2500 Du        
   2797 ****       120.2500 247.0000 359.5000 Du        
   2798 ****       120.2500 247.0000 359.7500 Du        
   2799 ****       120.2500 247.0000 360.0000 Du        
   2800 ****       120.2500 247.2500 359.0000 Du        
   2801 ****       120.2500 247.2500 359.2500 Du        
   2802 ****       120.2500 247.2500 359.5000 Du        
   2803 ****       120.2500 247.2500 359.7500 Du        
   2804 ****       120.2500 247.5000 359.2500 Du        
   2805 ****       120.2500 247.5000 359.5000 Du        
   2806 ****       120.2500 247.7500 359.2500 Du        
   2807 ****       120.2500 248.0000 359.0000 Du        
   2808 ****       120.2500 248.2500 359.0000 Du        
   2809 ****       120.2500 248.7500 358.7500 Du        
   2810 ****       120.2500 249.0000 358.7500 Du        
   2811 ****       120.2500 249.2500 358.5000 Du        
   2812 ****       120.2500 249.2500 358.7500 Du        
   2813 ****       120.2500 249.5000 358.7500 Du        
   2814 ****       120.5000 244.0000 352.7500 Du        
   2815 ****       120.5000 244.7500 360.2500 Du        
   2816 ****       120.5000 245.0000 360.0000 Du        
   2817 ****       120.5000 245.0000 360.2500 Du        
   2818 ****       120.5000 245.0000 360.5000 Du        
   2819 ****       120.5000 245.0000 360.7500 Du        
   2820 ****       120.5000 245.2500 360.0000 Du        
   2821 ****       120.5000 245.2500 360.2500 Du        
   2822 ****       120.5000 245.2500 360.5000 Du        
   2823 ****       120.5000 245.2500 360.7500 Du        
   2824 ****       120.5000 245.5000 359.7500 Du        
   2825 ****       120.5000 245.5000 360.0000 Du        
   2826 ****       120.5000 245.5000 360.2500 Du        
   2827 ****       120.5000 245.5000 360.5000 Du        
   2828 ****       120.5000 245.5000 360.7500 Du        
   2829 ****       120.5000 245.5000 361.0000 Du        
   2830 ****       120.5000 245.7500 359.5000 Du        
   2831 ****       120.5000 245.7500 359.7500 Du        
   2832 ****       120.5000 245.7500 360.0000 Du        
   2833 ****       120.5000 245.7500 360.2500 Du        
   2834 ****       120.5000 245.7500 360.5000 Du        
   2835 ****       120.5000 245.7500 360.7500 Du        
   2836 ****       120.5000 245.7500 361.0000 Du        
   2837 ****       120.5000 246.0000 359.2500 Du        
   2838 ****       120.5000 246.0000 359.5000 Du        
   2839 ****       120.5000 246.0000 359.7500 Du        
   2840 ****       120.5000 246.0000 360.0000 Du        
   2841 ****       120.5000 246.0000 360.2500 Du        
   2842 ****       120.5000 246.0000 360.5000 Du        
   2843 ****       120.5000 246.0000 360.7500 Du        
   2844 ****       120.5000 246.2500 359.2500 Du        
   2845 ****       120.5000 246.2500 359.5000 Du        
   2846 ****       120.5000 246.2500 359.7500 Du        
   2847 ****       120.5000 246.2500 360.0000 Du        
   2848 ****       120.5000 246.2500 360.2500 Du        
   2849 ****       120.5000 246.2500 360.5000 Du        
   2850 ****       120.5000 246.5000 359.0000 Du        
   2851 ****       120.5000 246.5000 359.2500 Du        
   2852 ****       120.5000 246.5000 359.5000 Du        
   2853 ****       120.5000 246.5000 359.7500 Du        
   2854 ****       120.5000 246.5000 360.0000 Du        
   2855 ****       120.5000 246.5000 360.2500 Du        
   2856 ****       120.5000 246.7500 359.0000 Du        
   2857 ****       120.5000 246.7500 359.2500 Du        
   2858 ****       120.5000 246.7500 359.5000 Du        
   2859 ****       120.5000 246.7500 359.7500 Du        
   2860 ****       120.5000 246.7500 360.0000 Du        
   2861 ****       120.5000 247.0000 359.0000 Du        
   2862 ****       120.5000 247.0000 359.2500 Du        
   2863 ****       120.5000 247.0000 359.5000 Du        
   2864 ****       120.5000 247.0000 359.7500 Du        
   2865 ****       120.5000 247.2500 359.0000 Du        
   2866 ****       120.5000 247.2500 359.2500 Du        
   2867 ****       120.5000 247.2500 359.5000 Du        
   2868 ****       120.5000 247.5000 359.2500 Du        
   2869 ****       120.5000 249.0000 358.7500 Du        
   2870 ****       120.5000 249.2500 358.5000 Du        
   2871 ****       120.5000 249.2500 358.7500 Du        
   2872 ****       120.5000 249.5000 358.5000 Du        
   2873 ****       120.5000 249.5000 358.7500 Du        
   2874 ****       120.7500 244.7500 360.0000 Du        
   2875 ****       120.7500 244.7500 360.2500 Du        
   2876 ****       120.7500 244.7500 360.5000 Du        
   2877 ****       120.7500 244.7500 360.7500 Du        
   2878 ****       120.7500 245.0000 360.0000 Du        
   2879 ****       120.7500 245.0000 360.2500 Du        
   2880 ****       120.7500 245.0000 360.5000 Du        
   2881 ****       120.7500 245.0000 360.7500 Du        
   2882 ****       120.7500 245.2500 359.7500 Du        
   2883 ****       120.7500 245.2500 360.0000 Du        
   2884 ****       120.7500 245.2500 360.2500 Du        
   2885 ****       120.7500 245.2500 360.5000 Du        
   2886 ****       120.7500 245.2500 360.7500 Du        
   2887 ****       120.7500 245.2500 361.0000 Du        
   2888 ****       120.7500 245.5000 359.5000 Du        
   2889 ****       120.7500 245.5000 359.7500 Du        
   2890 ****       120.7500 245.5000 360.0000 Du        
   2891 ****       120.7500 245.5000 360.2500 Du        
   2892 ****       120.7500 245.5000 360.5000 Du        
   2893 ****       120.7500 245.5000 360.7500 Du        
   2894 ****       120.7500 245.5000 361.0000 Du        
   2895 ****       120.7500 245.7500 359.2500 Du        
   2896 ****       120.7500 245.7500 359.5000 Du        
   2897 ****       120.7500 245.7500 359.7500 Du        
   2898 ****       120.7500 245.7500 360.0000 Du        
   2899 ****       120.7500 245.7500 360.2500 Du        
   2900 ****       120.7500 245.7500 360.5000 Du        
   2901 ****       120.7500 245.7500 360.7500 Du        
   2902 ****       120.7500 245.7500 361.0000 Du        
   2903 ****       120.7500 246.0000 359.0000 Du        
   2904 ****       120.7500 246.0000 359.2500 Du        
   2905 ****       120.7500 246.0000 359.5000 Du        
   2906 ****       120.7500 246.0000 359.7500 Du        
   2907 ****       120.7500 246.0000 360.0000 Du        
   2908 ****       120.7500 246.0000 360.2500 Du        
   2909 ****       120.7500 246.0000 360.5000 Du        
   2910 ****       120.7500 246.0000 360.7500 Du        
   2911 ****       120.7500 246.2500 359.0000 Du        
   2912 ****       120.7500 246.2500 359.2500 Du        
   2913 ****       120.7500 246.2500 359.5000 Du        
   2914 ****       120.7500 246.2500 359.7500 Du        
   2915 ****       120.7500 246.2500 360.0000 Du        
   2916 ****       120.7500 246.2500 360.2500 Du        
   2917 ****       120.7500 246.2500 360.5000 Du        
   2918 ****       120.7500 246.5000 359.0000 Du        
   2919 ****       120.7500 246.5000 359.2500 Du        
   2920 ****       120.7500 246.5000 359.5000 Du        
   2921 ****       120.7500 246.5000 359.7500 Du        
   2922 ****       120.7500 246.5000 360.0000 Du        
   2923 ****       120.7500 246.7500 359.0000 Du        
   2924 ****       120.7500 246.7500 359.2500 Du        
   2925 ****       120.7500 246.7500 359.5000 Du        
   2926 ****       120.7500 246.7500 359.7500 Du        
   2927 ****       120.7500 246.7500 360.0000 Du        
   2928 ****       120.7500 247.0000 359.0000 Du        
   2929 ****       120.7500 247.0000 359.2500 Du        
   2930 ****       120.7500 247.0000 359.5000 Du        
   2931 ****       120.7500 247.0000 359.7500 Du        
   2932 ****       120.7500 247.2500 359.0000 Du        
   2933 ****       120.7500 247.2500 359.2500 Du        
   2934 ****       120.7500 247.2500 359.5000 Du        
   2935 ****       120.7500 247.5000 359.2500 Du        
   2936 ****       120.7500 247.7500 359.0000 Du        
   2937 ****       120.7500 248.0000 359.0000 Du        
   2938 ****       120.7500 249.0000 358.7500 Du        
   2939 ****       120.7500 249.2500 358.5000 Du        
   2940 ****       120.7500 249.2500 358.7500 Du        
   2941 ****       120.7500 249.5000 358.2500 Du        
   2942 ****       120.7500 249.5000 358.5000 Du        
   2943 ****       120.7500 249.5000 358.7500 Du        
   2944 ****       120.7500 249.7500 358.2500 Du        
   2945 ****       120.7500 249.7500 358.5000 Du        
   2946 ****       120.7500 249.7500 358.7500 Du        
   2947 ****       120.7500 250.0000 358.7500 Du        
   2948 ****       121.0000 244.7500 360.0000 Du        
   2949 ****       121.0000 244.7500 360.2500 Du        
   2950 ****       121.0000 244.7500 360.5000 Du        
   2951 ****       121.0000 244.7500 360.7500 Du        
   2952 ****       121.0000 245.0000 359.7500 Du        
   2953 ****       121.0000 245.0000 360.0000 Du        
   2954 ****       121.0000 245.0000 360.2500 Du        
   2955 ****       121.0000 245.0000 360.5000 Du        
   2956 ****       121.0000 245.0000 360.7500 Du        
   2957 ****       121.0000 245.0000 361.0000 Du        
   2958 ****       121.0000 245.2500 359.5000 Du        
   2959 ****       121.0000 245.2500 359.7500 Du        
   2960 ****       121.0000 245.2500 360.0000 Du        
   2961 ****       121.0000 245.2500 360.2500 Du        
   2962 ****       121.0000 245.2500 360.5000 Du        
   2963 ****       121.0000 245.2500 360.7500 Du        
   2964 ****       121.0000 245.2500 361.0000 Du        
   2965 ****       121.0000 245.5000 359.5000 Du        
   2966 ****       121.0000 245.5000 359.7500 Du        
   2967 ****       121.0000 245.5000 360.0000 Du        
   2968 ****       121.0000 245.5000 360.2500 Du        
   2969 ****       121.0000 245.5000 360.5000 Du        
   2970 ****       121.0000 245.5000 360.7500 Du        
   2971 ****       121.0000 245.5000 361.0000 Du        
   2972 ****       121.0000 245.7500 359.0000 Du        
   2973 ****       121.0000 245.7500 359.2500 Du        
   2974 ****       121.0000 245.7500 359.5000 Du        
   2975 ****       121.0000 245.7500 359.7500 Du        
   2976 ****       121.0000 245.7500 360.0000 Du        
   2977 ****       121.0000 245.7500 360.2500 Du        
   2978 ****       121.0000 245.7500 360.5000 Du        
   2979 ****       121.0000 245.7500 360.7500 Du        
   2980 ****       121.0000 245.7500 361.0000 Du        
   2981 ****       121.0000 246.0000 358.7500 Du        
   2982 ****       121.0000 246.0000 359.0000 Du        
   2983 ****       121.0000 246.0000 359.2500 Du        
   2984 ****       121.0000 246.0000 359.5000 Du        
   2985 ****       121.0000 246.0000 359.7500 Du        
   2986 ****       121.0000 246.0000 360.0000 Du        
   2987 ****       121.0000 246.0000 360.2500 Du        
   2988 ****       121.0000 246.0000 360.5000 Du        
   2989 ****       121.0000 246.0000 360.7500 Du        
   2990 ****       121.0000 246.2500 358.7500 Du        
   2991 ****       121.0000 246.2500 359.0000 Du        
   2992 ****       121.0000 246.2500 359.2500 Du        
   2993 ****       121.0000 246.2500 359.5000 Du        
   2994 ****       121.0000 246.2500 359.7500 Du        
   2995 ****       121.0000 246.2500 360.0000 Du        
   2996 ****       121.0000 246.2500 360.2500 Du        
   2997 ****       121.0000 246.2500 360.5000 Du        
   2998 ****       121.0000 246.5000 358.7500 Du        
   2999 ****       121.0000 246.5000 359.0000 Du        
   3000 ****       121.0000 246.5000 359.2500 Du        
   3001 ****       121.0000 246.5000 359.5000 Du        
   3002 ****       121.0000 246.5000 359.7500 Du        
   3003 ****       121.0000 246.5000 360.0000 Du        
   3004 ****       121.0000 246.7500 358.7500 Du        
   3005 ****       121.0000 246.7500 359.0000 Du        
   3006 ****       121.0000 246.7500 359.2500 Du        
   3007 ****       121.0000 246.7500 359.5000 Du        
   3008 ****       121.0000 246.7500 359.7500 Du        
   3009 ****       121.0000 247.0000 359.0000 Du        
   3010 ****       121.0000 247.0000 359.2500 Du        
   3011 ****       121.0000 247.0000 359.5000 Du        
   3012 ****       121.0000 247.0000 359.7500 Du        
   3013 ****       121.0000 247.2500 359.0000 Du        
   3014 ****       121.0000 247.2500 359.2500 Du        
   3015 ****       121.0000 247.2500 359.5000 Du        
   3016 ****       121.0000 247.5000 359.0000 Du        
   3017 ****       121.0000 247.5000 359.2500 Du        
   3018 ****       121.0000 247.7500 359.0000 Du        
   3019 ****       121.0000 248.0000 359.0000 Du        
   3020 ****       121.0000 249.0000 358.5000 Du        
   3021 ****       121.0000 249.0000 358.7500 Du        
   3022 ****       121.0000 249.2500 358.5000 Du        
   3023 ****       121.0000 249.2500 358.7500 Du        
   3024 ****       121.0000 249.5000 358.2500 Du        
   3025 ****       121.0000 249.5000 358.5000 Du        
   3026 ****       121.0000 249.5000 358.7500 Du        
   3027 ****       121.0000 249.7500 358.2500 Du        
   3028 ****       121.0000 249.7500 358.5000 Du        
   3029 ****       121.0000 249.7500 358.7500 Du        
   3030 ****       121.0000 250.0000 358.2500 Du        
   3031 ****       121.0000 250.0000 358.5000 Du        
   3032 ****       121.0000 250.0000 358.7500 Du        
   3033 ****       121.0000 250.2500 358.7500 Du        
   3034 ****       121.2500 244.7500 359.7500 Du        
   3035 ****       121.2500 244.7500 360.0000 Du        
   3036 ****       121.2500 244.7500 360.2500 Du        
   3037 ****       121.2500 244.7500 360.5000 Du        
   3038 ****       121.2500 244.7500 360.7500 Du        
   3039 ****       121.2500 245.0000 359.2500 Du        
   3040 ****       121.2500 245.0000 359.5000 Du        
   3041 ****       121.2500 245.0000 359.7500 Du        
   3042 ****       121.2500 245.0000 360.0000 Du        
   3043 ****       121.2500 245.0000 360.2500 Du        
   3044 ****       121.2500 245.0000 360.5000 Du        
   3045 ****       121.2500 245.0000 360.7500 Du        
   3046 ****       121.2500 245.0000 361.0000 Du        
   3047 ****       121.2500 245.2500 359.0000 Du        
   3048 ****       121.2500 245.2500 359.2500 Du        
   3049 ****       121.2500 245.2500 359.5000 Du        
   3050 ****       121.2500 245.2500 359.7500 Du        
   3051 ****       121.2500 245.2500 360.0000 Du        
   3052 ****       121.2500 245.2500 360.2500 Du        
   3053 ****       121.2500 245.2500 360.5000 Du        
   3054 ****       121.2500 245.2500 360.7500 Du        
   3055 ****       121.2500 245.5000 359.0000 Du        
   3056 ****       121.2500 245.5000 359.2500 Du        
   3057 ****       121.2500 245.5000 359.5000 Du        
   3058 ****       121.2500 245.5000 359.7500 Du        
   3059 ****       121.2500 245.5000 360.0000 Du        
   3060 ****       121.2500 245.5000 360.2500 Du        
   3061 ****       121.2500 245.5000 360.5000 Du        
   3062 ****       121.2500 245.5000 360.7500 Du        
   3063 ****       121.2500 245.7500 358.7500 Du        
   3064 ****       121.2500 245.7500 359.0000 Du        
   3065 ****       121.2500 245.7500 359.2500 Du        
   3066 ****       121.2500 245.7500 359.5000 Du        
   3067 ****       121.2500 245.7500 359.7500 Du        
   3068 ****       121.2500 245.7500 360.0000 Du        
   3069 ****       121.2500 245.7500 360.2500 Du        
   3070 ****       121.2500 245.7500 360.5000 Du        
   3071 ****       121.2500 246.0000 358.7500 Du        
   3072 ****       121.2500 246.0000 359.0000 Du        
   3073 ****       121.2500 246.0000 359.2500 Du        
   3074 ****       121.2500 246.0000 359.5000 Du        
   3075 ****       121.2500 246.0000 359.7500 Du        
   3076 ****       121.2500 246.0000 360.0000 Du        
   3077 ****       121.2500 246.0000 360.2500 Du        
   3078 ****       121.2500 246.2500 358.7500 Du        
   3079 ****       121.2500 246.2500 359.0000 Du        
   3080 ****       121.2500 246.2500 359.2500 Du        
   3081 ****       121.2500 246.2500 359.5000 Du        
   3082 ****       121.2500 246.2500 359.7500 Du        
   3083 ****       121.2500 246.2500 360.0000 Du        
   3084 ****       121.2500 246.5000 358.7500 Du        
   3085 ****       121.2500 246.5000 359.0000 Du        
   3086 ****       121.2500 246.5000 359.2500 Du        
   3087 ****       121.2500 246.5000 359.5000 Du        
   3088 ****       121.2500 246.5000 359.7500 Du        
   3089 ****       121.2500 246.7500 358.7500 Du        
   3090 ****       121.2500 246.7500 359.0000 Du        
   3091 ****       121.2500 246.7500 359.2500 Du        
   3092 ****       121.2500 246.7500 359.5000 Du        
   3093 ****       121.2500 246.7500 359.7500 Du        
   3094 ****       121.2500 247.0000 359.0000 Du        
   3095 ****       121.2500 247.0000 359.2500 Du        
   3096 ****       121.2500 247.0000 359.5000 Du        
   3097 ****       121.2500 247.2500 359.0000 Du        
   3098 ****       121.2500 247.2500 359.2500 Du        
   3099 ****       121.2500 247.2500 359.5000 Du        
   3100 ****       121.2500 248.0000 359.0000 Du        
   3101 ****       121.2500 248.2500 359.0000 Du        
   3102 ****       121.2500 248.7500 358.7500 Du        
   3103 ****       121.2500 249.0000 358.7500 Du        
   3104 ****       121.2500 249.2500 358.5000 Du        
   3105 ****       121.2500 249.2500 358.7500 Du        
   3106 ****       121.2500 249.5000 358.2500 Du        
   3107 ****       121.2500 249.5000 358.5000 Du        
   3108 ****       121.2500 249.5000 358.7500 Du        
   3109 ****       121.2500 249.7500 358.0000 Du        
   3110 ****       121.2500 249.7500 358.2500 Du        
   3111 ****       121.2500 249.7500 358.5000 Du        
   3112 ****       121.2500 249.7500 358.7500 Du        
   3113 ****       121.2500 250.0000 358.0000 Du        
   3114 ****       121.2500 250.0000 358.2500 Du        
   3115 ****       121.2500 250.0000 358.5000 Du        
   3116 ****       121.2500 250.0000 358.7500 Du        
   3117 ****       121.2500 250.0000 359.0000 Du        
   3118 ****       121.2500 250.2500 358.0000 Du        
   3119 ****       121.2500 250.2500 358.2500 Du        
   3120 ****       121.2500 250.2500 358.5000 Du        
   3121 ****       121.2500 250.2500 358.7500 Du        
   3122 ****       121.2500 250.2500 359.0000 Du        
   3123 ****       121.2500 250.5000 358.2500 Du        
   3124 ****       121.2500 250.5000 358.5000 Du        
   3125 ****       121.2500 250.5000 358.7500 Du        
   3126 ****       121.2500 250.5000 359.0000 Du        
   3127 ****       121.2500 250.7500 358.7500 Du        
   3128 ****       121.2500 250.7500 359.0000 Du        
   3129 ****       121.2500 250.7500 359.2500 Du        
   3130 ****       121.2500 251.0000 359.0000 Du        
   3131 ****       121.2500 251.0000 359.2500 Du        
   3132 ****       121.2500 251.0000 359.5000 Du        
   3133 ****       121.2500 251.2500 359.0000 Du        
   3134 ****       121.2500 251.2500 359.2500 Du        
   3135 ****       121.2500 251.2500 359.5000 Du        
   3136 ****       121.2500 251.5000 359.2500 Du        
   3137 ****       121.2500 251.5000 359.5000 Du        
   3138 ****       121.2500 251.5000 359.7500 Du        
   3139 ****       121.2500 251.7500 359.2500 Du        
   3140 ****       121.2500 251.7500 359.5000 Du        
   3141 ****       121.2500 251.7500 359.7500 Du        
   3142 ****       121.2500 252.0000 359.2500 Du        
   3143 ****       121.2500 252.0000 359.5000 Du        
   3144 ****       121.2500 252.0000 359.7500 Du        
   3145 ****       121.2500 252.0000 360.0000 Du        
   3146 ****       121.2500 252.2500 359.2500 Du        
   3147 ****       121.2500 252.2500 359.5000 Du        
   3148 ****       121.2500 252.2500 359.7500 Du        
   3149 ****       121.2500 252.5000 359.2500 Du        
   3150 ****       121.2500 252.5000 359.5000 Du        
   3151 ****       121.2500 252.5000 359.7500 Du        
   3152 ****       121.5000 244.7500 359.2500 Du        
   3153 ****       121.5000 244.7500 359.5000 Du        
   3154 ****       121.5000 244.7500 359.7500 Du        
   3155 ****       121.5000 244.7500 360.0000 Du        
   3156 ****       121.5000 245.0000 359.0000 Du        
   3157 ****       121.5000 245.0000 359.2500 Du        
   3158 ****       121.5000 245.0000 359.5000 Du        
   3159 ****       121.5000 245.0000 359.7500 Du        
   3160 ****       121.5000 245.0000 360.0000 Du        
   3161 ****       121.5000 245.2500 358.7500 Du        
   3162 ****       121.5000 245.2500 359.0000 Du        
   3163 ****       121.5000 245.2500 359.2500 Du        
   3164 ****       121.5000 245.2500 359.5000 Du        
   3165 ****       121.5000 245.2500 359.7500 Du        
   3166 ****       121.5000 245.5000 358.7500 Du        
   3167 ****       121.5000 245.5000 359.0000 Du        
   3168 ****       121.5000 245.5000 359.2500 Du        
   3169 ****       121.5000 245.7500 358.7500 Du        
   3170 ****       121.5000 245.7500 359.0000 Du        
   3171 ****       121.5000 245.7500 359.2500 Du        
   3172 ****       121.5000 246.0000 358.7500 Du        
   3173 ****       121.5000 246.0000 359.0000 Du        
   3174 ****       121.5000 246.0000 359.2500 Du        
   3175 ****       121.5000 246.2500 358.7500 Du        
   3176 ****       121.5000 246.2500 359.0000 Du        
   3177 ****       121.5000 246.2500 359.2500 Du        
   3178 ****       121.5000 249.5000 358.2500 Du        
   3179 ****       121.5000 249.5000 358.7500 Du        
   3180 ****       121.5000 249.7500 358.0000 Du        
   3181 ****       121.5000 249.7500 358.2500 Du        
   3182 ****       121.5000 249.7500 358.5000 Du        
   3183 ****       121.5000 249.7500 358.7500 Du        
   3184 ****       121.5000 250.0000 358.0000 Du        
   3185 ****       121.5000 250.0000 358.2500 Du        
   3186 ****       121.5000 250.0000 358.5000 Du        
   3187 ****       121.5000 250.0000 358.7500 Du        
   3188 ****       121.5000 250.0000 359.0000 Du        
   3189 ****       121.5000 250.2500 357.7500 Du        
   3190 ****       121.5000 250.2500 358.0000 Du        
   3191 ****       121.5000 250.2500 358.2500 Du        
   3192 ****       121.5000 250.2500 358.5000 Du        
   3193 ****       121.5000 250.2500 358.7500 Du        
   3194 ****       121.5000 250.2500 359.0000 Du        
   3195 ****       121.5000 250.5000 358.0000 Du        
   3196 ****       121.5000 250.5000 358.2500 Du        
   3197 ****       121.5000 250.5000 358.5000 Du        
   3198 ****       121.5000 250.5000 358.7500 Du        
   3199 ****       121.5000 250.5000 359.0000 Du        
   3200 ****       121.5000 250.7500 358.2500 Du        
   3201 ****       121.5000 250.7500 358.5000 Du        
   3202 ****       121.5000 250.7500 358.7500 Du        
   3203 ****       121.5000 250.7500 359.0000 Du        
   3204 ****       121.5000 250.7500 359.2500 Du        
   3205 ****       121.5000 251.0000 358.7500 Du        
   3206 ****       121.5000 251.0000 359.0000 Du        
   3207 ****       121.5000 251.0000 359.2500 Du        
   3208 ****       121.5000 251.2500 358.7500 Du        
   3209 ****       121.5000 251.2500 359.0000 Du        
   3210 ****       121.5000 251.2500 359.2500 Du        
   3211 ****       121.5000 251.2500 359.5000 Du        
   3212 ****       121.5000 251.5000 359.0000 Du        
   3213 ****       121.5000 251.5000 359.2500 Du        
   3214 ****       121.5000 251.5000 359.5000 Du        
   3215 ****       121.5000 251.5000 359.7500 Du        
   3216 ****       121.5000 251.7500 359.0000 Du        
   3217 ****       121.5000 251.7500 359.2500 Du        
   3218 ****       121.5000 251.7500 359.5000 Du        
   3219 ****       121.5000 251.7500 359.7500 Du        
   3220 ****       121.5000 252.0000 359.0000 Du        
   3221 ****       121.5000 252.0000 359.2500 Du        
   3222 ****       121.5000 252.0000 359.5000 Du        
   3223 ****       121.5000 252.0000 359.7500 Du        
   3224 ****       121.5000 252.0000 360.0000 Du        
   3225 ****       121.5000 252.2500 359.0000 Du        
   3226 ****       121.5000 252.2500 359.2500 Du        
   3227 ****       121.5000 252.2500 359.5000 Du        
   3228 ****       121.5000 252.2500 359.7500 Du        
   3229 ****       121.5000 252.2500 360.0000 Du        
   3230 ****       121.5000 252.5000 359.0000 Du        
   3231 ****       121.5000 252.5000 359.2500 Du        
   3232 ****       121.5000 252.5000 359.5000 Du        
   3233 ****       121.5000 252.5000 359.7500 Du        
   3234 ****       121.5000 252.5000 360.0000 Du        
   3235 ****       121.5000 252.7500 359.2500 Du        
   3236 ****       121.5000 252.7500 359.5000 Du        
   3237 ****       121.5000 252.7500 359.7500 Du        
   3238 ****       121.5000 253.0000 359.2500 Du        
   3239 ****       121.5000 253.0000 359.5000 Du        
   3240 ****       121.7500 244.7500 358.2500 Du        
   3241 ****       121.7500 244.7500 358.5000 Du        
   3242 ****       121.7500 244.7500 358.7500 Du        
   3243 ****       121.7500 244.7500 359.0000 Du        
   3244 ****       121.7500 244.7500 359.2500 Du        
   3245 ****       121.7500 244.7500 359.5000 Du        
   3246 ****       121.7500 245.0000 357.7500 Du        
   3247 ****       121.7500 245.0000 358.0000 Du        
   3248 ****       121.7500 245.0000 358.2500 Du        
   3249 ****       121.7500 245.0000 358.5000 Du        
   3250 ****       121.7500 245.0000 358.7500 Du        
   3251 ****       121.7500 245.0000 359.0000 Du        
   3252 ****       121.7500 245.0000 359.2500 Du        
   3253 ****       121.7500 245.0000 359.5000 Du        
   3254 ****       121.7500 245.2500 357.7500 Du        
   3255 ****       121.7500 245.2500 358.0000 Du        
   3256 ****       121.7500 245.2500 358.2500 Du        
   3257 ****       121.7500 245.2500 358.5000 Du        
   3258 ****       121.7500 245.2500 358.7500 Du        
   3259 ****       121.7500 245.2500 359.0000 Du        
   3260 ****       121.7500 245.2500 359.2500 Du        
   3261 ****       121.7500 245.5000 358.0000 Du        
   3262 ****       121.7500 245.5000 358.2500 Du        
   3263 ****       121.7500 245.5000 358.5000 Du        
   3264 ****       121.7500 245.5000 358.7500 Du        
   3265 ****       121.7500 245.5000 359.0000 Du        
   3266 ****       121.7500 245.7500 358.2500 Du        
   3267 ****       121.7500 245.7500 358.5000 Du        
   3268 ****       121.7500 245.7500 358.7500 Du        
   3269 ****       121.7500 245.7500 359.0000 Du        
   3270 ****       121.7500 246.0000 358.2500 Du        
   3271 ****       121.7500 246.0000 358.5000 Du        
   3272 ****       121.7500 246.0000 358.7500 Du        
   3273 ****       121.7500 246.0000 359.0000 Du        
   3274 ****       121.7500 246.2500 358.7500 Du        
   3275 ****       121.7500 246.2500 359.0000 Du        
   3276 ****       121.7500 249.5000 358.2500 Du        
   3277 ****       121.7500 249.5000 358.5000 Du        
   3278 ****       121.7500 249.5000 358.7500 Du        
   3279 ****       121.7500 249.7500 358.0000 Du        
   3280 ****       121.7500 249.7500 358.2500 Du        
   3281 ****       121.7500 249.7500 358.5000 Du        
   3282 ****       121.7500 249.7500 358.7500 Du        
   3283 ****       121.7500 249.7500 359.0000 Du        
   3284 ****       121.7500 250.0000 357.7500 Du        
   3285 ****       121.7500 250.0000 358.0000 Du        
   3286 ****       121.7500 250.0000 358.2500 Du        
   3287 ****       121.7500 250.0000 358.5000 Du        
   3288 ****       121.7500 250.0000 358.7500 Du        
   3289 ****       121.7500 250.0000 359.0000 Du        
   3290 ****       121.7500 250.2500 357.7500 Du        
   3291 ****       121.7500 250.2500 358.0000 Du        
   3292 ****       121.7500 250.2500 358.2500 Du        
   3293 ****       121.7500 250.2500 358.5000 Du        
   3294 ****       121.7500 250.2500 358.7500 Du        
   3295 ****       121.7500 250.2500 359.0000 Du        
   3296 ****       121.7500 250.5000 357.7500 Du        
   3297 ****       121.7500 250.5000 358.0000 Du        
   3298 ****       121.7500 250.5000 358.2500 Du        
   3299 ****       121.7500 250.5000 358.5000 Du        
   3300 ****       121.7500 250.5000 358.7500 Du        
   3301 ****       121.7500 250.5000 359.0000 Du        
   3302 ****       121.7500 250.5000 359.2500 Du        
   3303 ****       121.7500 250.7500 358.0000 Du        
   3304 ****       121.7500 250.7500 358.2500 Du        
   3305 ****       121.7500 250.7500 358.5000 Du        
   3306 ****       121.7500 250.7500 358.7500 Du        
   3307 ****       121.7500 250.7500 359.0000 Du        
   3308 ****       121.7500 250.7500 359.2500 Du        
   3309 ****       121.7500 251.0000 358.0000 Du        
   3310 ****       121.7500 251.0000 358.2500 Du        
   3311 ****       121.7500 251.0000 358.5000 Du        
   3312 ****       121.7500 251.0000 358.7500 Du        
   3313 ****       121.7500 251.0000 359.0000 Du        
   3314 ****       121.7500 251.0000 359.2500 Du        
   3315 ****       121.7500 251.0000 359.5000 Du        
   3316 ****       121.7500 251.2500 358.2500 Du        
   3317 ****       121.7500 251.2500 358.5000 Du        
   3318 ****       121.7500 251.2500 358.7500 Du        
   3319 ****       121.7500 251.2500 359.0000 Du        
   3320 ****       121.7500 251.2500 359.2500 Du        
   3321 ****       121.7500 251.2500 359.5000 Du        
   3322 ****       121.7500 251.2500 359.7500 Du        
   3323 ****       121.7500 251.5000 358.5000 Du        
   3324 ****       121.7500 251.5000 358.7500 Du        
   3325 ****       121.7500 251.5000 359.0000 Du        
   3326 ****       121.7500 251.5000 359.2500 Du        
   3327 ****       121.7500 251.5000 359.5000 Du        
   3328 ****       121.7500 251.5000 359.7500 Du        
   3329 ****       121.7500 251.5000 360.0000 Du        
   3330 ****       121.7500 251.7500 358.7500 Du        
   3331 ****       121.7500 251.7500 359.0000 Du        
   3332 ****       121.7500 251.7500 359.2500 Du        
   3333 ****       121.7500 251.7500 359.5000 Du        
   3334 ****       121.7500 251.7500 359.7500 Du        
   3335 ****       121.7500 251.7500 360.0000 Du        
   3336 ****       121.7500 252.0000 358.7500 Du        
   3337 ****       121.7500 252.0000 359.0000 Du        
   3338 ****       121.7500 252.0000 359.2500 Du        
   3339 ****       121.7500 252.0000 359.5000 Du        
   3340 ****       121.7500 252.0000 359.7500 Du        
   3341 ****       121.7500 252.0000 360.0000 Du        
   3342 ****       121.7500 252.2500 358.7500 Du        
   3343 ****       121.7500 252.2500 359.0000 Du        
   3344 ****       121.7500 252.2500 359.2500 Du        
   3345 ****       121.7500 252.2500 359.5000 Du        
   3346 ****       121.7500 252.2500 359.7500 Du        
   3347 ****       121.7500 252.2500 360.0000 Du        
   3348 ****       121.7500 252.2500 360.2500 Du        
   3349 ****       121.7500 252.5000 359.0000 Du        
   3350 ****       121.7500 252.5000 359.2500 Du        
   3351 ****       121.7500 252.5000 359.5000 Du        
   3352 ****       121.7500 252.5000 359.7500 Du        
   3353 ****       121.7500 252.5000 360.0000 Du        
   3354 ****       121.7500 252.5000 360.2500 Du        
   3355 ****       121.7500 252.7500 359.0000 Du        
   3356 ****       121.7500 252.7500 359.2500 Du        
   3357 ****       121.7500 252.7500 359.5000 Du        
   3358 ****       121.7500 252.7500 359.7500 Du        
   3359 ****       121.7500 252.7500 360.0000 Du        
   3360 ****       121.7500 253.0000 359.0000 Du        
   3361 ****       121.7500 253.0000 359.2500 Du        
   3362 ****       121.7500 253.0000 359.5000 Du        
   3363 ****       121.7500 253.0000 359.7500 Du        
   3364 ****       121.7500 253.0000 360.0000 Du        
   3365 ****       121.7500 253.2500 359.2500 Du        
   3366 ****       121.7500 253.2500 359.5000 Du        
   3367 ****       121.7500 253.2500 359.7500 Du        
   3368 ****       122.0000 244.5000 357.7500 Du        
   3369 ****       122.0000 244.5000 358.0000 Du        
   3370 ****       122.0000 244.5000 358.2500 Du        
   3371 ****       122.0000 244.5000 358.5000 Du        
   3372 ****       122.0000 244.5000 358.7500 Du        
   3373 ****       122.0000 244.5000 359.0000 Du        
   3374 ****       122.0000 244.7500 356.7500 Du        
   3375 ****       122.0000 244.7500 357.0000 Du        
   3376 ****       122.0000 244.7500 357.2500 Du        
   3377 ****       122.0000 244.7500 357.5000 Du        
   3378 ****       122.0000 244.7500 357.7500 Du        
   3379 ****       122.0000 244.7500 358.0000 Du        
   3380 ****       122.0000 244.7500 358.2500 Du        
   3381 ****       122.0000 244.7500 358.5000 Du        
   3382 ****       122.0000 244.7500 358.7500 Du        
   3383 ****       122.0000 244.7500 359.0000 Du        
   3384 ****       122.0000 244.7500 359.2500 Du        
   3385 ****       122.0000 245.0000 357.0000 Du        
   3386 ****       122.0000 245.0000 357.2500 Du        
   3387 ****       122.0000 245.0000 357.5000 Du        
   3388 ****       122.0000 245.0000 357.7500 Du        
   3389 ****       122.0000 245.0000 358.0000 Du        
   3390 ****       122.0000 245.0000 358.2500 Du        
   3391 ****       122.0000 245.0000 358.5000 Du        
   3392 ****       122.0000 245.0000 358.7500 Du        
   3393 ****       122.0000 245.0000 359.0000 Du        
   3394 ****       122.0000 245.0000 359.2500 Du        
   3395 ****       122.0000 245.2500 357.5000 Du        
   3396 ****       122.0000 245.2500 357.7500 Du        
   3397 ****       122.0000 245.2500 358.0000 Du        
   3398 ****       122.0000 245.2500 358.2500 Du        
   3399 ****       122.0000 245.2500 358.5000 Du        
   3400 ****       122.0000 245.2500 358.7500 Du        
   3401 ****       122.0000 245.2500 359.0000 Du        
   3402 ****       122.0000 245.5000 357.7500 Du        
   3403 ****       122.0000 245.5000 358.0000 Du        
   3404 ****       122.0000 245.5000 358.2500 Du        
   3405 ****       122.0000 245.5000 358.5000 Du        
   3406 ****       122.0000 245.5000 358.7500 Du        
   3407 ****       122.0000 245.7500 358.0000 Du        
   3408 ****       122.0000 245.7500 358.2500 Du        
   3409 ****       122.0000 245.7500 358.5000 Du        
   3410 ****       122.0000 245.7500 358.7500 Du        
   3411 ****       122.0000 246.0000 358.5000 Du        
   3412 ****       122.0000 246.0000 358.7500 Du        
   3413 ****       122.0000 249.5000 358.5000 Du        
   3414 ****       122.0000 249.5000 358.7500 Du        
   3415 ****       122.0000 249.7500 358.0000 Du        
   3416 ****       122.0000 249.7500 358.2500 Du        
   3417 ****       122.0000 249.7500 358.5000 Du        
   3418 ****       122.0000 249.7500 358.7500 Du        
   3419 ****       122.0000 249.7500 359.0000 Du        
   3420 ****       122.0000 250.0000 357.7500 Du        
   3421 ****       122.0000 250.0000 358.0000 Du        
   3422 ****       122.0000 250.0000 358.2500 Du        
   3423 ****       122.0000 250.0000 358.5000 Du        
   3424 ****       122.0000 250.0000 358.7500 Du        
   3425 ****       122.0000 250.0000 359.0000 Du        
   3426 ****       122.0000 250.2500 357.7500 Du        
   3427 ****       122.0000 250.2500 358.0000 Du        
   3428 ****       122.0000 250.2500 358.2500 Du        
   3429 ****       122.0000 250.2500 358.5000 Du        
   3430 ****       122.0000 250.2500 358.7500 Du        
   3431 ****       122.0000 250.2500 359.0000 Du        
   3432 ****       122.0000 250.2500 359.2500 Du        
   3433 ****       122.0000 250.5000 357.7500 Du        
   3434 ****       122.0000 250.5000 358.0000 Du        
   3435 ****       122.0000 250.5000 358.2500 Du        
   3436 ****       122.0000 250.5000 358.5000 Du        
   3437 ****       122.0000 250.5000 358.7500 Du        
   3438 ****       122.0000 250.5000 359.0000 Du        
   3439 ****       122.0000 250.5000 359.2500 Du        
   3440 ****       122.0000 250.7500 358.0000 Du        
   3441 ****       122.0000 250.7500 358.2500 Du        
   3442 ****       122.0000 250.7500 358.5000 Du        
   3443 ****       122.0000 250.7500 358.7500 Du        
   3444 ****       122.0000 250.7500 359.0000 Du        
   3445 ****       122.0000 250.7500 359.2500 Du        
   3446 ****       122.0000 250.7500 359.5000 Du        
   3447 ****       122.0000 251.0000 358.0000 Du        
   3448 ****       122.0000 251.0000 358.2500 Du        
   3449 ****       122.0000 251.0000 358.5000 Du        
   3450 ****       122.0000 251.0000 358.7500 Du        
   3451 ****       122.0000 251.0000 359.0000 Du        
   3452 ****       122.0000 251.0000 359.2500 Du        
   3453 ****       122.0000 251.0000 359.5000 Du        
   3454 ****       122.0000 251.0000 359.7500 Du        
   3455 ****       122.0000 251.2500 358.0000 Du        
   3456 ****       122.0000 251.2500 358.2500 Du        
   3457 ****       122.0000 251.2500 358.5000 Du        
   3458 ****       122.0000 251.2500 358.7500 Du        
   3459 ****       122.0000 251.2500 359.0000 Du        
   3460 ****       122.0000 251.2500 359.2500 Du        
   3461 ****       122.0000 251.2500 359.5000 Du        
   3462 ****       122.0000 251.2500 359.7500 Du        
   3463 ****       122.0000 251.2500 360.0000 Du        
   3464 ****       122.0000 251.5000 358.2500 Du        
   3465 ****       122.0000 251.5000 358.5000 Du        
   3466 ****       122.0000 251.5000 358.7500 Du        
   3467 ****       122.0000 251.5000 359.0000 Du        
   3468 ****       122.0000 251.5000 359.2500 Du        
   3469 ****       122.0000 251.5000 359.5000 Du        
   3470 ****       122.0000 251.5000 359.7500 Du        
   3471 ****       122.0000 251.5000 360.0000 Du        
   3472 ****       122.0000 251.7500 358.2500 Du        
   3473 ****       122.0000 251.7500 358.5000 Du        
   3474 ****       122.0000 251.7500 358.7500 Du        
   3475 ****       122.0000 251.7500 359.0000 Du        
   3476 ****       122.0000 251.7500 359.2500 Du        
   3477 ****       122.0000 251.7500 359.5000 Du        
   3478 ****       122.0000 251.7500 359.7500 Du        
   3479 ****       122.0000 251.7500 360.0000 Du        
   3480 ****       122.0000 251.7500 360.2500 Du        
   3481 ****       122.0000 252.0000 358.5000 Du        
   3482 ****       122.0000 252.0000 358.7500 Du        
   3483 ****       122.0000 252.0000 359.0000 Du        
   3484 ****       122.0000 252.0000 359.2500 Du        
   3485 ****       122.0000 252.0000 359.5000 Du        
   3486 ****       122.0000 252.0000 359.7500 Du        
   3487 ****       122.0000 252.0000 360.0000 Du        
   3488 ****       122.0000 252.0000 360.2500 Du        
   3489 ****       122.0000 252.2500 358.7500 Du        
   3490 ****       122.0000 252.2500 359.0000 Du        
   3491 ****       122.0000 252.2500 359.2500 Du        
   3492 ****       122.0000 252.2500 359.5000 Du        
   3493 ****       122.0000 252.2500 359.7500 Du        
   3494 ****       122.0000 252.2500 360.0000 Du        
   3495 ****       122.0000 252.2500 360.2500 Du        
   3496 ****       122.0000 252.5000 358.7500 Du        
   3497 ****       122.0000 252.5000 359.0000 Du        
   3498 ****       122.0000 252.5000 359.2500 Du        
   3499 ****       122.0000 252.5000 359.5000 Du        
   3500 ****       122.0000 252.5000 359.7500 Du        
   3501 ****       122.0000 252.5000 360.0000 Du        
   3502 ****       122.0000 252.5000 360.2500 Du        
   3503 ****       122.0000 252.7500 358.7500 Du        
   3504 ****       122.0000 252.7500 359.0000 Du        
   3505 ****       122.0000 252.7500 359.2500 Du        
   3506 ****       122.0000 252.7500 359.5000 Du        
   3507 ****       122.0000 252.7500 359.7500 Du        
   3508 ****       122.0000 252.7500 360.0000 Du        
   3509 ****       122.0000 252.7500 360.2500 Du        
   3510 ****       122.0000 253.0000 359.0000 Du        
   3511 ****       122.0000 253.0000 359.2500 Du        
   3512 ****       122.0000 253.0000 359.5000 Du        
   3513 ****       122.0000 253.0000 359.7500 Du        
   3514 ****       122.0000 253.0000 360.0000 Du        
   3515 ****       122.0000 253.0000 360.2500 Du        
   3516 ****       122.0000 253.2500 359.2500 Du        
   3517 ****       122.0000 253.2500 359.5000 Du        
   3518 ****       122.0000 253.2500 359.7500 Du        
   3519 ****       122.0000 253.2500 360.0000 Du        
   3520 ****       122.0000 253.5000 359.5000 Du        
   3521 ****       122.0000 253.5000 359.7500 Du        
   3522 ****       122.2500 244.2500 355.2500 Du        
   3523 ****       122.2500 244.2500 355.5000 Du        
   3524 ****       122.2500 244.2500 355.7500 Du        
   3525 ****       122.2500 244.2500 356.0000 Du        
   3526 ****       122.2500 244.2500 356.2500 Du        
   3527 ****       122.2500 244.2500 356.5000 Du        
   3528 ****       122.2500 244.2500 356.7500 Du        
   3529 ****       122.2500 244.2500 357.0000 Du        
   3530 ****       122.2500 244.2500 357.2500 Du        
   3531 ****       122.2500 244.2500 357.5000 Du        
   3532 ****       122.2500 244.2500 357.7500 Du        
   3533 ****       122.2500 244.2500 358.0000 Du        
   3534 ****       122.2500 244.2500 358.2500 Du        
   3535 ****       122.2500 244.2500 358.5000 Du        
   3536 ****       122.2500 244.2500 358.7500 Du        
   3537 ****       122.2500 244.5000 355.0000 Du        
   3538 ****       122.2500 244.5000 355.2500 Du        
   3539 ****       122.2500 244.5000 355.5000 Du        
   3540 ****       122.2500 244.5000 355.7500 Du        
   3541 ****       122.2500 244.5000 356.0000 Du        
   3542 ****       122.2500 244.5000 356.2500 Du        
   3543 ****       122.2500 244.5000 356.5000 Du        
   3544 ****       122.2500 244.5000 356.7500 Du        
   3545 ****       122.2500 244.5000 357.0000 Du        
   3546 ****       122.2500 244.5000 357.2500 Du        
   3547 ****       122.2500 244.5000 357.5000 Du        
   3548 ****       122.2500 244.5000 357.7500 Du        
   3549 ****       122.2500 244.5000 358.0000 Du        
   3550 ****       122.2500 244.5000 358.2500 Du        
   3551 ****       122.2500 244.5000 358.5000 Du        
   3552 ****       122.2500 244.5000 358.7500 Du        
   3553 ****       122.2500 244.5000 359.0000 Du        
   3554 ****       122.2500 244.7500 355.2500 Du        
   3555 ****       122.2500 244.7500 355.5000 Du        
   3556 ****       122.2500 244.7500 355.7500 Du        
   3557 ****       122.2500 244.7500 356.0000 Du        
   3558 ****       122.2500 244.7500 356.2500 Du        
   3559 ****       122.2500 244.7500 356.5000 Du        
   3560 ****       122.2500 244.7500 356.7500 Du        
   3561 ****       122.2500 244.7500 357.0000 Du        
   3562 ****       122.2500 244.7500 357.2500 Du        
   3563 ****       122.2500 244.7500 357.5000 Du        
   3564 ****       122.2500 244.7500 357.7500 Du        
   3565 ****       122.2500 244.7500 358.0000 Du        
   3566 ****       122.2500 244.7500 358.2500 Du        
   3567 ****       122.2500 244.7500 358.5000 Du        
   3568 ****       122.2500 244.7500 358.7500 Du        
   3569 ****       122.2500 244.7500 359.0000 Du        
   3570 ****       122.2500 245.0000 356.2500 Du        
   3571 ****       122.2500 245.0000 356.5000 Du        
   3572 ****       122.2500 245.0000 356.7500 Du        
   3573 ****       122.2500 245.0000 357.0000 Du        
   3574 ****       122.2500 245.0000 357.2500 Du        
   3575 ****       122.2500 245.0000 357.5000 Du        
   3576 ****       122.2500 245.0000 357.7500 Du        
   3577 ****       122.2500 245.0000 358.0000 Du        
   3578 ****       122.2500 245.0000 358.2500 Du        
   3579 ****       122.2500 245.0000 358.5000 Du        
   3580 ****       122.2500 245.0000 358.7500 Du        
   3581 ****       122.2500 245.2500 357.0000 Du        
   3582 ****       122.2500 245.2500 357.2500 Du        
   3583 ****       122.2500 245.2500 357.5000 Du        
   3584 ****       122.2500 245.2500 357.7500 Du        
   3585 ****       122.2500 245.2500 358.0000 Du        
   3586 ****       122.2500 245.2500 358.2500 Du        
   3587 ****       122.2500 245.2500 358.5000 Du        
   3588 ****       122.2500 245.2500 358.7500 Du        
   3589 ****       122.2500 245.5000 357.7500 Du        
   3590 ****       122.2500 245.5000 358.0000 Du        
   3591 ****       122.2500 245.5000 358.2500 Du        
   3592 ****       122.2500 245.5000 358.5000 Du        
   3593 ****       122.2500 245.7500 358.0000 Du        
   3594 ****       122.2500 245.7500 358.2500 Du        
   3595 ****       122.2500 245.7500 358.5000 Du        
   3596 ****       122.2500 246.0000 358.2500 Du        
   3597 ****       122.2500 246.0000 358.5000 Du        
   3598 ****       122.2500 250.0000 358.0000 Du        
   3599 ****       122.2500 250.0000 358.2500 Du        
   3600 ****       122.2500 250.0000 358.5000 Du        
   3601 ****       122.2500 250.0000 358.7500 Du        
   3602 ****       122.2500 250.0000 359.0000 Du        
   3603 ****       122.2500 250.2500 357.7500 Du        
   3604 ****       122.2500 250.2500 358.0000 Du        
   3605 ****       122.2500 250.2500 358.2500 Du        
   3606 ****       122.2500 250.2500 358.5000 Du        
   3607 ****       122.2500 250.2500 358.7500 Du        
   3608 ****       122.2500 250.2500 359.0000 Du        
   3609 ****       122.2500 250.2500 359.2500 Du        
   3610 ****       122.2500 250.5000 357.7500 Du        
   3611 ****       122.2500 250.5000 358.0000 Du        
   3612 ****       122.2500 250.5000 358.2500 Du        
   3613 ****       122.2500 250.5000 358.5000 Du        
   3614 ****       122.2500 250.5000 358.7500 Du        
   3615 ****       122.2500 250.5000 359.0000 Du        
   3616 ****       122.2500 250.5000 359.2500 Du        
   3617 ****       122.2500 250.7500 357.7500 Du        
   3618 ****       122.2500 250.7500 358.0000 Du        
   3619 ****       122.2500 250.7500 358.2500 Du        
   3620 ****       122.2500 250.7500 358.5000 Du        
   3621 ****       122.2500 250.7500 358.7500 Du        
   3622 ****       122.2500 250.7500 359.0000 Du        
   3623 ****       122.2500 250.7500 359.2500 Du        
   3624 ****       122.2500 250.7500 359.5000 Du        
   3625 ****       122.2500 251.0000 358.0000 Du        
   3626 ****       122.2500 251.0000 358.2500 Du        
   3627 ****       122.2500 251.0000 358.5000 Du        
   3628 ****       122.2500 251.0000 358.7500 Du        
   3629 ****       122.2500 251.0000 359.0000 Du        
   3630 ****       122.2500 251.0000 359.2500 Du        
   3631 ****       122.2500 251.0000 359.5000 Du        
   3632 ****       122.2500 251.0000 359.7500 Du        
   3633 ****       122.2500 251.2500 358.0000 Du        
   3634 ****       122.2500 251.2500 358.2500 Du        
   3635 ****       122.2500 251.2500 358.5000 Du        
   3636 ****       122.2500 251.2500 358.7500 Du        
   3637 ****       122.2500 251.2500 359.0000 Du        
   3638 ****       122.2500 251.2500 359.2500 Du        
   3639 ****       122.2500 251.2500 359.5000 Du        
   3640 ****       122.2500 251.2500 359.7500 Du        
   3641 ****       122.2500 251.2500 360.0000 Du        
   3642 ****       122.2500 251.5000 358.0000 Du        
   3643 ****       122.2500 251.5000 358.2500 Du        
   3644 ****       122.2500 251.5000 358.5000 Du        
   3645 ****       122.2500 251.5000 358.7500 Du        
   3646 ****       122.2500 251.5000 359.0000 Du        
   3647 ****       122.2500 251.5000 359.2500 Du        
   3648 ****       122.2500 251.5000 359.5000 Du        
   3649 ****       122.2500 251.5000 359.7500 Du        
   3650 ****       122.2500 251.5000 360.0000 Du        
   3651 ****       122.2500 251.5000 360.2500 Du        
   3652 ****       122.2500 251.7500 358.0000 Du        
   3653 ****       122.2500 251.7500 358.2500 Du        
   3654 ****       122.2500 251.7500 358.5000 Du        
   3655 ****       122.2500 251.7500 358.7500 Du        
   3656 ****       122.2500 251.7500 359.0000 Du        
   3657 ****       122.2500 251.7500 359.2500 Du        
   3658 ****       122.2500 251.7500 359.5000 Du        
   3659 ****       122.2500 251.7500 359.7500 Du        
   3660 ****       122.2500 251.7500 360.0000 Du        
   3661 ****       122.2500 251.7500 360.2500 Du        
   3662 ****       122.2500 252.0000 358.2500 Du        
   3663 ****       122.2500 252.0000 358.5000 Du        
   3664 ****       122.2500 252.0000 358.7500 Du        
   3665 ****       122.2500 252.0000 359.0000 Du        
   3666 ****       122.2500 252.0000 359.2500 Du        
   3667 ****       122.2500 252.0000 359.5000 Du        
   3668 ****       122.2500 252.0000 359.7500 Du        
   3669 ****       122.2500 252.0000 360.0000 Du        
   3670 ****       122.2500 252.0000 360.2500 Du        
   3671 ****       122.2500 252.0000 360.5000 Du        
   3672 ****       122.2500 252.2500 358.5000 Du        
   3673 ****       122.2500 252.2500 358.7500 Du        
   3674 ****       122.2500 252.2500 359.0000 Du        
   3675 ****       122.2500 252.2500 359.2500 Du        
   3676 ****       122.2500 252.2500 359.5000 Du        
   3677 ****       122.2500 252.2500 359.7500 Du        
   3678 ****       122.2500 252.2500 360.0000 Du        
   3679 ****       122.2500 252.2500 360.2500 Du        
   3680 ****       122.2500 252.2500 360.5000 Du        
   3681 ****       122.2500 252.5000 358.5000 Du        
   3682 ****       122.2500 252.5000 358.7500 Du        
   3683 ****       122.2500 252.5000 359.0000 Du        
   3684 ****       122.2500 252.5000 359.2500 Du        
   3685 ****       122.2500 252.5000 359.5000 Du        
   3686 ****       122.2500 252.5000 359.7500 Du        
   3687 ****       122.2500 252.5000 360.0000 Du        
   3688 ****       122.2500 252.5000 360.2500 Du        
   3689 ****       122.2500 252.5000 360.5000 Du        
   3690 ****       122.2500 252.7500 358.7500 Du        
   3691 ****       122.2500 252.7500 359.0000 Du        
   3692 ****       122.2500 252.7500 359.2500 Du        
   3693 ****       122.2500 252.7500 359.5000 Du        
   3694 ****       122.2500 252.7500 359.7500 Du        
   3695 ****       122.2500 252.7500 360.0000 Du        
   3696 ****       122.2500 252.7500 360.2500 Du        
   3697 ****       122.2500 252.7500 360.5000 Du        
   3698 ****       122.2500 253.0000 359.0000 Du        
   3699 ****       122.2500 253.0000 359.2500 Du        
   3700 ****       122.2500 253.0000 359.5000 Du        
   3701 ****       122.2500 253.0000 359.7500 Du        
   3702 ****       122.2500 253.0000 360.0000 Du        
   3703 ****       122.2500 253.0000 360.2500 Du        
   3704 ****       122.2500 253.2500 359.2500 Du        
   3705 ****       122.2500 253.2500 359.5000 Du        
   3706 ****       122.2500 253.2500 359.7500 Du        
   3707 ****       122.2500 253.2500 360.0000 Du        
   3708 ****       122.2500 253.2500 360.2500 Du        
   3709 ****       122.2500 253.5000 359.5000 Du        
   3710 ****       122.2500 253.5000 359.7500 Du        
   3711 ****       122.2500 253.5000 360.0000 Du        
   3712 ****       122.2500 253.7500 359.7500 Du        
   3713 ****       122.5000 244.0000 355.5000 Du        
   3714 ****       122.5000 244.0000 355.7500 Du        
   3715 ****       122.5000 244.0000 356.0000 Du        
   3716 ****       122.5000 244.0000 356.2500 Du        
   3717 ****       122.5000 244.0000 356.5000 Du        
   3718 ****       122.5000 244.0000 356.7500 Du        
   3719 ****       122.5000 244.0000 357.0000 Du        
   3720 ****       122.5000 244.0000 357.2500 Du        
   3721 ****       122.5000 244.0000 357.5000 Du        
   3722 ****       122.5000 244.0000 357.7500 Du        
   3723 ****       122.5000 244.0000 358.0000 Du        
   3724 ****       122.5000 244.0000 358.2500 Du        
   3725 ****       122.5000 244.0000 358.5000 Du        
   3726 ****       122.5000 244.2500 355.2500 Du        
   3727 ****       122.5000 244.2500 355.5000 Du        
   3728 ****       122.5000 244.2500 355.7500 Du        
   3729 ****       122.5000 244.2500 356.0000 Du        
   3730 ****       122.5000 244.2500 356.2500 Du        
   3731 ****       122.5000 244.2500 356.5000 Du        
   3732 ****       122.5000 244.2500 356.7500 Du        
   3733 ****       122.5000 244.2500 357.0000 Du        
   3734 ****       122.5000 244.2500 357.2500 Du        
   3735 ****       122.5000 244.2500 357.5000 Du        
   3736 ****       122.5000 244.2500 357.7500 Du        
   3737 ****       122.5000 244.2500 358.0000 Du        
   3738 ****       122.5000 244.2500 358.2500 Du        
   3739 ****       122.5000 244.2500 358.5000 Du        
   3740 ****       122.5000 244.2500 358.7500 Du        
   3741 ****       122.5000 244.5000 355.0000 Du        
   3742 ****       122.5000 244.5000 355.2500 Du        
   3743 ****       122.5000 244.5000 355.5000 Du        
   3744 ****       122.5000 244.5000 355.7500 Du        
   3745 ****       122.5000 244.5000 356.0000 Du        
   3746 ****       122.5000 244.5000 356.2500 Du        
   3747 ****       122.5000 244.5000 356.5000 Du        
   3748 ****       122.5000 244.5000 356.7500 Du        
   3749 ****       122.5000 244.5000 357.0000 Du        
   3750 ****       122.5000 244.5000 357.2500 Du        
   3751 ****       122.5000 244.5000 357.5000 Du        
   3752 ****       122.5000 244.5000 357.7500 Du        
   3753 ****       122.5000 244.5000 358.0000 Du        
   3754 ****       122.5000 244.5000 358.2500 Du        
   3755 ****       122.5000 244.5000 358.5000 Du        
   3756 ****       122.5000 244.5000 358.7500 Du        
   3757 ****       122.5000 244.7500 355.0000 Du        
   3758 ****       122.5000 244.7500 355.2500 Du        
   3759 ****       122.5000 244.7500 355.5000 Du        
   3760 ****       122.5000 244.7500 355.7500 Du        
   3761 ****       122.5000 244.7500 356.0000 Du        
   3762 ****       122.5000 244.7500 356.2500 Du        
   3763 ****       122.5000 244.7500 356.5000 Du        
   3764 ****       122.5000 244.7500 356.7500 Du        
   3765 ****       122.5000 244.7500 357.0000 Du        
   3766 ****       122.5000 244.7500 357.2500 Du        
   3767 ****       122.5000 244.7500 357.5000 Du        
   3768 ****       122.5000 244.7500 357.7500 Du        
   3769 ****       122.5000 244.7500 358.0000 Du        
   3770 ****       122.5000 244.7500 358.2500 Du        
   3771 ****       122.5000 244.7500 358.5000 Du        
   3772 ****       122.5000 244.7500 358.7500 Du        
   3773 ****       122.5000 245.0000 355.2500 Du        
   3774 ****       122.5000 245.0000 355.5000 Du        
   3775 ****       122.5000 245.0000 355.7500 Du        
   3776 ****       122.5000 245.0000 356.0000 Du        
   3777 ****       122.5000 245.0000 356.2500 Du        
   3778 ****       122.5000 245.0000 356.5000 Du        
   3779 ****       122.5000 245.0000 356.7500 Du        
   3780 ****       122.5000 245.0000 357.0000 Du        
   3781 ****       122.5000 245.0000 357.2500 Du        
   3782 ****       122.5000 245.0000 357.5000 Du        
   3783 ****       122.5000 245.0000 357.7500 Du        
   3784 ****       122.5000 245.0000 358.0000 Du        
   3785 ****       122.5000 245.0000 358.2500 Du        
   3786 ****       122.5000 245.0000 358.5000 Du        
   3787 ****       122.5000 245.0000 358.7500 Du        
   3788 ****       122.5000 245.2500 357.0000 Du        
   3789 ****       122.5000 245.2500 357.2500 Du        
   3790 ****       122.5000 245.2500 357.5000 Du        
   3791 ****       122.5000 245.2500 357.7500 Du        
   3792 ****       122.5000 245.2500 358.0000 Du        
   3793 ****       122.5000 245.2500 358.2500 Du        
   3794 ****       122.5000 245.2500 358.5000 Du        
   3795 ****       122.5000 245.2500 358.7500 Du        
   3796 ****       122.5000 245.5000 357.7500 Du        
   3797 ****       122.5000 245.5000 358.0000 Du        
   3798 ****       122.5000 245.5000 358.2500 Du        
   3799 ****       122.5000 245.5000 358.5000 Du        
   3800 ****       122.5000 245.7500 357.7500 Du        
   3801 ****       122.5000 245.7500 358.0000 Du        
   3802 ****       122.5000 245.7500 358.2500 Du        
   3803 ****       122.5000 250.2500 359.0000 Du        
   3804 ****       122.5000 250.5000 359.0000 Du        
   3805 ****       122.5000 250.5000 359.2500 Du        
   3806 ****       122.5000 250.7500 358.2500 Du        
   3807 ****       122.5000 250.7500 358.7500 Du        
   3808 ****       122.5000 250.7500 359.0000 Du        
   3809 ****       122.5000 250.7500 359.2500 Du        
   3810 ****       122.5000 250.7500 359.5000 Du        
   3811 ****       122.5000 250.7500 359.7500 Du        
   3812 ****       122.5000 251.0000 358.0000 Du        
   3813 ****       122.5000 251.0000 358.2500 Du        
   3814 ****       122.5000 251.0000 358.5000 Du        
   3815 ****       122.5000 251.0000 358.7500 Du        
   3816 ****       122.5000 251.0000 359.0000 Du        
   3817 ****       122.5000 251.0000 359.2500 Du        
   3818 ****       122.5000 251.0000 359.5000 Du        
   3819 ****       122.5000 251.0000 359.7500 Du        
   3820 ****       122.5000 251.2500 358.0000 Du        
   3821 ****       122.5000 251.2500 358.2500 Du        
   3822 ****       122.5000 251.2500 358.5000 Du        
   3823 ****       122.5000 251.2500 358.7500 Du        
   3824 ****       122.5000 251.2500 359.0000 Du        
   3825 ****       122.5000 251.2500 359.2500 Du        
   3826 ****       122.5000 251.2500 359.5000 Du        
   3827 ****       122.5000 251.2500 359.7500 Du        
   3828 ****       122.5000 251.2500 360.0000 Du        
   3829 ****       122.5000 251.5000 358.2500 Du        
   3830 ****       122.5000 251.5000 358.5000 Du        
   3831 ****       122.5000 251.5000 358.7500 Du        
   3832 ****       122.5000 251.5000 359.0000 Du        
   3833 ****       122.5000 251.5000 359.2500 Du        
   3834 ****       122.5000 251.5000 359.5000 Du        
   3835 ****       122.5000 251.5000 359.7500 Du        
   3836 ****       122.5000 251.5000 360.0000 Du        
   3837 ****       122.5000 251.5000 360.2500 Du        
   3838 ****       122.5000 251.5000 360.5000 Du        
   3839 ****       122.5000 251.7500 358.0000 Du        
   3840 ****       122.5000 251.7500 358.2500 Du        
   3841 ****       122.5000 251.7500 358.5000 Du        
   3842 ****       122.5000 251.7500 358.7500 Du        
   3843 ****       122.5000 251.7500 359.0000 Du        
   3844 ****       122.5000 251.7500 359.2500 Du        
   3845 ****       122.5000 251.7500 359.5000 Du        
   3846 ****       122.5000 251.7500 359.7500 Du        
   3847 ****       122.5000 251.7500 360.0000 Du        
   3848 ****       122.5000 251.7500 360.2500 Du        
   3849 ****       122.5000 251.7500 360.5000 Du        
   3850 ****       122.5000 252.0000 358.2500 Du        
   3851 ****       122.5000 252.0000 358.5000 Du        
   3852 ****       122.5000 252.0000 358.7500 Du        
   3853 ****       122.5000 252.0000 359.0000 Du        
   3854 ****       122.5000 252.0000 359.2500 Du        
   3855 ****       122.5000 252.0000 359.5000 Du        
   3856 ****       122.5000 252.0000 359.7500 Du        
   3857 ****       122.5000 252.0000 360.0000 Du        
   3858 ****       122.5000 252.0000 360.2500 Du        
   3859 ****       122.5000 252.0000 360.5000 Du        
   3860 ****       122.5000 252.2500 358.5000 Du        
   3861 ****       122.5000 252.2500 358.7500 Du        
   3862 ****       122.5000 252.2500 359.0000 Du        
   3863 ****       122.5000 252.2500 359.2500 Du        
   3864 ****       122.5000 252.2500 359.5000 Du        
   3865 ****       122.5000 252.2500 359.7500 Du        
   3866 ****       122.5000 252.2500 360.0000 Du        
   3867 ****       122.5000 252.2500 360.2500 Du        
   3868 ****       122.5000 252.2500 360.5000 Du        
   3869 ****       122.5000 252.5000 358.5000 Du        
   3870 ****       122.5000 252.5000 358.7500 Du        
   3871 ****       122.5000 252.5000 359.0000 Du        
   3872 ****       122.5000 252.5000 359.2500 Du        
   3873 ****       122.5000 252.5000 359.5000 Du        
   3874 ****       122.5000 252.5000 359.7500 Du        
   3875 ****       122.5000 252.5000 360.0000 Du        
   3876 ****       122.5000 252.5000 360.2500 Du        
   3877 ****       122.5000 252.5000 360.5000 Du        
   3878 ****       122.5000 252.7500 358.7500 Du        
   3879 ****       122.5000 252.7500 359.0000 Du        
   3880 ****       122.5000 252.7500 359.2500 Du        
   3881 ****       122.5000 252.7500 359.5000 Du        
   3882 ****       122.5000 252.7500 359.7500 Du        
   3883 ****       122.5000 252.7500 360.0000 Du        
   3884 ****       122.5000 252.7500 360.2500 Du        
   3885 ****       122.5000 252.7500 360.5000 Du        
   3886 ****       122.5000 253.0000 359.0000 Du        
   3887 ****       122.5000 253.0000 359.2500 Du        
   3888 ****       122.5000 253.0000 359.5000 Du        
   3889 ****       122.5000 253.0000 359.7500 Du        
   3890 ****       122.5000 253.0000 360.0000 Du        
   3891 ****       122.5000 253.0000 360.2500 Du        
   3892 ****       122.5000 253.0000 360.5000 Du        
   3893 ****       122.5000 253.2500 359.2500 Du        
   3894 ****       122.5000 253.2500 359.5000 Du        
   3895 ****       122.5000 253.2500 359.7500 Du        
   3896 ****       122.5000 253.2500 360.0000 Du        
   3897 ****       122.5000 253.2500 360.2500 Du        
   3898 ****       122.5000 253.5000 359.5000 Du        
   3899 ****       122.5000 253.5000 359.7500 Du        
   3900 ****       122.5000 253.5000 360.0000 Du        
   3901 ****       122.5000 253.5000 360.2500 Du        
   3902 ****       122.5000 253.7500 359.7500 Du        
   3903 ****       122.5000 253.7500 360.0000 Du        
   3904 ****       122.7500 243.7500 356.0000 Du        
   3905 ****       122.7500 243.7500 356.2500 Du        
   3906 ****       122.7500 243.7500 356.5000 Du        
   3907 ****       122.7500 243.7500 356.7500 Du        
   3908 ****       122.7500 243.7500 357.2500 Du        
   3909 ****       122.7500 243.7500 357.5000 Du        
   3910 ****       122.7500 243.7500 357.7500 Du        
   3911 ****       122.7500 243.7500 358.0000 Du        
   3912 ****       122.7500 243.7500 358.2500 Du        
   3913 ****       122.7500 244.0000 355.2500 Du        
   3914 ****       122.7500 244.0000 355.5000 Du        
   3915 ****       122.7500 244.0000 355.7500 Du        
   3916 ****       122.7500 244.0000 356.0000 Du        
   3917 ****       122.7500 244.0000 356.2500 Du        
   3918 ****       122.7500 244.0000 356.5000 Du        
   3919 ****       122.7500 244.0000 356.7500 Du        
   3920 ****       122.7500 244.0000 357.0000 Du        
   3921 ****       122.7500 244.0000 357.2500 Du        
   3922 ****       122.7500 244.0000 357.5000 Du        
   3923 ****       122.7500 244.0000 357.7500 Du        
   3924 ****       122.7500 244.0000 358.0000 Du        
   3925 ****       122.7500 244.0000 358.2500 Du        
   3926 ****       122.7500 244.0000 358.5000 Du        
   3927 ****       122.7500 244.0000 358.7500 Du        
   3928 ****       122.7500 244.2500 355.2500 Du        
   3929 ****       122.7500 244.2500 355.5000 Du        
   3930 ****       122.7500 244.2500 355.7500 Du        
   3931 ****       122.7500 244.2500 356.0000 Du        
   3932 ****       122.7500 244.2500 356.2500 Du        
   3933 ****       122.7500 244.2500 356.5000 Du        
   3934 ****       122.7500 244.2500 356.7500 Du        
   3935 ****       122.7500 244.2500 357.0000 Du        
   3936 ****       122.7500 244.2500 357.2500 Du        
   3937 ****       122.7500 244.2500 357.5000 Du        
   3938 ****       122.7500 244.2500 357.7500 Du        
   3939 ****       122.7500 244.2500 358.0000 Du        
   3940 ****       122.7500 244.2500 358.2500 Du        
   3941 ****       122.7500 244.2500 358.5000 Du        
   3942 ****       122.7500 244.2500 358.7500 Du        
   3943 ****       122.7500 244.5000 355.0000 Du        
   3944 ****       122.7500 244.5000 355.2500 Du        
   3945 ****       122.7500 244.5000 355.5000 Du        
   3946 ****       122.7500 244.5000 355.7500 Du        
   3947 ****       122.7500 244.5000 356.0000 Du        
   3948 ****       122.7500 244.5000 356.2500 Du        
   3949 ****       122.7500 244.5000 356.5000 Du        
   3950 ****       122.7500 244.5000 356.7500 Du        
   3951 ****       122.7500 244.5000 357.0000 Du        
   3952 ****       122.7500 244.5000 357.2500 Du        
   3953 ****       122.7500 244.5000 357.5000 Du        
   3954 ****       122.7500 244.5000 357.7500 Du        
   3955 ****       122.7500 244.5000 358.0000 Du        
   3956 ****       122.7500 244.5000 358.2500 Du        
   3957 ****       122.7500 244.5000 358.5000 Du        
   3958 ****       122.7500 244.5000 358.7500 Du        
   3959 ****       122.7500 244.7500 355.0000 Du        
   3960 ****       122.7500 244.7500 355.2500 Du        
   3961 ****       122.7500 244.7500 355.5000 Du        
   3962 ****       122.7500 244.7500 355.7500 Du        
   3963 ****       122.7500 244.7500 356.0000 Du        
   3964 ****       122.7500 244.7500 356.2500 Du        
   3965 ****       122.7500 244.7500 356.5000 Du        
   3966 ****       122.7500 244.7500 356.7500 Du        
   3967 ****       122.7500 244.7500 357.0000 Du        
   3968 ****       122.7500 244.7500 357.2500 Du        
   3969 ****       122.7500 244.7500 357.5000 Du        
   3970 ****       122.7500 244.7500 357.7500 Du        
   3971 ****       122.7500 244.7500 358.0000 Du        
   3972 ****       122.7500 244.7500 358.2500 Du        
   3973 ****       122.7500 244.7500 358.5000 Du        
   3974 ****       122.7500 244.7500 358.7500 Du        
   3975 ****       122.7500 245.0000 355.0000 Du        
   3976 ****       122.7500 245.0000 355.2500 Du        
   3977 ****       122.7500 245.0000 355.5000 Du        
   3978 ****       122.7500 245.0000 355.7500 Du        
   3979 ****       122.7500 245.0000 356.0000 Du        
   3980 ****       122.7500 245.0000 356.2500 Du        
   3981 ****       122.7500 245.0000 356.5000 Du        
   3982 ****       122.7500 245.0000 356.7500 Du        
   3983 ****       122.7500 245.0000 357.0000 Du        
   3984 ****       122.7500 245.0000 357.2500 Du        
   3985 ****       122.7500 245.0000 357.5000 Du        
   3986 ****       122.7500 245.0000 357.7500 Du        
   3987 ****       122.7500 245.0000 358.0000 Du        
   3988 ****       122.7500 245.0000 358.2500 Du        
   3989 ****       122.7500 245.0000 358.5000 Du        
   3990 ****       122.7500 245.2500 355.2500 Du        
   3991 ****       122.7500 245.2500 355.5000 Du        
   3992 ****       122.7500 245.2500 355.7500 Du        
   3993 ****       122.7500 245.2500 356.0000 Du        
   3994 ****       122.7500 245.2500 356.2500 Du        
   3995 ****       122.7500 245.2500 356.5000 Du        
   3996 ****       122.7500 245.2500 356.7500 Du        
   3997 ****       122.7500 245.2500 357.0000 Du        
   3998 ****       122.7500 245.2500 357.2500 Du        
   3999 ****       122.7500 245.2500 357.5000 Du        
   4000 ****       122.7500 245.2500 357.7500 Du        
   4001 ****       122.7500 245.2500 358.0000 Du        
   4002 ****       122.7500 245.2500 358.2500 Du        
   4003 ****       122.7500 245.2500 358.5000 Du        
   4004 ****       122.7500 245.5000 357.0000 Du        
   4005 ****       122.7500 245.5000 357.2500 Du        
   4006 ****       122.7500 245.5000 357.5000 Du        
   4007 ****       122.7500 245.5000 357.7500 Du        
   4008 ****       122.7500 245.5000 358.0000 Du        
   4009 ****       122.7500 245.5000 358.2500 Du        
   4010 ****       122.7500 245.7500 357.7500 Du        
   4011 ****       122.7500 245.7500 358.0000 Du        
   4012 ****       122.7500 245.7500 358.2500 Du        
   4013 ****       122.7500 246.0000 358.0000 Du        
   4014 ****       122.7500 250.5000 359.0000 Du        
   4015 ****       122.7500 250.5000 359.2500 Du        
   4016 ****       122.7500 250.5000 359.5000 Du        
   4017 ****       122.7500 250.7500 359.0000 Du        
   4018 ****       122.7500 250.7500 359.2500 Du        
   4019 ****       122.7500 250.7500 359.5000 Du        
   4020 ****       122.7500 250.7500 359.7500 Du        
   4021 ****       122.7500 250.7500 360.0000 Du        
   4022 ****       122.7500 251.0000 358.2500 Du        
   4023 ****       122.7500 251.0000 358.5000 Du        
   4024 ****       122.7500 251.0000 358.7500 Du        
   4025 ****       122.7500 251.0000 359.0000 Du        
   4026 ****       122.7500 251.0000 359.2500 Du        
   4027 ****       122.7500 251.0000 359.5000 Du        
   4028 ****       122.7500 251.0000 359.7500 Du        
   4029 ****       122.7500 251.0000 360.0000 Du        
   4030 ****       122.7500 251.0000 360.2500 Du        
   4031 ****       122.7500 251.2500 358.2500 Du        
   4032 ****       122.7500 251.2500 358.5000 Du        
   4033 ****       122.7500 251.2500 358.7500 Du        
   4034 ****       122.7500 251.2500 359.0000 Du        
   4035 ****       122.7500 251.2500 359.2500 Du        
   4036 ****       122.7500 251.2500 359.5000 Du        
   4037 ****       122.7500 251.2500 359.7500 Du        
   4038 ****       122.7500 251.2500 360.0000 Du        
   4039 ****       122.7500 251.2500 360.2500 Du        
   4040 ****       122.7500 251.5000 358.0000 Du        
   4041 ****       122.7500 251.5000 358.2500 Du        
   4042 ****       122.7500 251.5000 358.5000 Du        
   4043 ****       122.7500 251.5000 358.7500 Du        
   4044 ****       122.7500 251.5000 359.0000 Du        
   4045 ****       122.7500 251.5000 359.2500 Du        
   4046 ****       122.7500 251.5000 359.5000 Du        
   4047 ****       122.7500 251.5000 359.7500 Du        
   4048 ****       122.7500 251.5000 360.0000 Du        
   4049 ****       122.7500 251.5000 360.2500 Du        
   4050 ****       122.7500 251.5000 360.5000 Du        
   4051 ****       122.7500 251.7500 358.0000 Du        
   4052 ****       122.7500 251.7500 358.2500 Du        
   4053 ****       122.7500 251.7500 358.5000 Du        
   4054 ****       122.7500 251.7500 358.7500 Du        
   4055 ****       122.7500 251.7500 359.0000 Du        
   4056 ****       122.7500 251.7500 359.2500 Du        
   4057 ****       122.7500 251.7500 359.5000 Du        
   4058 ****       122.7500 251.7500 359.7500 Du        
   4059 ****       122.7500 251.7500 360.0000 Du        
   4060 ****       122.7500 251.7500 360.2500 Du        
   4061 ****       122.7500 251.7500 360.5000 Du        
   4062 ****       122.7500 251.7500 360.7500 Du        
   4063 ****       122.7500 252.0000 358.0000 Du        
   4064 ****       122.7500 252.0000 358.2500 Du        
   4065 ****       122.7500 252.0000 358.5000 Du        
   4066 ****       122.7500 252.0000 358.7500 Du        
   4067 ****       122.7500 252.0000 359.0000 Du        
   4068 ****       122.7500 252.0000 359.2500 Du        
   4069 ****       122.7500 252.0000 359.5000 Du        
   4070 ****       122.7500 252.0000 359.7500 Du        
   4071 ****       122.7500 252.0000 360.0000 Du        
   4072 ****       122.7500 252.0000 360.2500 Du        
   4073 ****       122.7500 252.0000 360.5000 Du        
   4074 ****       122.7500 252.0000 360.7500 Du        
   4075 ****       122.7500 252.2500 358.2500 Du        
   4076 ****       122.7500 252.2500 358.5000 Du        
   4077 ****       122.7500 252.2500 358.7500 Du        
   4078 ****       122.7500 252.2500 359.0000 Du        
   4079 ****       122.7500 252.2500 359.2500 Du        
   4080 ****       122.7500 252.2500 359.5000 Du        
   4081 ****       122.7500 252.2500 359.7500 Du        
   4082 ****       122.7500 252.2500 360.0000 Du        
   4083 ****       122.7500 252.2500 360.2500 Du        
   4084 ****       122.7500 252.2500 360.5000 Du        
   4085 ****       122.7500 252.5000 358.7500 Du        
   4086 ****       122.7500 252.5000 359.0000 Du        
   4087 ****       122.7500 252.5000 359.2500 Du        
   4088 ****       122.7500 252.5000 359.5000 Du        
   4089 ****       122.7500 252.5000 359.7500 Du        
   4090 ****       122.7500 252.5000 360.0000 Du        
   4091 ****       122.7500 252.5000 360.2500 Du        
   4092 ****       122.7500 252.5000 360.5000 Du        
   4093 ****       122.7500 252.7500 359.0000 Du        
   4094 ****       122.7500 252.7500 359.2500 Du        
   4095 ****       122.7500 252.7500 359.5000 Du        
   4096 ****       122.7500 252.7500 359.7500 Du        
   4097 ****       122.7500 252.7500 360.0000 Du        
   4098 ****       122.7500 252.7500 360.2500 Du        
   4099 ****       122.7500 252.7500 360.5000 Du        
   4100 ****       122.7500 253.0000 359.2500 Du        
   4101 ****       122.7500 253.0000 359.5000 Du        
   4102 ****       122.7500 253.0000 359.7500 Du        
   4103 ****       122.7500 253.0000 360.0000 Du        
   4104 ****       122.7500 253.0000 360.2500 Du        
   4105 ****       122.7500 253.2500 359.5000 Du        
   4106 ****       122.7500 253.2500 359.7500 Du        
   4107 ****       122.7500 253.2500 360.0000 Du        
   4108 ****       122.7500 253.2500 360.2500 Du        
   4109 ****       122.7500 253.5000 359.5000 Du        
   4110 ****       122.7500 253.5000 359.7500 Du        
   4111 ****       122.7500 253.5000 360.0000 Du        
   4112 ****       122.7500 253.5000 360.2500 Du        
   4113 ****       122.7500 253.7500 359.7500 Du        
   4114 ****       122.7500 253.7500 360.0000 Du        
   4115 ****       122.7500 254.0000 360.0000 Du        
   4116 ****       123.0000 243.5000 357.5000 Du        
   4117 ****       123.0000 243.5000 357.7500 Du        
   4118 ****       123.0000 243.5000 358.0000 Du        
   4119 ****       123.0000 243.5000 358.2500 Du        
   4120 ****       123.0000 243.7500 355.7500 Du        
   4121 ****       123.0000 243.7500 356.0000 Du        
   4122 ****       123.0000 243.7500 356.2500 Du        
   4123 ****       123.0000 243.7500 356.5000 Du        
   4124 ****       123.0000 243.7500 356.7500 Du        
   4125 ****       123.0000 243.7500 357.0000 Du        
   4126 ****       123.0000 243.7500 357.2500 Du        
   4127 ****       123.0000 243.7500 357.5000 Du        
   4128 ****       123.0000 243.7500 357.7500 Du        
   4129 ****       123.0000 243.7500 358.0000 Du        
   4130 ****       123.0000 243.7500 358.2500 Du        
   4131 ****       123.0000 243.7500 358.5000 Du        
   4132 ****       123.0000 243.7500 358.7500 Du        
   4133 ****       123.0000 244.0000 355.5000 Du        
   4134 ****       123.0000 244.0000 355.7500 Du        
   4135 ****       123.0000 244.0000 356.0000 Du        
   4136 ****       123.0000 244.0000 356.2500 Du        
   4137 ****       123.0000 244.0000 356.5000 Du        
   4138 ****       123.0000 244.0000 356.7500 Du        
   4139 ****       123.0000 244.0000 357.0000 Du        
   4140 ****       123.0000 244.0000 357.2500 Du        
   4141 ****       123.0000 244.0000 357.5000 Du        
   4142 ****       123.0000 244.0000 357.7500 Du        
   4143 ****       123.0000 244.0000 358.0000 Du        
   4144 ****       123.0000 244.0000 358.2500 Du        
   4145 ****       123.0000 244.0000 358.5000 Du        
   4146 ****       123.0000 244.0000 358.7500 Du        
   4147 ****       123.0000 244.0000 359.0000 Du        
   4148 ****       123.0000 244.2500 355.2500 Du        
   4149 ****       123.0000 244.2500 355.5000 Du        
   4150 ****       123.0000 244.2500 355.7500 Du        
   4151 ****       123.0000 244.2500 356.0000 Du        
   4152 ****       123.0000 244.2500 356.2500 Du        
   4153 ****       123.0000 244.2500 356.5000 Du        
   4154 ****       123.0000 244.2500 356.7500 Du        
   4155 ****       123.0000 244.2500 357.0000 Du        
   4156 ****       123.0000 244.2500 357.2500 Du        
   4157 ****       123.0000 244.2500 357.5000 Du        
   4158 ****       123.0000 244.2500 357.7500 Du        
   4159 ****       123.0000 244.2500 358.0000 Du        
   4160 ****       123.0000 244.2500 358.2500 Du        
   4161 ****       123.0000 244.2500 358.5000 Du        
   4162 ****       123.0000 244.2500 358.7500 Du        
   4163 ****       123.0000 244.5000 355.0000 Du        
   4164 ****       123.0000 244.5000 355.2500 Du        
   4165 ****       123.0000 244.5000 355.5000 Du        
   4166 ****       123.0000 244.5000 355.7500 Du        
   4167 ****       123.0000 244.5000 356.0000 Du        
   4168 ****       123.0000 244.5000 356.2500 Du        
   4169 ****       123.0000 244.5000 356.5000 Du        
   4170 ****       123.0000 244.5000 356.7500 Du        
   4171 ****       123.0000 244.5000 357.0000 Du        
   4172 ****       123.0000 244.5000 357.2500 Du        
   4173 ****       123.0000 244.5000 357.5000 Du        
   4174 ****       123.0000 244.5000 357.7500 Du        
   4175 ****       123.0000 244.5000 358.0000 Du        
   4176 ****       123.0000 244.5000 358.2500 Du        
   4177 ****       123.0000 244.5000 358.5000 Du        
   4178 ****       123.0000 244.7500 355.0000 Du        
   4179 ****       123.0000 244.7500 355.2500 Du        
   4180 ****       123.0000 244.7500 355.5000 Du        
   4181 ****       123.0000 244.7500 355.7500 Du        
   4182 ****       123.0000 244.7500 356.0000 Du        
   4183 ****       123.0000 244.7500 356.2500 Du        
   4184 ****       123.0000 244.7500 356.5000 Du        
   4185 ****       123.0000 244.7500 356.7500 Du        
   4186 ****       123.0000 244.7500 357.0000 Du        
   4187 ****       123.0000 244.7500 357.2500 Du        
   4188 ****       123.0000 244.7500 357.5000 Du        
   4189 ****       123.0000 244.7500 357.7500 Du        
   4190 ****       123.0000 244.7500 358.0000 Du        
   4191 ****       123.0000 244.7500 358.2500 Du        
   4192 ****       123.0000 244.7500 358.5000 Du        
   4193 ****       123.0000 245.0000 354.7500 Du        
   4194 ****       123.0000 245.0000 355.0000 Du        
   4195 ****       123.0000 245.0000 355.2500 Du        
   4196 ****       123.0000 245.0000 355.5000 Du        
   4197 ****       123.0000 245.0000 355.7500 Du        
   4198 ****       123.0000 245.0000 356.0000 Du        
   4199 ****       123.0000 245.0000 356.2500 Du        
   4200 ****       123.0000 245.0000 356.5000 Du        
   4201 ****       123.0000 245.0000 356.7500 Du        
   4202 ****       123.0000 245.0000 357.0000 Du        
   4203 ****       123.0000 245.0000 357.2500 Du        
   4204 ****       123.0000 245.0000 357.5000 Du        
   4205 ****       123.0000 245.0000 357.7500 Du        
   4206 ****       123.0000 245.0000 358.0000 Du        
   4207 ****       123.0000 245.0000 358.2500 Du        
   4208 ****       123.0000 245.0000 358.5000 Du        
   4209 ****       123.0000 245.2500 354.7500 Du        
   4210 ****       123.0000 245.2500 355.0000 Du        
   4211 ****       123.0000 245.2500 355.2500 Du        
   4212 ****       123.0000 245.2500 355.5000 Du        
   4213 ****       123.0000 245.2500 355.7500 Du        
   4214 ****       123.0000 245.2500 356.0000 Du        
   4215 ****       123.0000 245.2500 356.2500 Du        
   4216 ****       123.0000 245.2500 356.5000 Du        
   4217 ****       123.0000 245.2500 356.7500 Du        
   4218 ****       123.0000 245.2500 357.0000 Du        
   4219 ****       123.0000 245.2500 357.2500 Du        
   4220 ****       123.0000 245.2500 357.5000 Du        
   4221 ****       123.0000 245.2500 357.7500 Du        
   4222 ****       123.0000 245.2500 358.0000 Du        
   4223 ****       123.0000 245.2500 358.2500 Du        
   4224 ****       123.0000 245.2500 358.5000 Du        
   4225 ****       123.0000 245.5000 355.0000 Du        
   4226 ****       123.0000 245.5000 355.2500 Du        
   4227 ****       123.0000 245.5000 355.7500 Du        
   4228 ****       123.0000 245.5000 356.0000 Du        
   4229 ****       123.0000 245.5000 356.2500 Du        
   4230 ****       123.0000 245.5000 356.5000 Du        
   4231 ****       123.0000 245.5000 356.7500 Du        
   4232 ****       123.0000 245.5000 357.0000 Du        
   4233 ****       123.0000 245.5000 357.2500 Du        
   4234 ****       123.0000 245.5000 357.5000 Du        
   4235 ****       123.0000 245.5000 357.7500 Du        
   4236 ****       123.0000 245.5000 358.0000 Du        
   4237 ****       123.0000 245.5000 358.2500 Du        
   4238 ****       123.0000 245.7500 357.7500 Du        
   4239 ****       123.0000 245.7500 358.0000 Du        
   4240 ****       123.0000 246.0000 357.7500 Du        
   4241 ****       123.0000 246.0000 358.0000 Du        
   4242 ****       123.0000 250.2500 359.2500 Du        
   4243 ****       123.0000 250.5000 359.5000 Du        
   4244 ****       123.0000 250.5000 359.7500 Du        
   4245 ****       123.0000 250.5000 360.0000 Du        
   4246 ****       123.0000 250.7500 359.0000 Du        
   4247 ****       123.0000 250.7500 359.2500 Du        
   4248 ****       123.0000 250.7500 359.5000 Du        
   4249 ****       123.0000 250.7500 359.7500 Du        
   4250 ****       123.0000 250.7500 360.0000 Du        
   4251 ****       123.0000 250.7500 360.2500 Du        
   4252 ****       123.0000 251.0000 359.0000 Du        
   4253 ****       123.0000 251.0000 359.2500 Du        
   4254 ****       123.0000 251.0000 359.5000 Du        
   4255 ****       123.0000 251.0000 359.7500 Du        
   4256 ****       123.0000 251.0000 360.0000 Du        
   4257 ****       123.0000 251.0000 360.2500 Du        
   4258 ****       123.0000 251.0000 360.5000 Du        
   4259 ****       123.0000 251.2500 358.7500 Du        
   4260 ****       123.0000 251.2500 359.0000 Du        
   4261 ****       123.0000 251.2500 359.2500 Du        
   4262 ****       123.0000 251.2500 359.5000 Du        
   4263 ****       123.0000 251.2500 359.7500 Du        
   4264 ****       123.0000 251.2500 360.0000 Du        
   4265 ****       123.0000 251.2500 360.2500 Du        
   4266 ****       123.0000 251.2500 360.5000 Du        
   4267 ****       123.0000 251.2500 360.7500 Du        
   4268 ****       123.0000 251.5000 358.0000 Du        
   4269 ****       123.0000 251.5000 358.2500 Du        
   4270 ****       123.0000 251.5000 359.0000 Du        
   4271 ****       123.0000 251.5000 359.2500 Du        
   4272 ****       123.0000 251.5000 359.5000 Du        
   4273 ****       123.0000 251.5000 359.7500 Du        
   4274 ****       123.0000 251.5000 360.0000 Du        
   4275 ****       123.0000 251.5000 360.2500 Du        
   4276 ****       123.0000 251.5000 360.5000 Du        
   4277 ****       123.0000 251.5000 360.7500 Du        
   4278 ****       123.0000 251.7500 357.7500 Du        
   4279 ****       123.0000 251.7500 358.0000 Du        
   4280 ****       123.0000 251.7500 358.2500 Du        
   4281 ****       123.0000 251.7500 358.5000 Du        
   4282 ****       123.0000 251.7500 358.7500 Du        
   4283 ****       123.0000 251.7500 359.0000 Du        
   4284 ****       123.0000 251.7500 359.2500 Du        
   4285 ****       123.0000 251.7500 359.5000 Du        
   4286 ****       123.0000 251.7500 359.7500 Du        
   4287 ****       123.0000 251.7500 360.0000 Du        
   4288 ****       123.0000 251.7500 360.2500 Du        
   4289 ****       123.0000 251.7500 360.5000 Du        
   4290 ****       123.0000 251.7500 360.7500 Du        
   4291 ****       123.0000 252.0000 358.0000 Du        
   4292 ****       123.0000 252.0000 358.2500 Du        
   4293 ****       123.0000 252.0000 358.5000 Du        
   4294 ****       123.0000 252.0000 358.7500 Du        
   4295 ****       123.0000 252.0000 359.0000 Du        
   4296 ****       123.0000 252.0000 359.2500 Du        
   4297 ****       123.0000 252.0000 359.5000 Du        
   4298 ****       123.0000 252.0000 359.7500 Du        
   4299 ****       123.0000 252.0000 360.0000 Du        
   4300 ****       123.0000 252.0000 360.2500 Du        
   4301 ****       123.0000 252.0000 360.5000 Du        
   4302 ****       123.0000 252.0000 360.7500 Du        
   4303 ****       123.0000 252.2500 358.2500 Du        
   4304 ****       123.0000 252.2500 358.5000 Du        
   4305 ****       123.0000 252.2500 358.7500 Du        
   4306 ****       123.0000 252.2500 359.0000 Du        
   4307 ****       123.0000 252.2500 359.2500 Du        
   4308 ****       123.0000 252.2500 359.5000 Du        
   4309 ****       123.0000 252.2500 359.7500 Du        
   4310 ****       123.0000 252.2500 360.0000 Du        
   4311 ****       123.0000 252.2500 360.2500 Du        
   4312 ****       123.0000 252.2500 360.5000 Du        
   4313 ****       123.0000 252.5000 358.7500 Du        
   4314 ****       123.0000 252.5000 359.0000 Du        
   4315 ****       123.0000 252.5000 359.2500 Du        
   4316 ****       123.0000 252.5000 359.5000 Du        
   4317 ****       123.0000 252.5000 359.7500 Du        
   4318 ****       123.0000 252.5000 360.0000 Du        
   4319 ****       123.0000 252.5000 360.2500 Du        
   4320 ****       123.0000 252.5000 360.5000 Du        
   4321 ****       123.0000 252.7500 359.0000 Du        
   4322 ****       123.0000 252.7500 359.2500 Du        
   4323 ****       123.0000 252.7500 359.5000 Du        
   4324 ****       123.0000 252.7500 359.7500 Du        
   4325 ****       123.0000 252.7500 360.0000 Du        
   4326 ****       123.0000 252.7500 360.2500 Du        
   4327 ****       123.0000 253.0000 359.2500 Du        
   4328 ****       123.0000 253.0000 359.5000 Du        
   4329 ****       123.0000 253.0000 359.7500 Du        
   4330 ****       123.0000 253.0000 360.0000 Du        
   4331 ****       123.0000 253.0000 360.2500 Du        
   4332 ****       123.0000 253.2500 359.5000 Du        
   4333 ****       123.0000 253.2500 359.7500 Du        
   4334 ****       123.0000 253.2500 360.0000 Du        
   4335 ****       123.0000 253.2500 360.2500 Du        
   4336 ****       123.0000 253.5000 359.7500 Du        
   4337 ****       123.0000 253.5000 360.0000 Du        
   4338 ****       123.0000 253.7500 359.7500 Du        
   4339 ****       123.0000 253.7500 360.0000 Du        
   4340 ****       123.0000 254.0000 360.0000 Du        
   4341 ****       123.2500 243.2500 357.7500 Du        
   4342 ****       123.2500 243.2500 358.0000 Du        
   4343 ****       123.2500 243.2500 358.2500 Du        
   4344 ****       123.2500 243.2500 358.5000 Du        
   4345 ****       123.2500 243.5000 357.0000 Du        
   4346 ****       123.2500 243.5000 357.2500 Du        
   4347 ****       123.2500 243.5000 357.5000 Du        
   4348 ****       123.2500 243.5000 357.7500 Du        
   4349 ****       123.2500 243.5000 358.0000 Du        
   4350 ****       123.2500 243.5000 358.2500 Du        
   4351 ****       123.2500 243.5000 358.5000 Du        
   4352 ****       123.2500 243.5000 358.7500 Du        
   4353 ****       123.2500 243.7500 356.0000 Du        
   4354 ****       123.2500 243.7500 356.2500 Du        
   4355 ****       123.2500 243.7500 356.5000 Du        
   4356 ****       123.2500 243.7500 356.7500 Du        
   4357 ****       123.2500 243.7500 357.0000 Du        
   4358 ****       123.2500 243.7500 357.2500 Du        
   4359 ****       123.2500 243.7500 357.5000 Du        
   4360 ****       123.2500 243.7500 357.7500 Du        
   4361 ****       123.2500 243.7500 358.0000 Du        
   4362 ****       123.2500 243.7500 358.2500 Du        
   4363 ****       123.2500 243.7500 358.5000 Du        
   4364 ****       123.2500 243.7500 358.7500 Du        
   4365 ****       123.2500 243.7500 359.0000 Du        
   4366 ****       123.2500 244.0000 355.5000 Du        
   4367 ****       123.2500 244.0000 355.7500 Du        
   4368 ****       123.2500 244.0000 356.0000 Du        
   4369 ****       123.2500 244.0000 356.2500 Du        
   4370 ****       123.2500 244.0000 356.5000 Du        
   4371 ****       123.2500 244.0000 356.7500 Du        
   4372 ****       123.2500 244.0000 357.0000 Du        
   4373 ****       123.2500 244.0000 357.2500 Du        
   4374 ****       123.2500 244.0000 357.5000 Du        
   4375 ****       123.2500 244.0000 357.7500 Du        
   4376 ****       123.2500 244.0000 358.0000 Du        
   4377 ****       123.2500 244.0000 358.2500 Du        
   4378 ****       123.2500 244.0000 358.5000 Du        
   4379 ****       123.2500 244.0000 358.7500 Du        
   4380 ****       123.2500 244.2500 355.2500 Du        
   4381 ****       123.2500 244.2500 355.5000 Du        
   4382 ****       123.2500 244.2500 355.7500 Du        
   4383 ****       123.2500 244.2500 356.0000 Du        
   4384 ****       123.2500 244.2500 356.2500 Du        
   4385 ****       123.2500 244.2500 356.5000 Du        
   4386 ****       123.2500 244.2500 356.7500 Du        
   4387 ****       123.2500 244.2500 357.0000 Du        
   4388 ****       123.2500 244.2500 357.2500 Du        
   4389 ****       123.2500 244.2500 357.5000 Du        
   4390 ****       123.2500 244.2500 357.7500 Du        
   4391 ****       123.2500 244.2500 358.0000 Du        
   4392 ****       123.2500 244.2500 358.2500 Du        
   4393 ****       123.2500 244.2500 358.5000 Du        
   4394 ****       123.2500 244.2500 358.7500 Du        
   4395 ****       123.2500 244.5000 355.2500 Du        
   4396 ****       123.2500 244.5000 355.5000 Du        
   4397 ****       123.2500 244.5000 355.7500 Du        
   4398 ****       123.2500 244.5000 356.0000 Du        
   4399 ****       123.2500 244.5000 356.2500 Du        
   4400 ****       123.2500 244.5000 356.5000 Du        
   4401 ****       123.2500 244.5000 356.7500 Du        
   4402 ****       123.2500 244.5000 357.0000 Du        
   4403 ****       123.2500 244.5000 357.2500 Du        
   4404 ****       123.2500 244.5000 357.5000 Du        
   4405 ****       123.2500 244.5000 357.7500 Du        
   4406 ****       123.2500 244.5000 358.0000 Du        
   4407 ****       123.2500 244.5000 358.2500 Du        
   4408 ****       123.2500 244.5000 358.5000 Du        
   4409 ****       123.2500 244.7500 355.0000 Du        
   4410 ****       123.2500 244.7500 355.2500 Du        
   4411 ****       123.2500 244.7500 355.5000 Du        
   4412 ****       123.2500 244.7500 355.7500 Du        
   4413 ****       123.2500 244.7500 356.0000 Du        
   4414 ****       123.2500 244.7500 356.2500 Du        
   4415 ****       123.2500 244.7500 356.5000 Du        
   4416 ****       123.2500 244.7500 356.7500 Du        
   4417 ****       123.2500 244.7500 357.0000 Du        
   4418 ****       123.2500 244.7500 357.2500 Du        
   4419 ****       123.2500 244.7500 357.5000 Du        
   4420 ****       123.2500 244.7500 357.7500 Du        
   4421 ****       123.2500 244.7500 358.0000 Du        
   4422 ****       123.2500 244.7500 358.2500 Du        
   4423 ****       123.2500 244.7500 358.5000 Du        
   4424 ****       123.2500 245.0000 354.7500 Du        
   4425 ****       123.2500 245.0000 355.0000 Du        
   4426 ****       123.2500 245.0000 355.2500 Du        
   4427 ****       123.2500 245.0000 355.5000 Du        
   4428 ****       123.2500 245.0000 355.7500 Du        
   4429 ****       123.2500 245.0000 356.0000 Du        
   4430 ****       123.2500 245.0000 356.2500 Du        
   4431 ****       123.2500 245.0000 356.5000 Du        
   4432 ****       123.2500 245.0000 356.7500 Du        
   4433 ****       123.2500 245.0000 357.0000 Du        
   4434 ****       123.2500 245.0000 357.2500 Du        
   4435 ****       123.2500 245.0000 357.5000 Du        
   4436 ****       123.2500 245.0000 357.7500 Du        
   4437 ****       123.2500 245.0000 358.0000 Du        
   4438 ****       123.2500 245.0000 358.2500 Du        
   4439 ****       123.2500 245.2500 354.7500 Du        
   4440 ****       123.2500 245.2500 355.0000 Du        
   4441 ****       123.2500 245.2500 355.2500 Du        
   4442 ****       123.2500 245.2500 355.5000 Du        
   4443 ****       123.2500 245.2500 355.7500 Du        
   4444 ****       123.2500 245.2500 356.0000 Du        
   4445 ****       123.2500 245.2500 356.2500 Du        
   4446 ****       123.2500 245.2500 356.5000 Du        
   4447 ****       123.2500 245.2500 356.7500 Du        
   4448 ****       123.2500 245.2500 357.0000 Du        
   4449 ****       123.2500 245.2500 357.2500 Du        
   4450 ****       123.2500 245.2500 357.5000 Du        
   4451 ****       123.2500 245.2500 357.7500 Du        
   4452 ****       123.2500 245.2500 358.0000 Du        
   4453 ****       123.2500 245.2500 358.2500 Du        
   4454 ****       123.2500 245.5000 354.7500 Du        
   4455 ****       123.2500 245.5000 355.0000 Du        
   4456 ****       123.2500 245.5000 355.2500 Du        
   4457 ****       123.2500 245.5000 355.5000 Du        
   4458 ****       123.2500 245.5000 355.7500 Du        
   4459 ****       123.2500 245.5000 356.0000 Du        
   4460 ****       123.2500 245.5000 356.2500 Du        
   4461 ****       123.2500 245.5000 356.5000 Du        
   4462 ****       123.2500 245.5000 356.7500 Du        
   4463 ****       123.2500 245.5000 357.0000 Du        
   4464 ****       123.2500 245.5000 357.2500 Du        
   4465 ****       123.2500 245.5000 357.5000 Du        
   4466 ****       123.2500 245.5000 357.7500 Du        
   4467 ****       123.2500 245.5000 358.0000 Du        
   4468 ****       123.2500 245.7500 354.7500 Du        
   4469 ****       123.2500 245.7500 355.0000 Du        
   4470 ****       123.2500 245.7500 355.2500 Du        
   4471 ****       123.2500 245.7500 355.5000 Du        
   4472 ****       123.2500 245.7500 355.7500 Du        
   4473 ****       123.2500 245.7500 356.0000 Du        
   4474 ****       123.2500 245.7500 356.7500 Du        
   4475 ****       123.2500 245.7500 357.0000 Du        
   4476 ****       123.2500 245.7500 357.2500 Du        
   4477 ****       123.2500 245.7500 357.5000 Du        
   4478 ****       123.2500 245.7500 357.7500 Du        
   4479 ****       123.2500 245.7500 358.0000 Du        
   4480 ****       123.2500 246.0000 357.7500 Du        
   4481 ****       123.2500 250.2500 359.5000 Du        
   4482 ****       123.2500 250.2500 359.7500 Du        
   4483 ****       123.2500 250.5000 359.5000 Du        
   4484 ****       123.2500 250.5000 359.7500 Du        
   4485 ****       123.2500 250.5000 360.0000 Du        
   4486 ****       123.2500 250.7500 359.5000 Du        
   4487 ****       123.2500 250.7500 359.7500 Du        
   4488 ****       123.2500 250.7500 360.0000 Du        
   4489 ****       123.2500 250.7500 360.2500 Du        
   4490 ****       123.2500 250.7500 360.5000 Du        
   4491 ****       123.2500 251.0000 359.0000 Du        
   4492 ****       123.2500 251.0000 359.2500 Du        
   4493 ****       123.2500 251.0000 359.5000 Du        
   4494 ****       123.2500 251.0000 359.7500 Du        
   4495 ****       123.2500 251.0000 360.0000 Du        
   4496 ****       123.2500 251.0000 360.2500 Du        
   4497 ****       123.2500 251.0000 360.5000 Du        
   4498 ****       123.2500 251.0000 360.7500 Du        
   4499 ****       123.2500 251.2500 359.0000 Du        
   4500 ****       123.2500 251.2500 359.2500 Du        
   4501 ****       123.2500 251.2500 359.5000 Du        
   4502 ****       123.2500 251.2500 359.7500 Du        
   4503 ****       123.2500 251.2500 360.0000 Du        
   4504 ****       123.2500 251.2500 360.2500 Du        
   4505 ****       123.2500 251.2500 360.5000 Du        
   4506 ****       123.2500 251.2500 360.7500 Du        
   4507 ****       123.2500 251.2500 361.0000 Du        
   4508 ****       123.2500 251.5000 359.0000 Du        
   4509 ****       123.2500 251.5000 359.2500 Du        
   4510 ****       123.2500 251.5000 359.5000 Du        
   4511 ****       123.2500 251.5000 359.7500 Du        
   4512 ****       123.2500 251.5000 360.0000 Du        
   4513 ****       123.2500 251.5000 360.2500 Du        
   4514 ****       123.2500 251.5000 360.5000 Du        
   4515 ****       123.2500 251.5000 360.7500 Du        
   4516 ****       123.2500 251.7500 359.0000 Du        
   4517 ****       123.2500 251.7500 359.2500 Du        
   4518 ****       123.2500 251.7500 359.5000 Du        
   4519 ****       123.2500 251.7500 359.7500 Du        
   4520 ****       123.2500 251.7500 360.0000 Du        
   4521 ****       123.2500 251.7500 360.2500 Du        
   4522 ****       123.2500 251.7500 360.5000 Du        
   4523 ****       123.2500 251.7500 360.7500 Du        
   4524 ****       123.2500 252.0000 358.7500 Du        
   4525 ****       123.2500 252.0000 359.0000 Du        
   4526 ****       123.2500 252.0000 359.2500 Du        
   4527 ****       123.2500 252.0000 359.5000 Du        
   4528 ****       123.2500 252.0000 359.7500 Du        
   4529 ****       123.2500 252.0000 360.0000 Du        
   4530 ****       123.2500 252.0000 360.2500 Du        
   4531 ****       123.2500 252.0000 360.5000 Du        
   4532 ****       123.2500 252.0000 360.7500 Du        
   4533 ****       123.2500 252.2500 358.7500 Du        
   4534 ****       123.2500 252.2500 359.0000 Du        
   4535 ****       123.2500 252.2500 359.2500 Du        
   4536 ****       123.2500 252.2500 359.5000 Du        
   4537 ****       123.2500 252.2500 359.7500 Du        
   4538 ****       123.2500 252.2500 360.0000 Du        
   4539 ****       123.2500 252.2500 360.2500 Du        
   4540 ****       123.2500 252.2500 360.5000 Du        
   4541 ****       123.2500 252.5000 358.7500 Du        
   4542 ****       123.2500 252.5000 359.0000 Du        
   4543 ****       123.2500 252.5000 359.2500 Du        
   4544 ****       123.2500 252.5000 359.5000 Du        
   4545 ****       123.2500 252.5000 359.7500 Du        
   4546 ****       123.2500 252.5000 360.0000 Du        
   4547 ****       123.2500 252.5000 360.2500 Du        
   4548 ****       123.2500 252.7500 359.2500 Du        
   4549 ****       123.2500 252.7500 359.5000 Du        
   4550 ****       123.2500 252.7500 359.7500 Du        
   4551 ****       123.2500 252.7500 360.0000 Du        
   4552 ****       123.2500 252.7500 360.2500 Du        
   4553 ****       123.2500 253.0000 359.2500 Du        
   4554 ****       123.2500 253.0000 359.5000 Du        
   4555 ****       123.2500 253.0000 359.7500 Du        
   4556 ****       123.2500 253.0000 360.0000 Du        
   4557 ****       123.2500 253.2500 359.5000 Du        
   4558 ****       123.2500 253.2500 359.7500 Du        
   4559 ****       123.2500 253.2500 360.0000 Du        
   4560 ****       123.2500 253.5000 359.7500 Du        
   4561 ****       123.2500 253.5000 360.0000 Du        
   4562 ****       123.2500 253.7500 359.7500 Du        
   4563 ****       123.2500 253.7500 360.0000 Du        
   4564 ****       123.5000 243.2500 358.2500 Du        
   4565 ****       123.5000 243.2500 358.5000 Du        
   4566 ****       123.5000 243.2500 358.7500 Du        
   4567 ****       123.5000 243.2500 359.0000 Du        
   4568 ****       123.5000 243.5000 357.2500 Du        
   4569 ****       123.5000 243.5000 357.5000 Du        
   4570 ****       123.5000 243.5000 357.7500 Du        
   4571 ****       123.5000 243.5000 358.0000 Du        
   4572 ****       123.5000 243.5000 358.2500 Du        
   4573 ****       123.5000 243.5000 358.5000 Du        
   4574 ****       123.5000 243.5000 358.7500 Du        
   4575 ****       123.5000 243.5000 359.0000 Du        
   4576 ****       123.5000 243.7500 356.0000 Du        
   4577 ****       123.5000 243.7500 356.2500 Du        
   4578 ****       123.5000 243.7500 356.5000 Du        
   4579 ****       123.5000 243.7500 356.7500 Du        
   4580 ****       123.5000 243.7500 357.0000 Du        
   4581 ****       123.5000 243.7500 357.2500 Du        
   4582 ****       123.5000 243.7500 357.5000 Du        
   4583 ****       123.5000 243.7500 357.7500 Du        
   4584 ****       123.5000 243.7500 358.0000 Du        
   4585 ****       123.5000 243.7500 358.2500 Du        
   4586 ****       123.5000 243.7500 358.5000 Du        
   4587 ****       123.5000 243.7500 358.7500 Du        
   4588 ****       123.5000 243.7500 359.0000 Du        
   4589 ****       123.5000 244.0000 355.7500 Du        
   4590 ****       123.5000 244.0000 356.0000 Du        
   4591 ****       123.5000 244.0000 356.2500 Du        
   4592 ****       123.5000 244.0000 356.5000 Du        
   4593 ****       123.5000 244.0000 356.7500 Du        
   4594 ****       123.5000 244.0000 357.0000 Du        
   4595 ****       123.5000 244.0000 357.2500 Du        
   4596 ****       123.5000 244.0000 357.5000 Du        
   4597 ****       123.5000 244.0000 357.7500 Du        
   4598 ****       123.5000 244.0000 358.0000 Du        
   4599 ****       123.5000 244.0000 358.2500 Du        
   4600 ****       123.5000 244.0000 358.5000 Du        
   4601 ****       123.5000 244.0000 358.7500 Du        
   4602 ****       123.5000 244.2500 355.5000 Du        
   4603 ****       123.5000 244.2500 355.7500 Du        
   4604 ****       123.5000 244.2500 356.0000 Du        
   4605 ****       123.5000 244.2500 356.2500 Du        
   4606 ****       123.5000 244.2500 356.5000 Du        
   4607 ****       123.5000 244.2500 356.7500 Du        
   4608 ****       123.5000 244.2500 357.0000 Du        
   4609 ****       123.5000 244.2500 357.2500 Du        
   4610 ****       123.5000 244.2500 357.5000 Du        
   4611 ****       123.5000 244.2500 357.7500 Du        
   4612 ****       123.5000 244.2500 358.0000 Du        
   4613 ****       123.5000 244.2500 358.2500 Du        
   4614 ****       123.5000 244.2500 358.5000 Du        
   4615 ****       123.5000 244.2500 358.7500 Du        
   4616 ****       123.5000 244.5000 355.2500 Du        
   4617 ****       123.5000 244.5000 355.5000 Du        
   4618 ****       123.5000 244.5000 355.7500 Du        
   4619 ****       123.5000 244.5000 356.0000 Du        
   4620 ****       123.5000 244.5000 356.2500 Du        
   4621 ****       123.5000 244.5000 356.5000 Du        
   4622 ****       123.5000 244.5000 356.7500 Du        
   4623 ****       123.5000 244.5000 357.0000 Du        
   4624 ****       123.5000 244.5000 357.2500 Du        
   4625 ****       123.5000 244.5000 357.5000 Du        
   4626 ****       123.5000 244.5000 357.7500 Du        
   4627 ****       123.5000 244.5000 358.0000 Du        
   4628 ****       123.5000 244.5000 358.2500 Du        
   4629 ****       123.5000 244.5000 358.5000 Du        
   4630 ****       123.5000 244.7500 355.0000 Du        
   4631 ****       123.5000 244.7500 355.2500 Du        
   4632 ****       123.5000 244.7500 355.5000 Du        
   4633 ****       123.5000 244.7500 355.7500 Du        
   4634 ****       123.5000 244.7500 356.0000 Du        
   4635 ****       123.5000 244.7500 356.2500 Du        
   4636 ****       123.5000 244.7500 356.5000 Du        
   4637 ****       123.5000 244.7500 356.7500 Du        
   4638 ****       123.5000 244.7500 357.0000 Du        
   4639 ****       123.5000 244.7500 357.2500 Du        
   4640 ****       123.5000 244.7500 357.5000 Du        
   4641 ****       123.5000 244.7500 357.7500 Du        
   4642 ****       123.5000 244.7500 358.0000 Du        
   4643 ****       123.5000 244.7500 358.2500 Du        
   4644 ****       123.5000 245.0000 355.0000 Du        
   4645 ****       123.5000 245.0000 355.2500 Du        
   4646 ****       123.5000 245.0000 355.5000 Du        
   4647 ****       123.5000 245.0000 355.7500 Du        
   4648 ****       123.5000 245.0000 356.0000 Du        
   4649 ****       123.5000 245.0000 356.2500 Du        
   4650 ****       123.5000 245.0000 356.5000 Du        
   4651 ****       123.5000 245.0000 356.7500 Du        
   4652 ****       123.5000 245.0000 357.0000 Du        
   4653 ****       123.5000 245.0000 357.2500 Du        
   4654 ****       123.5000 245.0000 357.5000 Du        
   4655 ****       123.5000 245.0000 357.7500 Du        
   4656 ****       123.5000 245.0000 358.0000 Du        
   4657 ****       123.5000 245.0000 358.2500 Du        
   4658 ****       123.5000 245.2500 354.7500 Du        
   4659 ****       123.5000 245.2500 355.0000 Du        
   4660 ****       123.5000 245.2500 355.2500 Du        
   4661 ****       123.5000 245.2500 355.5000 Du        
   4662 ****       123.5000 245.2500 355.7500 Du        
   4663 ****       123.5000 245.2500 356.0000 Du        
   4664 ****       123.5000 245.2500 356.2500 Du        
   4665 ****       123.5000 245.2500 356.5000 Du        
   4666 ****       123.5000 245.2500 356.7500 Du        
   4667 ****       123.5000 245.2500 357.0000 Du        
   4668 ****       123.5000 245.2500 357.2500 Du        
   4669 ****       123.5000 245.2500 357.5000 Du        
   4670 ****       123.5000 245.2500 357.7500 Du        
   4671 ****       123.5000 245.2500 358.0000 Du        
   4672 ****       123.5000 245.2500 358.2500 Du        
   4673 ****       123.5000 245.5000 354.5000 Du        
   4674 ****       123.5000 245.5000 354.7500 Du        
   4675 ****       123.5000 245.5000 355.0000 Du        
   4676 ****       123.5000 245.5000 355.2500 Du        
   4677 ****       123.5000 245.5000 355.5000 Du        
   4678 ****       123.5000 245.5000 355.7500 Du        
   4679 ****       123.5000 245.5000 356.0000 Du        
   4680 ****       123.5000 245.5000 356.2500 Du        
   4681 ****       123.5000 245.5000 356.5000 Du        
   4682 ****       123.5000 245.5000 356.7500 Du        
   4683 ****       123.5000 245.5000 357.0000 Du        
   4684 ****       123.5000 245.5000 357.2500 Du        
   4685 ****       123.5000 245.5000 357.5000 Du        
   4686 ****       123.5000 245.5000 357.7500 Du        
   4687 ****       123.5000 245.5000 358.0000 Du        
   4688 ****       123.5000 245.7500 354.5000 Du        
   4689 ****       123.5000 245.7500 354.7500 Du        
   4690 ****       123.5000 245.7500 355.0000 Du        
   4691 ****       123.5000 245.7500 355.2500 Du        
   4692 ****       123.5000 245.7500 355.5000 Du        
   4693 ****       123.5000 245.7500 355.7500 Du        
   4694 ****       123.5000 245.7500 356.0000 Du        
   4695 ****       123.5000 245.7500 356.2500 Du        
   4696 ****       123.5000 245.7500 356.5000 Du        
   4697 ****       123.5000 245.7500 356.7500 Du        
   4698 ****       123.5000 245.7500 357.0000 Du        
   4699 ****       123.5000 245.7500 357.2500 Du        
   4700 ****       123.5000 245.7500 357.7500 Du        
   4701 ****       123.5000 245.7500 358.0000 Du        
   4702 ****       123.5000 246.0000 354.5000 Du        
   4703 ****       123.5000 246.0000 354.7500 Du        
   4704 ****       123.5000 246.0000 355.0000 Du        
   4705 ****       123.5000 246.0000 355.2500 Du        
   4706 ****       123.5000 246.0000 356.0000 Du        
   4707 ****       123.5000 246.0000 357.0000 Du        
   4708 ****       123.5000 246.0000 357.2500 Du        
   4709 ****       123.5000 250.2500 360.0000 Du        
   4710 ****       123.5000 250.2500 360.2500 Du        
   4711 ****       123.5000 250.5000 359.5000 Du        
   4712 ****       123.5000 250.5000 359.7500 Du        
   4713 ****       123.5000 250.5000 360.0000 Du        
   4714 ****       123.5000 250.5000 360.2500 Du        
   4715 ****       123.5000 250.5000 360.5000 Du        
   4716 ****       123.5000 250.5000 360.7500 Du        
   4717 ****       123.5000 250.7500 359.5000 Du        
   4718 ****       123.5000 250.7500 359.7500 Du        
   4719 ****       123.5000 250.7500 360.0000 Du        
   4720 ****       123.5000 250.7500 360.2500 Du        
   4721 ****       123.5000 250.7500 360.5000 Du        
   4722 ****       123.5000 250.7500 360.7500 Du        
   4723 ****       123.5000 250.7500 361.0000 Du        
   4724 ****       123.5000 251.0000 359.5000 Du        
   4725 ****       123.5000 251.0000 359.7500 Du        
   4726 ****       123.5000 251.0000 360.0000 Du        
   4727 ****       123.5000 251.0000 360.2500 Du        
   4728 ****       123.5000 251.0000 360.5000 Du        
   4729 ****       123.5000 251.0000 360.7500 Du        
   4730 ****       123.5000 251.0000 361.0000 Du        
   4731 ****       123.5000 251.2500 359.7500 Du        
   4732 ****       123.5000 251.2500 360.0000 Du        
   4733 ****       123.5000 251.2500 360.2500 Du        
   4734 ****       123.5000 251.2500 360.5000 Du        
   4735 ****       123.5000 251.2500 360.7500 Du        
   4736 ****       123.5000 251.2500 361.0000 Du        
   4737 ****       123.5000 251.5000 359.5000 Du        
   4738 ****       123.5000 251.5000 359.7500 Du        
   4739 ****       123.5000 251.5000 360.0000 Du        
   4740 ****       123.5000 251.5000 360.2500 Du        
   4741 ****       123.5000 251.5000 360.5000 Du        
   4742 ****       123.5000 251.5000 360.7500 Du        
   4743 ****       123.5000 251.5000 361.0000 Du        
   4744 ****       123.5000 251.7500 359.5000 Du        
   4745 ****       123.5000 251.7500 359.7500 Du        
   4746 ****       123.5000 251.7500 360.0000 Du        
   4747 ****       123.5000 251.7500 360.2500 Du        
   4748 ****       123.5000 251.7500 360.5000 Du        
   4749 ****       123.5000 251.7500 360.7500 Du        
   4750 ****       123.5000 252.0000 359.2500 Du        
   4751 ****       123.5000 252.0000 359.5000 Du        
   4752 ****       123.5000 252.0000 359.7500 Du        
   4753 ****       123.5000 252.0000 360.0000 Du        
   4754 ****       123.5000 252.0000 360.2500 Du        
   4755 ****       123.5000 252.0000 360.5000 Du        
   4756 ****       123.5000 252.2500 359.5000 Du        
   4757 ****       123.5000 252.2500 359.7500 Du        
   4758 ****       123.5000 252.2500 360.0000 Du        
   4759 ****       123.5000 252.2500 360.2500 Du        
   4760 ****       123.5000 252.5000 359.5000 Du        
   4761 ****       123.5000 252.5000 359.7500 Du        
   4762 ****       123.5000 252.5000 360.0000 Du        
   4763 ****       123.5000 252.7500 359.2500 Du        
   4764 ****       123.5000 252.7500 359.5000 Du        
   4765 ****       123.5000 252.7500 359.7500 Du        
   4766 ****       123.5000 252.7500 360.0000 Du        
   4767 ****       123.5000 253.0000 359.5000 Du        
   4768 ****       123.5000 253.0000 359.7500 Du        
   4769 ****       123.7500 243.2500 358.7500 Du        
   4770 ****       123.7500 243.2500 359.0000 Du        
   4771 ****       123.7500 243.2500 359.2500 Du        
   4772 ****       123.7500 243.5000 358.2500 Du        
   4773 ****       123.7500 243.5000 358.5000 Du        
   4774 ****       123.7500 243.5000 358.7500 Du        
   4775 ****       123.7500 243.5000 359.0000 Du        
   4776 ****       123.7500 243.7500 356.0000 Du        
   4777 ****       123.7500 243.7500 356.2500 Du        
   4778 ****       123.7500 243.7500 356.5000 Du        
   4779 ****       123.7500 243.7500 356.7500 Du        
   4780 ****       123.7500 243.7500 357.0000 Du        
   4781 ****       123.7500 243.7500 357.2500 Du        
   4782 ****       123.7500 243.7500 357.5000 Du        
   4783 ****       123.7500 243.7500 357.7500 Du        
   4784 ****       123.7500 243.7500 358.0000 Du        
   4785 ****       123.7500 243.7500 358.2500 Du        
   4786 ****       123.7500 243.7500 358.5000 Du        
   4787 ****       123.7500 243.7500 358.7500 Du        
   4788 ****       123.7500 243.7500 359.0000 Du        
   4789 ****       123.7500 244.0000 355.7500 Du        
   4790 ****       123.7500 244.0000 356.0000 Du        
   4791 ****       123.7500 244.0000 356.2500 Du        
   4792 ****       123.7500 244.0000 356.5000 Du        
   4793 ****       123.7500 244.0000 356.7500 Du        
   4794 ****       123.7500 244.0000 357.0000 Du        
   4795 ****       123.7500 244.0000 357.2500 Du        
   4796 ****       123.7500 244.0000 357.5000 Du        
   4797 ****       123.7500 244.0000 357.7500 Du        
   4798 ****       123.7500 244.0000 358.0000 Du        
   4799 ****       123.7500 244.0000 358.2500 Du        
   4800 ****       123.7500 244.0000 358.5000 Du        
   4801 ****       123.7500 244.0000 358.7500 Du        
   4802 ****       123.7500 244.2500 355.5000 Du        
   4803 ****       123.7500 244.2500 355.7500 Du        
   4804 ****       123.7500 244.2500 356.0000 Du        
   4805 ****       123.7500 244.2500 356.2500 Du        
   4806 ****       123.7500 244.2500 356.5000 Du        
   4807 ****       123.7500 244.2500 356.7500 Du        
   4808 ****       123.7500 244.2500 357.0000 Du        
   4809 ****       123.7500 244.2500 357.2500 Du        
   4810 ****       123.7500 244.2500 357.5000 Du        
   4811 ****       123.7500 244.2500 357.7500 Du        
   4812 ****       123.7500 244.2500 358.0000 Du        
   4813 ****       123.7500 244.2500 358.2500 Du        
   4814 ****       123.7500 244.2500 358.5000 Du        
   4815 ****       123.7500 244.5000 355.2500 Du        
   4816 ****       123.7500 244.5000 355.5000 Du        
   4817 ****       123.7500 244.5000 355.7500 Du        
   4818 ****       123.7500 244.5000 356.0000 Du        
   4819 ****       123.7500 244.5000 356.2500 Du        
   4820 ****       123.7500 244.5000 356.5000 Du        
   4821 ****       123.7500 244.5000 356.7500 Du        
   4822 ****       123.7500 244.5000 357.0000 Du        
   4823 ****       123.7500 244.5000 357.2500 Du        
   4824 ****       123.7500 244.5000 357.5000 Du        
   4825 ****       123.7500 244.5000 357.7500 Du        
   4826 ****       123.7500 244.5000 358.0000 Du        
   4827 ****       123.7500 244.5000 358.2500 Du        
   4828 ****       123.7500 244.5000 358.5000 Du        
   4829 ****       123.7500 244.7500 355.0000 Du        
   4830 ****       123.7500 244.7500 355.2500 Du        
   4831 ****       123.7500 244.7500 355.5000 Du        
   4832 ****       123.7500 244.7500 355.7500 Du        
   4833 ****       123.7500 244.7500 356.0000 Du        
   4834 ****       123.7500 244.7500 356.2500 Du        
   4835 ****       123.7500 244.7500 356.5000 Du        
   4836 ****       123.7500 244.7500 356.7500 Du        
   4837 ****       123.7500 244.7500 357.0000 Du        
   4838 ****       123.7500 244.7500 357.2500 Du        
   4839 ****       123.7500 244.7500 357.5000 Du        
   4840 ****       123.7500 244.7500 357.7500 Du        
   4841 ****       123.7500 244.7500 358.0000 Du        
   4842 ****       123.7500 244.7500 358.2500 Du        
   4843 ****       123.7500 245.0000 355.0000 Du        
   4844 ****       123.7500 245.0000 355.2500 Du        
   4845 ****       123.7500 245.0000 355.5000 Du        
   4846 ****       123.7500 245.0000 355.7500 Du        
   4847 ****       123.7500 245.0000 356.0000 Du        
   4848 ****       123.7500 245.0000 356.2500 Du        
   4849 ****       123.7500 245.0000 356.5000 Du        
   4850 ****       123.7500 245.0000 356.7500 Du        
   4851 ****       123.7500 245.0000 357.0000 Du        
   4852 ****       123.7500 245.0000 357.2500 Du        
   4853 ****       123.7500 245.0000 357.5000 Du        
   4854 ****       123.7500 245.0000 357.7500 Du        
   4855 ****       123.7500 245.0000 358.0000 Du        
   4856 ****       123.7500 245.0000 358.2500 Du        
   4857 ****       123.7500 245.2500 354.7500 Du        
   4858 ****       123.7500 245.2500 355.0000 Du        
   4859 ****       123.7500 245.2500 355.2500 Du        
   4860 ****       123.7500 245.2500 355.5000 Du        
   4861 ****       123.7500 245.2500 355.7500 Du        
   4862 ****       123.7500 245.2500 356.0000 Du        
   4863 ****       123.7500 245.2500 356.2500 Du        
   4864 ****       123.7500 245.2500 356.5000 Du        
   4865 ****       123.7500 245.2500 356.7500 Du        
   4866 ****       123.7500 245.2500 357.0000 Du        
   4867 ****       123.7500 245.2500 357.2500 Du        
   4868 ****       123.7500 245.2500 357.5000 Du        
   4869 ****       123.7500 245.2500 357.7500 Du        
   4870 ****       123.7500 245.2500 358.0000 Du        
   4871 ****       123.7500 245.2500 358.2500 Du        
   4872 ****       123.7500 245.5000 354.5000 Du        
   4873 ****       123.7500 245.5000 354.7500 Du        
   4874 ****       123.7500 245.5000 355.0000 Du        
   4875 ****       123.7500 245.5000 355.2500 Du        
   4876 ****       123.7500 245.5000 355.5000 Du        
   4877 ****       123.7500 245.5000 355.7500 Du        
   4878 ****       123.7500 245.5000 356.0000 Du        
   4879 ****       123.7500 245.5000 356.2500 Du        
   4880 ****       123.7500 245.5000 356.5000 Du        
   4881 ****       123.7500 245.5000 356.7500 Du        
   4882 ****       123.7500 245.5000 357.0000 Du        
   4883 ****       123.7500 245.5000 357.2500 Du        
   4884 ****       123.7500 245.5000 357.5000 Du        
   4885 ****       123.7500 245.5000 357.7500 Du        
   4886 ****       123.7500 245.5000 358.0000 Du        
   4887 ****       123.7500 245.7500 354.5000 Du        
   4888 ****       123.7500 245.7500 354.7500 Du        
   4889 ****       123.7500 245.7500 355.0000 Du        
   4890 ****       123.7500 245.7500 355.2500 Du        
   4891 ****       123.7500 245.7500 355.5000 Du        
   4892 ****       123.7500 245.7500 355.7500 Du        
   4893 ****       123.7500 245.7500 356.0000 Du        
   4894 ****       123.7500 245.7500 356.2500 Du        
   4895 ****       123.7500 245.7500 356.5000 Du        
   4896 ****       123.7500 245.7500 356.7500 Du        
   4897 ****       123.7500 245.7500 357.0000 Du        
   4898 ****       123.7500 245.7500 357.2500 Du        
   4899 ****       123.7500 245.7500 357.5000 Du        
   4900 ****       123.7500 245.7500 357.7500 Du        
   4901 ****       123.7500 245.7500 358.0000 Du        
   4902 ****       123.7500 246.0000 354.5000 Du        
   4903 ****       123.7500 246.0000 354.7500 Du        
   4904 ****       123.7500 246.0000 355.0000 Du        
   4905 ****       123.7500 246.0000 355.2500 Du        
   4906 ****       123.7500 246.0000 355.5000 Du        
   4907 ****       123.7500 246.0000 355.7500 Du        
   4908 ****       123.7500 246.0000 356.0000 Du        
   4909 ****       123.7500 246.0000 356.2500 Du        
   4910 ****       123.7500 246.0000 356.5000 Du        
   4911 ****       123.7500 246.0000 356.7500 Du        
   4912 ****       123.7500 246.0000 357.0000 Du        
   4913 ****       123.7500 246.0000 357.2500 Du        
   4914 ****       123.7500 246.0000 357.7500 Du        
   4915 ****       123.7500 246.0000 358.0000 Du        
   4916 ****       123.7500 246.2500 354.5000 Du        
   4917 ****       123.7500 246.2500 354.7500 Du        
   4918 ****       123.7500 246.2500 355.0000 Du        
   4919 ****       123.7500 246.2500 355.2500 Du        
   4920 ****       123.7500 246.2500 355.5000 Du        
   4921 ****       123.7500 246.2500 355.7500 Du        
   4922 ****       123.7500 246.2500 356.0000 Du        
   4923 ****       123.7500 249.7500 360.0000 Du        
   4924 ****       123.7500 250.0000 360.0000 Du        
   4925 ****       123.7500 250.0000 360.2500 Du        
   4926 ****       123.7500 250.0000 360.5000 Du        
   4927 ****       123.7500 250.2500 359.7500 Du        
   4928 ****       123.7500 250.2500 360.0000 Du        
   4929 ****       123.7500 250.2500 360.2500 Du        
   4930 ****       123.7500 250.2500 360.5000 Du        
   4931 ****       123.7500 250.2500 360.7500 Du        
   4932 ****       123.7500 250.5000 359.5000 Du        
   4933 ****       123.7500 250.5000 359.7500 Du        
   4934 ****       123.7500 250.5000 360.0000 Du        
   4935 ****       123.7500 250.5000 360.2500 Du        
   4936 ****       123.7500 250.5000 360.5000 Du        
   4937 ****       123.7500 250.5000 360.7500 Du        
   4938 ****       123.7500 250.5000 361.0000 Du        
   4939 ****       123.7500 250.7500 359.7500 Du        
   4940 ****       123.7500 250.7500 360.0000 Du        
   4941 ****       123.7500 250.7500 360.2500 Du        
   4942 ****       123.7500 250.7500 360.5000 Du        
   4943 ****       123.7500 250.7500 360.7500 Du        
   4944 ****       123.7500 250.7500 361.0000 Du        
   4945 ****       123.7500 250.7500 361.2500 Du        
   4946 ****       123.7500 251.0000 359.5000 Du        
   4947 ****       123.7500 251.0000 359.7500 Du        
   4948 ****       123.7500 251.0000 360.0000 Du        
   4949 ****       123.7500 251.0000 360.2500 Du        
   4950 ****       123.7500 251.0000 360.5000 Du        
   4951 ****       123.7500 251.0000 360.7500 Du        
   4952 ****       123.7500 251.0000 361.0000 Du        
   4953 ****       123.7500 251.0000 361.2500 Du        
   4954 ****       123.7500 251.2500 359.7500 Du        
   4955 ****       123.7500 251.2500 360.0000 Du        
   4956 ****       123.7500 251.2500 360.2500 Du        
   4957 ****       123.7500 251.2500 360.5000 Du        
   4958 ****       123.7500 251.2500 360.7500 Du        
   4959 ****       123.7500 251.2500 361.0000 Du        
   4960 ****       123.7500 251.2500 361.2500 Du        
   4961 ****       123.7500 251.5000 359.5000 Du        
   4962 ****       123.7500 251.5000 359.7500 Du        
   4963 ****       123.7500 251.5000 360.0000 Du        
   4964 ****       123.7500 251.5000 360.2500 Du        
   4965 ****       123.7500 251.5000 360.5000 Du        
   4966 ****       123.7500 251.5000 360.7500 Du        
   4967 ****       123.7500 251.7500 359.5000 Du        
   4968 ****       123.7500 251.7500 359.7500 Du        
   4969 ****       123.7500 251.7500 360.0000 Du        
   4970 ****       123.7500 251.7500 360.2500 Du        
   4971 ****       123.7500 251.7500 360.5000 Du        
   4972 ****       123.7500 252.0000 359.5000 Du        
   4973 ****       123.7500 252.0000 359.7500 Du        
   4974 ****       123.7500 252.0000 360.0000 Du        
   4975 ****       123.7500 252.0000 360.2500 Du        
   4976 ****       123.7500 252.2500 359.5000 Du        
   4977 ****       123.7500 256.5000 361.2500 Du        
   4978 ****       123.7500 256.7500 361.2500 Du        
   4979 ****       124.0000 243.2500 359.2500 Du        
   4980 ****       124.0000 243.5000 359.0000 Du        
   4981 ****       124.0000 243.7500 356.2500 Du        
   4982 ****       124.0000 243.7500 358.2500 Du        
   4983 ****       124.0000 243.7500 358.5000 Du        
   4984 ****       124.0000 243.7500 358.7500 Du        
   4985 ****       124.0000 243.7500 359.0000 Du        
   4986 ****       124.0000 244.0000 355.7500 Du        
   4987 ****       124.0000 244.0000 356.0000 Du        
   4988 ****       124.0000 244.0000 356.2500 Du        
   4989 ****       124.0000 244.0000 356.5000 Du        
   4990 ****       124.0000 244.0000 356.7500 Du        
   4991 ****       124.0000 244.0000 357.0000 Du        
   4992 ****       124.0000 244.0000 357.2500 Du        
   4993 ****       124.0000 244.0000 357.5000 Du        
   4994 ****       124.0000 244.0000 357.7500 Du        
   4995 ****       124.0000 244.0000 358.0000 Du        
   4996 ****       124.0000 244.0000 358.2500 Du        
   4997 ****       124.0000 244.0000 358.5000 Du        
   4998 ****       124.0000 244.0000 358.7500 Du        
   4999 ****       124.0000 244.2500 355.7500 Du        
   5000 ****       124.0000 244.2500 356.0000 Du        
   5001 ****       124.0000 244.2500 356.2500 Du        
   5002 ****       124.0000 244.2500 356.5000 Du        
   5003 ****       124.0000 244.2500 356.7500 Du        
   5004 ****       124.0000 244.2500 357.0000 Du        
   5005 ****       124.0000 244.2500 357.2500 Du        
   5006 ****       124.0000 244.2500 357.5000 Du        
   5007 ****       124.0000 244.2500 357.7500 Du        
   5008 ****       124.0000 244.2500 358.0000 Du        
   5009 ****       124.0000 244.2500 358.2500 Du        
   5010 ****       124.0000 244.2500 358.5000 Du        
   5011 ****       124.0000 244.5000 355.5000 Du        
   5012 ****       124.0000 244.5000 355.7500 Du        
   5013 ****       124.0000 244.5000 356.0000 Du        
   5014 ****       124.0000 244.5000 356.2500 Du        
   5015 ****       124.0000 244.5000 356.5000 Du        
   5016 ****       124.0000 244.5000 356.7500 Du        
   5017 ****       124.0000 244.5000 357.0000 Du        
   5018 ****       124.0000 244.5000 357.2500 Du        
   5019 ****       124.0000 244.5000 357.5000 Du        
   5020 ****       124.0000 244.5000 357.7500 Du        
   5021 ****       124.0000 244.5000 358.0000 Du        
   5022 ****       124.0000 244.5000 358.2500 Du        
   5023 ****       124.0000 244.5000 358.5000 Du        
   5024 ****       124.0000 244.7500 355.2500 Du        
   5025 ****       124.0000 244.7500 355.5000 Du        
   5026 ****       124.0000 244.7500 355.7500 Du        
   5027 ****       124.0000 244.7500 356.0000 Du        
   5028 ****       124.0000 244.7500 356.2500 Du        
   5029 ****       124.0000 244.7500 356.5000 Du        
   5030 ****       124.0000 244.7500 356.7500 Du        
   5031 ****       124.0000 244.7500 357.0000 Du        
   5032 ****       124.0000 244.7500 357.2500 Du        
   5033 ****       124.0000 244.7500 357.5000 Du        
   5034 ****       124.0000 244.7500 357.7500 Du        
   5035 ****       124.0000 244.7500 358.0000 Du        
   5036 ****       124.0000 244.7500 358.2500 Du        
   5037 ****       124.0000 245.0000 355.0000 Du        
   5038 ****       124.0000 245.0000 355.2500 Du        
   5039 ****       124.0000 245.0000 355.5000 Du        
   5040 ****       124.0000 245.0000 355.7500 Du        
   5041 ****       124.0000 245.0000 356.0000 Du        
   5042 ****       124.0000 245.0000 356.2500 Du        
   5043 ****       124.0000 245.0000 356.5000 Du        
   5044 ****       124.0000 245.0000 356.7500 Du        
   5045 ****       124.0000 245.0000 357.0000 Du        
   5046 ****       124.0000 245.0000 357.2500 Du        
   5047 ****       124.0000 245.0000 357.5000 Du        
   5048 ****       124.0000 245.0000 357.7500 Du        
   5049 ****       124.0000 245.0000 358.0000 Du        
   5050 ****       124.0000 245.0000 358.2500 Du        
   5051 ****       124.0000 245.2500 354.7500 Du        
   5052 ****       124.0000 245.2500 355.0000 Du        
   5053 ****       124.0000 245.2500 355.2500 Du        
   5054 ****       124.0000 245.2500 355.5000 Du        
   5055 ****       124.0000 245.2500 355.7500 Du        
   5056 ****       124.0000 245.2500 356.0000 Du        
   5057 ****       124.0000 245.2500 356.2500 Du        
   5058 ****       124.0000 245.2500 356.5000 Du        
   5059 ****       124.0000 245.2500 356.7500 Du        
   5060 ****       124.0000 245.2500 357.0000 Du        
   5061 ****       124.0000 245.2500 357.2500 Du        
   5062 ****       124.0000 245.2500 357.5000 Du        
   5063 ****       124.0000 245.2500 357.7500 Du        
   5064 ****       124.0000 245.2500 358.0000 Du        
   5065 ****       124.0000 245.2500 358.2500 Du        
   5066 ****       124.0000 245.5000 354.5000 Du        
   5067 ****       124.0000 245.5000 354.7500 Du        
   5068 ****       124.0000 245.5000 355.0000 Du        
   5069 ****       124.0000 245.5000 355.2500 Du        
   5070 ****       124.0000 245.5000 355.5000 Du        
   5071 ****       124.0000 245.5000 355.7500 Du        
   5072 ****       124.0000 245.5000 356.0000 Du        
   5073 ****       124.0000 245.5000 356.2500 Du        
   5074 ****       124.0000 245.5000 356.5000 Du        
   5075 ****       124.0000 245.5000 356.7500 Du        
   5076 ****       124.0000 245.5000 357.0000 Du        
   5077 ****       124.0000 245.5000 357.2500 Du        
   5078 ****       124.0000 245.5000 357.5000 Du        
   5079 ****       124.0000 245.5000 357.7500 Du        
   5080 ****       124.0000 245.5000 358.0000 Du        
   5081 ****       124.0000 245.7500 354.5000 Du        
   5082 ****       124.0000 245.7500 354.7500 Du        
   5083 ****       124.0000 245.7500 355.0000 Du        
   5084 ****       124.0000 245.7500 355.2500 Du        
   5085 ****       124.0000 245.7500 355.5000 Du        
   5086 ****       124.0000 245.7500 355.7500 Du        
   5087 ****       124.0000 245.7500 356.0000 Du        
   5088 ****       124.0000 245.7500 356.2500 Du        
   5089 ****       124.0000 245.7500 356.5000 Du        
   5090 ****       124.0000 245.7500 356.7500 Du        
   5091 ****       124.0000 245.7500 357.0000 Du        
   5092 ****       124.0000 245.7500 357.2500 Du        
   5093 ****       124.0000 245.7500 357.5000 Du        
   5094 ****       124.0000 245.7500 357.7500 Du        
   5095 ****       124.0000 245.7500 358.0000 Du        
   5096 ****       124.0000 246.0000 354.5000 Du        
   5097 ****       124.0000 246.0000 354.7500 Du        
   5098 ****       124.0000 246.0000 355.0000 Du        
   5099 ****       124.0000 246.0000 355.2500 Du        
   5100 ****       124.0000 246.0000 355.5000 Du        
   5101 ****       124.0000 246.0000 355.7500 Du        
   5102 ****       124.0000 246.0000 356.0000 Du        
   5103 ****       124.0000 246.0000 356.2500 Du        
   5104 ****       124.0000 246.0000 356.5000 Du        
   5105 ****       124.0000 246.0000 356.7500 Du        
   5106 ****       124.0000 246.0000 357.0000 Du        
   5107 ****       124.0000 246.0000 357.2500 Du        
   5108 ****       124.0000 246.0000 357.5000 Du        
   5109 ****       124.0000 246.0000 357.7500 Du        
   5110 ****       124.0000 246.0000 358.0000 Du        
   5111 ****       124.0000 246.2500 354.5000 Du        
   5112 ****       124.0000 246.2500 354.7500 Du        
   5113 ****       124.0000 246.2500 355.0000 Du        
   5114 ****       124.0000 246.2500 355.2500 Du        
   5115 ****       124.0000 246.2500 355.5000 Du        
   5116 ****       124.0000 246.2500 355.7500 Du        
   5117 ****       124.0000 246.2500 356.0000 Du        
   5118 ****       124.0000 246.2500 356.2500 Du        
   5119 ****       124.0000 246.2500 357.0000 Du        
   5120 ****       124.0000 246.5000 354.5000 Du        
   5121 ****       124.0000 246.5000 354.7500 Du        
   5122 ****       124.0000 246.5000 355.0000 Du        
   5123 ****       124.0000 246.5000 355.2500 Du        
   5124 ****       124.0000 246.7500 354.5000 Du        
   5125 ****       124.0000 246.7500 354.7500 Du        
   5126 ****       124.0000 246.7500 355.0000 Du        
   5127 ****       124.0000 247.0000 354.7500 Du        
   5128 ****       124.0000 249.7500 359.7500 Du        
   5129 ****       124.0000 249.7500 360.0000 Du        
   5130 ****       124.0000 249.7500 360.2500 Du        
   5131 ****       124.0000 249.7500 360.5000 Du        
   5132 ****       124.0000 250.0000 359.7500 Du        
   5133 ****       124.0000 250.0000 360.0000 Du        
   5134 ****       124.0000 250.0000 360.2500 Du        
   5135 ****       124.0000 250.0000 360.5000 Du        
   5136 ****       124.0000 250.0000 360.7500 Du        
   5137 ****       124.0000 250.0000 361.0000 Du        
   5138 ****       124.0000 250.2500 359.7500 Du        
   5139 ****       124.0000 250.2500 360.0000 Du        
   5140 ****       124.0000 250.2500 360.2500 Du        
   5141 ****       124.0000 250.2500 360.5000 Du        
   5142 ****       124.0000 250.2500 360.7500 Du        
   5143 ****       124.0000 250.2500 361.0000 Du        
   5144 ****       124.0000 250.5000 359.7500 Du        
   5145 ****       124.0000 250.5000 360.0000 Du        
   5146 ****       124.0000 250.5000 360.2500 Du        
   5147 ****       124.0000 250.5000 360.5000 Du        
   5148 ****       124.0000 250.5000 360.7500 Du        
   5149 ****       124.0000 250.5000 361.0000 Du        
   5150 ****       124.0000 250.5000 361.2500 Du        
   5151 ****       124.0000 250.7500 359.7500 Du        
   5152 ****       124.0000 250.7500 360.0000 Du        
   5153 ****       124.0000 250.7500 360.2500 Du        
   5154 ****       124.0000 250.7500 360.5000 Du        
   5155 ****       124.0000 250.7500 360.7500 Du        
   5156 ****       124.0000 250.7500 361.0000 Du        
   5157 ****       124.0000 250.7500 361.2500 Du        
   5158 ****       124.0000 250.7500 361.5000 Du        
   5159 ****       124.0000 251.0000 359.7500 Du        
   5160 ****       124.0000 251.0000 360.0000 Du        
   5161 ****       124.0000 251.0000 360.2500 Du        
   5162 ****       124.0000 251.0000 360.5000 Du        
   5163 ****       124.0000 251.0000 360.7500 Du        
   5164 ****       124.0000 251.0000 361.0000 Du        
   5165 ****       124.0000 251.0000 361.2500 Du        
   5166 ****       124.0000 251.0000 361.5000 Du        
   5167 ****       124.0000 251.2500 359.7500 Du        
   5168 ****       124.0000 251.2500 360.0000 Du        
   5169 ****       124.0000 251.2500 360.2500 Du        
   5170 ****       124.0000 251.2500 360.5000 Du        
   5171 ****       124.0000 251.2500 360.7500 Du        
   5172 ****       124.0000 251.2500 361.0000 Du        
   5173 ****       124.0000 251.5000 359.5000 Du        
   5174 ****       124.0000 251.5000 359.7500 Du        
   5175 ****       124.0000 251.5000 360.0000 Du        
   5176 ****       124.0000 251.5000 360.2500 Du        
   5177 ****       124.0000 251.5000 360.5000 Du        
   5178 ****       124.0000 251.7500 359.5000 Du        
   5179 ****       124.0000 251.7500 359.7500 Du        
   5180 ****       124.0000 252.7500 355.2500 Du        
   5181 ****       124.0000 252.7500 355.5000 Du        
   5182 ****       124.0000 252.7500 355.7500 Du        
   5183 ****       124.0000 253.0000 355.0000 Du        
   5184 ****       124.0000 253.0000 355.2500 Du        
   5185 ****       124.0000 253.0000 355.5000 Du        
   5186 ****       124.0000 253.0000 355.7500 Du        
   5187 ****       124.0000 253.2500 355.0000 Du        
   5188 ****       124.0000 253.2500 355.2500 Du        
   5189 ****       124.0000 256.5000 361.2500 Du        
   5190 ****       124.0000 256.7500 361.2500 Du        
   5191 ****       124.0000 256.7500 361.5000 Du        
   5192 ****       124.2500 244.0000 356.0000 Du        
   5193 ****       124.2500 244.0000 356.2500 Du        
   5194 ****       124.2500 244.0000 358.5000 Du        
   5195 ****       124.2500 244.0000 358.7500 Du        
   5196 ****       124.2500 244.2500 355.7500 Du        
   5197 ****       124.2500 244.2500 356.0000 Du        
   5198 ****       124.2500 244.2500 356.2500 Du        
   5199 ****       124.2500 244.2500 356.5000 Du        
   5200 ****       124.2500 244.2500 356.7500 Du        
   5201 ****       124.2500 244.2500 357.0000 Du        
   5202 ****       124.2500 244.2500 357.2500 Du        
   5203 ****       124.2500 244.2500 357.5000 Du        
   5204 ****       124.2500 244.2500 357.7500 Du        
   5205 ****       124.2500 244.2500 358.0000 Du        
   5206 ****       124.2500 244.2500 358.2500 Du        
   5207 ****       124.2500 244.2500 358.5000 Du        
   5208 ****       124.2500 244.5000 355.5000 Du        
   5209 ****       124.2500 244.5000 355.7500 Du        
   5210 ****       124.2500 244.5000 356.0000 Du        
   5211 ****       124.2500 244.5000 356.2500 Du        
   5212 ****       124.2500 244.5000 356.5000 Du        
   5213 ****       124.2500 244.5000 356.7500 Du        
   5214 ****       124.2500 244.5000 357.0000 Du        
   5215 ****       124.2500 244.5000 357.2500 Du        
   5216 ****       124.2500 244.5000 357.5000 Du        
   5217 ****       124.2500 244.5000 357.7500 Du        
   5218 ****       124.2500 244.5000 358.0000 Du        
   5219 ****       124.2500 244.5000 358.2500 Du        
   5220 ****       124.2500 244.7500 355.2500 Du        
   5221 ****       124.2500 244.7500 355.5000 Du        
   5222 ****       124.2500 244.7500 355.7500 Du        
   5223 ****       124.2500 244.7500 356.0000 Du        
   5224 ****       124.2500 244.7500 356.2500 Du        
   5225 ****       124.2500 244.7500 356.5000 Du        
   5226 ****       124.2500 244.7500 356.7500 Du        
   5227 ****       124.2500 244.7500 357.0000 Du        
   5228 ****       124.2500 244.7500 357.2500 Du        
   5229 ****       124.2500 244.7500 357.5000 Du        
   5230 ****       124.2500 244.7500 357.7500 Du        
   5231 ****       124.2500 244.7500 358.0000 Du        
   5232 ****       124.2500 244.7500 358.2500 Du        
   5233 ****       124.2500 245.0000 355.0000 Du        
   5234 ****       124.2500 245.0000 355.2500 Du        
   5235 ****       124.2500 245.0000 355.5000 Du        
   5236 ****       124.2500 245.0000 355.7500 Du        
   5237 ****       124.2500 245.0000 356.0000 Du        
   5238 ****       124.2500 245.0000 356.2500 Du        
   5239 ****       124.2500 245.0000 356.5000 Du        
   5240 ****       124.2500 245.0000 356.7500 Du        
   5241 ****       124.2500 245.0000 357.0000 Du        
   5242 ****       124.2500 245.0000 357.2500 Du        
   5243 ****       124.2500 245.0000 357.5000 Du        
   5244 ****       124.2500 245.0000 357.7500 Du        
   5245 ****       124.2500 245.0000 358.0000 Du        
   5246 ****       124.2500 245.0000 358.2500 Du        
   5247 ****       124.2500 245.2500 354.7500 Du        
   5248 ****       124.2500 245.2500 355.0000 Du        
   5249 ****       124.2500 245.2500 355.2500 Du        
   5250 ****       124.2500 245.2500 355.5000 Du        
   5251 ****       124.2500 245.2500 355.7500 Du        
   5252 ****       124.2500 245.2500 356.0000 Du        
   5253 ****       124.2500 245.2500 356.2500 Du        
   5254 ****       124.2500 245.2500 356.5000 Du        
   5255 ****       124.2500 245.2500 356.7500 Du        
   5256 ****       124.2500 245.2500 357.0000 Du        
   5257 ****       124.2500 245.2500 357.2500 Du        
   5258 ****       124.2500 245.2500 357.5000 Du        
   5259 ****       124.2500 245.2500 357.7500 Du        
   5260 ****       124.2500 245.2500 358.0000 Du        
   5261 ****       124.2500 245.2500 358.2500 Du        
   5262 ****       124.2500 245.5000 354.5000 Du        
   5263 ****       124.2500 245.5000 354.7500 Du        
   5264 ****       124.2500 245.5000 355.0000 Du        
   5265 ****       124.2500 245.5000 355.2500 Du        
   5266 ****       124.2500 245.5000 355.5000 Du        
   5267 ****       124.2500 245.5000 355.7500 Du        
   5268 ****       124.2500 245.5000 356.0000 Du        
   5269 ****       124.2500 245.5000 356.2500 Du        
   5270 ****       124.2500 245.5000 356.5000 Du        
   5271 ****       124.2500 245.5000 356.7500 Du        
   5272 ****       124.2500 245.5000 357.0000 Du        
   5273 ****       124.2500 245.5000 357.2500 Du        
   5274 ****       124.2500 245.5000 357.5000 Du        
   5275 ****       124.2500 245.5000 357.7500 Du        
   5276 ****       124.2500 245.5000 358.0000 Du        
   5277 ****       124.2500 245.7500 354.5000 Du        
   5278 ****       124.2500 245.7500 354.7500 Du        
   5279 ****       124.2500 245.7500 355.0000 Du        
   5280 ****       124.2500 245.7500 355.2500 Du        
   5281 ****       124.2500 245.7500 355.5000 Du        
   5282 ****       124.2500 245.7500 355.7500 Du        
   5283 ****       124.2500 245.7500 356.0000 Du        
   5284 ****       124.2500 245.7500 356.2500 Du        
   5285 ****       124.2500 245.7500 356.5000 Du        
   5286 ****       124.2500 245.7500 356.7500 Du        
   5287 ****       124.2500 245.7500 357.0000 Du        
   5288 ****       124.2500 245.7500 357.2500 Du        
   5289 ****       124.2500 245.7500 357.5000 Du        
   5290 ****       124.2500 245.7500 357.7500 Du        
   5291 ****       124.2500 245.7500 358.0000 Du        
   5292 ****       124.2500 246.0000 354.5000 Du        
   5293 ****       124.2500 246.0000 354.7500 Du        
   5294 ****       124.2500 246.0000 355.0000 Du        
   5295 ****       124.2500 246.0000 355.2500 Du        
   5296 ****       124.2500 246.0000 355.5000 Du        
   5297 ****       124.2500 246.0000 355.7500 Du        
   5298 ****       124.2500 246.0000 356.0000 Du        
   5299 ****       124.2500 246.0000 356.2500 Du        
   5300 ****       124.2500 246.0000 356.5000 Du        
   5301 ****       124.2500 246.0000 356.7500 Du        
   5302 ****       124.2500 246.0000 357.0000 Du        
   5303 ****       124.2500 246.0000 357.5000 Du        
   5304 ****       124.2500 246.0000 357.7500 Du        
   5305 ****       124.2500 246.2500 354.5000 Du        
   5306 ****       124.2500 246.2500 354.7500 Du        
   5307 ****       124.2500 246.2500 355.0000 Du        
   5308 ****       124.2500 246.2500 355.2500 Du        
   5309 ****       124.2500 246.2500 355.5000 Du        
   5310 ****       124.2500 246.2500 355.7500 Du        
   5311 ****       124.2500 246.2500 356.0000 Du        
   5312 ****       124.2500 246.2500 356.2500 Du        
   5313 ****       124.2500 246.2500 356.7500 Du        
   5314 ****       124.2500 246.2500 357.0000 Du        
   5315 ****       124.2500 246.5000 354.5000 Du        
   5316 ****       124.2500 246.5000 354.7500 Du        
   5317 ****       124.2500 246.5000 355.0000 Du        
   5318 ****       124.2500 246.5000 355.2500 Du        
   5319 ****       124.2500 246.5000 355.5000 Du        
   5320 ****       124.2500 246.7500 354.5000 Du        
   5321 ****       124.2500 246.7500 354.7500 Du        
   5322 ****       124.2500 246.7500 355.0000 Du        
   5323 ****       124.2500 246.7500 355.2500 Du        
   5324 ****       124.2500 247.0000 354.5000 Du        
   5325 ****       124.2500 247.0000 354.7500 Du        
   5326 ****       124.2500 247.0000 355.0000 Du        
   5327 ****       124.2500 247.0000 355.2500 Du        
   5328 ****       124.2500 247.2500 354.5000 Du        
   5329 ****       124.2500 247.2500 354.7500 Du        
   5330 ****       124.2500 247.2500 355.0000 Du        
   5331 ****       124.2500 247.5000 354.7500 Du        
   5332 ****       124.2500 247.7500 354.7500 Du        
   5333 ****       124.2500 249.7500 359.7500 Du        
   5334 ****       124.2500 249.7500 360.0000 Du        
   5335 ****       124.2500 249.7500 360.2500 Du        
   5336 ****       124.2500 249.7500 360.5000 Du        
   5337 ****       124.2500 249.7500 360.7500 Du        
   5338 ****       124.2500 249.7500 361.0000 Du        
   5339 ****       124.2500 250.0000 359.7500 Du        
   5340 ****       124.2500 250.0000 360.0000 Du        
   5341 ****       124.2500 250.0000 360.2500 Du        
   5342 ****       124.2500 250.0000 360.5000 Du        
   5343 ****       124.2500 250.0000 360.7500 Du        
   5344 ****       124.2500 250.0000 361.0000 Du        
   5345 ****       124.2500 250.0000 361.2500 Du        
   5346 ****       124.2500 250.2500 359.7500 Du        
   5347 ****       124.2500 250.2500 360.0000 Du        
   5348 ****       124.2500 250.2500 360.2500 Du        
   5349 ****       124.2500 250.2500 360.5000 Du        
   5350 ****       124.2500 250.2500 360.7500 Du        
   5351 ****       124.2500 250.2500 361.0000 Du        
   5352 ****       124.2500 250.2500 361.2500 Du        
   5353 ****       124.2500 250.5000 359.7500 Du        
   5354 ****       124.2500 250.5000 360.0000 Du        
   5355 ****       124.2500 250.5000 360.2500 Du        
   5356 ****       124.2500 250.5000 360.5000 Du        
   5357 ****       124.2500 250.5000 360.7500 Du        
   5358 ****       124.2500 250.5000 361.0000 Du        
   5359 ****       124.2500 250.5000 361.2500 Du        
   5360 ****       124.2500 250.7500 359.7500 Du        
   5361 ****       124.2500 250.7500 360.0000 Du        
   5362 ****       124.2500 250.7500 360.2500 Du        
   5363 ****       124.2500 250.7500 360.5000 Du        
   5364 ****       124.2500 250.7500 360.7500 Du        
   5365 ****       124.2500 250.7500 361.0000 Du        
   5366 ****       124.2500 250.7500 361.2500 Du        
   5367 ****       124.2500 251.0000 359.7500 Du        
   5368 ****       124.2500 251.0000 360.0000 Du        
   5369 ****       124.2500 251.0000 360.2500 Du        
   5370 ****       124.2500 251.0000 360.5000 Du        
   5371 ****       124.2500 251.0000 360.7500 Du        
   5372 ****       124.2500 251.0000 361.0000 Du        
   5373 ****       124.2500 251.0000 361.2500 Du        
   5374 ****       124.2500 251.2500 359.7500 Du        
   5375 ****       124.2500 251.2500 360.0000 Du        
   5376 ****       124.2500 251.2500 360.2500 Du        
   5377 ****       124.2500 251.2500 360.5000 Du        
   5378 ****       124.2500 251.2500 360.7500 Du        
   5379 ****       124.2500 252.5000 355.2500 Du        
   5380 ****       124.2500 252.5000 355.5000 Du        
   5381 ****       124.2500 252.5000 355.7500 Du        
   5382 ****       124.2500 252.7500 355.0000 Du        
   5383 ****       124.2500 252.7500 355.2500 Du        
   5384 ****       124.2500 252.7500 355.5000 Du        
   5385 ****       124.2500 252.7500 355.7500 Du        
   5386 ****       124.2500 253.0000 355.0000 Du        
   5387 ****       124.2500 253.0000 355.2500 Du        
   5388 ****       124.2500 253.0000 355.5000 Du        
   5389 ****       124.2500 253.0000 355.7500 Du        
   5390 ****       124.2500 253.2500 355.0000 Du        
   5391 ****       124.2500 253.2500 355.2500 Du        
   5392 ****       124.2500 253.2500 355.5000 Du        
   5393 ****       124.2500 253.5000 355.0000 Du        
   5394 ****       124.2500 253.5000 355.2500 Du        
   5395 ****       124.2500 256.5000 361.0000 Du        
   5396 ****       124.2500 256.5000 361.2500 Du        
   5397 ****       124.2500 256.7500 361.0000 Du        
   5398 ****       124.2500 256.7500 361.2500 Du        
   5399 ****       124.2500 256.7500 361.5000 Du        
   5400 ****       124.2500 257.0000 361.2500 Du        
   5401 ****       124.2500 257.0000 361.5000 Du        
   5402 ****       124.5000 244.2500 356.0000 Du        
   5403 ****       124.5000 244.5000 355.7500 Du        
   5404 ****       124.5000 244.5000 356.0000 Du        
   5405 ****       124.5000 244.5000 356.2500 Du        
   5406 ****       124.5000 244.7500 355.2500 Du        
   5407 ****       124.5000 244.7500 355.5000 Du        
   5408 ****       124.5000 244.7500 355.7500 Du        
   5409 ****       124.5000 244.7500 356.0000 Du        
   5410 ****       124.5000 244.7500 356.2500 Du        
   5411 ****       124.5000 244.7500 356.5000 Du        
   5412 ****       124.5000 244.7500 356.7500 Du        
   5413 ****       124.5000 244.7500 357.0000 Du        
   5414 ****       124.5000 244.7500 357.7500 Du        
   5415 ****       124.5000 244.7500 358.0000 Du        
   5416 ****       124.5000 244.7500 358.2500 Du        
   5417 ****       124.5000 245.0000 355.0000 Du        
   5418 ****       124.5000 245.0000 355.2500 Du        
   5419 ****       124.5000 245.0000 355.5000 Du        
   5420 ****       124.5000 245.0000 355.7500 Du        
   5421 ****       124.5000 245.0000 356.0000 Du        
   5422 ****       124.5000 245.0000 356.2500 Du        
   5423 ****       124.5000 245.0000 356.5000 Du        
   5424 ****       124.5000 245.0000 356.7500 Du        
   5425 ****       124.5000 245.0000 357.0000 Du        
   5426 ****       124.5000 245.0000 357.2500 Du        
   5427 ****       124.5000 245.0000 357.5000 Du        
   5428 ****       124.5000 245.0000 357.7500 Du        
   5429 ****       124.5000 245.0000 358.0000 Du        
   5430 ****       124.5000 245.0000 358.2500 Du        
   5431 ****       124.5000 245.2500 354.7500 Du        
   5432 ****       124.5000 245.2500 355.0000 Du        
   5433 ****       124.5000 245.2500 355.2500 Du        
   5434 ****       124.5000 245.2500 355.5000 Du        
   5435 ****       124.5000 245.2500 355.7500 Du        
   5436 ****       124.5000 245.2500 356.0000 Du        
   5437 ****       124.5000 245.2500 356.2500 Du        
   5438 ****       124.5000 245.2500 356.5000 Du        
   5439 ****       124.5000 245.2500 356.7500 Du        
   5440 ****       124.5000 245.2500 357.0000 Du        
   5441 ****       124.5000 245.2500 357.2500 Du        
   5442 ****       124.5000 245.2500 357.5000 Du        
   5443 ****       124.5000 245.2500 357.7500 Du        
   5444 ****       124.5000 245.2500 358.0000 Du        
   5445 ****       124.5000 245.2500 358.2500 Du        
   5446 ****       124.5000 245.5000 354.7500 Du        
   5447 ****       124.5000 245.5000 355.0000 Du        
   5448 ****       124.5000 245.5000 355.2500 Du        
   5449 ****       124.5000 245.5000 355.5000 Du        
   5450 ****       124.5000 245.5000 355.7500 Du        
   5451 ****       124.5000 245.5000 356.0000 Du        
   5452 ****       124.5000 245.5000 356.2500 Du        
   5453 ****       124.5000 245.5000 356.5000 Du        
   5454 ****       124.5000 245.5000 356.7500 Du        
   5455 ****       124.5000 245.5000 357.0000 Du        
   5456 ****       124.5000 245.5000 357.2500 Du        
   5457 ****       124.5000 245.7500 354.5000 Du        
   5458 ****       124.5000 245.7500 354.7500 Du        
   5459 ****       124.5000 245.7500 355.0000 Du        
   5460 ****       124.5000 245.7500 355.2500 Du        
   5461 ****       124.5000 245.7500 355.5000 Du        
   5462 ****       124.5000 245.7500 355.7500 Du        
   5463 ****       124.5000 245.7500 356.0000 Du        
   5464 ****       124.5000 245.7500 356.2500 Du        
   5465 ****       124.5000 245.7500 356.5000 Du        
   5466 ****       124.5000 245.7500 356.7500 Du        
   5467 ****       124.5000 245.7500 357.0000 Du        
   5468 ****       124.5000 245.7500 357.2500 Du        
   5469 ****       124.5000 246.0000 354.5000 Du        
   5470 ****       124.5000 246.0000 354.7500 Du        
   5471 ****       124.5000 246.0000 355.0000 Du        
   5472 ****       124.5000 246.0000 355.2500 Du        
   5473 ****       124.5000 246.0000 355.5000 Du        
   5474 ****       124.5000 246.0000 355.7500 Du        
   5475 ****       124.5000 246.0000 356.0000 Du        
   5476 ****       124.5000 246.0000 356.2500 Du        
   5477 ****       124.5000 246.2500 354.2500 Du        
   5478 ****       124.5000 246.2500 354.5000 Du        
   5479 ****       124.5000 246.2500 354.7500 Du        
   5480 ****       124.5000 246.2500 355.0000 Du        
   5481 ****       124.5000 246.2500 355.2500 Du        
   5482 ****       124.5000 246.2500 355.5000 Du        
   5483 ****       124.5000 246.2500 355.7500 Du        
   5484 ****       124.5000 246.2500 356.0000 Du        
   5485 ****       124.5000 246.2500 356.2500 Du        
   5486 ****       124.5000 246.5000 354.2500 Du        
   5487 ****       124.5000 246.5000 354.5000 Du        
   5488 ****       124.5000 246.5000 354.7500 Du        
   5489 ****       124.5000 246.5000 355.0000 Du        
   5490 ****       124.5000 246.5000 355.2500 Du        
   5491 ****       124.5000 246.5000 355.5000 Du        
   5492 ****       124.5000 246.5000 356.0000 Du        
   5493 ****       124.5000 246.7500 354.2500 Du        
   5494 ****       124.5000 246.7500 354.5000 Du        
   5495 ****       124.5000 246.7500 354.7500 Du        
   5496 ****       124.5000 246.7500 355.0000 Du        
   5497 ****       124.5000 246.7500 355.2500 Du        
   5498 ****       124.5000 247.0000 354.5000 Du        
   5499 ****       124.5000 247.0000 354.7500 Du        
   5500 ****       124.5000 247.0000 355.0000 Du        
   5501 ****       124.5000 247.0000 355.2500 Du        
   5502 ****       124.5000 247.2500 354.7500 Du        
   5503 ****       124.5000 247.2500 355.0000 Du        
   5504 ****       124.5000 247.5000 354.7500 Du        
   5505 ****       124.5000 247.7500 354.7500 Du        
   5506 ****       124.5000 248.0000 354.7500 Du        
   5507 ****       124.5000 249.7500 359.7500 Du        
   5508 ****       124.5000 249.7500 360.0000 Du        
   5509 ****       124.5000 249.7500 360.2500 Du        
   5510 ****       124.5000 249.7500 360.5000 Du        
   5511 ****       124.5000 249.7500 360.7500 Du        
   5512 ****       124.5000 249.7500 361.0000 Du        
   5513 ****       124.5000 250.0000 359.7500 Du        
   5514 ****       124.5000 250.0000 360.0000 Du        
   5515 ****       124.5000 250.0000 360.2500 Du        
   5516 ****       124.5000 250.0000 360.5000 Du        
   5517 ****       124.5000 250.0000 360.7500 Du        
   5518 ****       124.5000 250.0000 361.0000 Du        
   5519 ****       124.5000 250.0000 361.2500 Du        
   5520 ****       124.5000 250.2500 360.0000 Du        
   5521 ****       124.5000 250.2500 360.2500 Du        
   5522 ****       124.5000 250.2500 360.5000 Du        
   5523 ****       124.5000 250.2500 360.7500 Du        
   5524 ****       124.5000 250.2500 361.0000 Du        
   5525 ****       124.5000 250.2500 361.2500 Du        
   5526 ****       124.5000 250.5000 360.0000 Du        
   5527 ****       124.5000 250.5000 360.2500 Du        
   5528 ****       124.5000 250.5000 360.5000 Du        
   5529 ****       124.5000 250.5000 360.7500 Du        
   5530 ****       124.5000 250.5000 361.0000 Du        
   5531 ****       124.5000 250.5000 361.2500 Du        
   5532 ****       124.5000 250.7500 360.0000 Du        
   5533 ****       124.5000 250.7500 360.2500 Du        
   5534 ****       124.5000 250.7500 360.5000 Du        
   5535 ****       124.5000 250.7500 360.7500 Du        
   5536 ****       124.5000 250.7500 361.0000 Du        
   5537 ****       124.5000 251.0000 360.2500 Du        
   5538 ****       124.5000 251.0000 360.5000 Du        
   5539 ****       124.5000 251.0000 360.7500 Du        
   5540 ****       124.5000 252.7500 355.2500 Du        
   5541 ****       124.5000 252.7500 355.5000 Du        
   5542 ****       124.5000 253.0000 355.2500 Du        
   5543 ****       124.5000 253.0000 355.5000 Du        
   5544 ****       124.5000 253.2500 355.0000 Du        
   5545 ****       124.5000 253.2500 355.2500 Du        
   5546 ****       124.5000 253.5000 355.0000 Du        
   5547 ****       124.5000 253.5000 355.2500 Du        
   5548 ****       124.5000 253.7500 355.0000 Du        
   5549 ****       124.5000 253.7500 355.2500 Du        
   5550 ****       124.5000 256.5000 361.0000 Du        
   5551 ****       124.5000 256.5000 361.2500 Du        
   5552 ****       124.5000 256.7500 361.0000 Du        
   5553 ****       124.5000 256.7500 361.2500 Du        
   5554 ****       124.5000 256.7500 361.5000 Du        
   5555 ****       124.5000 257.0000 361.0000 Du        
   5556 ****       124.5000 257.0000 361.2500 Du        
   5557 ****       124.5000 257.0000 361.5000 Du        
   5558 ****       124.5000 257.2500 361.2500 Du        
   5559 ****       124.5000 257.2500 361.5000 Du        
   5560 ****       124.7500 244.7500 355.5000 Du        
   5561 ****       124.7500 244.7500 355.7500 Du        
   5562 ****       124.7500 244.7500 356.0000 Du        
   5563 ****       124.7500 244.7500 358.2500 Du        
   5564 ****       124.7500 245.0000 355.0000 Du        
   5565 ****       124.7500 245.0000 355.2500 Du        
   5566 ****       124.7500 245.0000 355.5000 Du        
   5567 ****       124.7500 245.0000 355.7500 Du        
   5568 ****       124.7500 245.0000 356.0000 Du        
   5569 ****       124.7500 245.0000 356.2500 Du        
   5570 ****       124.7500 245.0000 358.0000 Du        
   5571 ****       124.7500 245.0000 358.2500 Du        
   5572 ****       124.7500 245.2500 354.7500 Du        
   5573 ****       124.7500 245.2500 355.0000 Du        
   5574 ****       124.7500 245.2500 355.2500 Du        
   5575 ****       124.7500 245.2500 355.5000 Du        
   5576 ****       124.7500 245.2500 355.7500 Du        
   5577 ****       124.7500 245.2500 356.0000 Du        
   5578 ****       124.7500 245.2500 356.2500 Du        
   5579 ****       124.7500 245.2500 356.5000 Du        
   5580 ****       124.7500 245.2500 356.7500 Du        
   5581 ****       124.7500 245.2500 357.0000 Du        
   5582 ****       124.7500 245.2500 357.2500 Du        
   5583 ****       124.7500 245.2500 357.5000 Du        
   5584 ****       124.7500 245.2500 357.7500 Du        
   5585 ****       124.7500 245.2500 358.0000 Du        
   5586 ****       124.7500 245.2500 358.2500 Du        
   5587 ****       124.7500 245.5000 354.7500 Du        
   5588 ****       124.7500 245.5000 355.0000 Du        
   5589 ****       124.7500 245.5000 355.2500 Du        
   5590 ****       124.7500 245.5000 355.5000 Du        
   5591 ****       124.7500 245.5000 355.7500 Du        
   5592 ****       124.7500 245.5000 356.0000 Du        
   5593 ****       124.7500 245.5000 356.2500 Du        
   5594 ****       124.7500 245.5000 357.0000 Du        
   5595 ****       124.7500 245.5000 357.2500 Du        
   5596 ****       124.7500 245.7500 354.5000 Du        
   5597 ****       124.7500 245.7500 354.7500 Du        
   5598 ****       124.7500 245.7500 355.0000 Du        
   5599 ****       124.7500 245.7500 355.2500 Du        
   5600 ****       124.7500 245.7500 355.5000 Du        
   5601 ****       124.7500 245.7500 355.7500 Du        
   5602 ****       124.7500 245.7500 356.0000 Du        
   5603 ****       124.7500 245.7500 356.2500 Du        
   5604 ****       124.7500 245.7500 356.5000 Du        
   5605 ****       124.7500 245.7500 356.7500 Du        
   5606 ****       124.7500 245.7500 357.0000 Du        
   5607 ****       124.7500 245.7500 357.2500 Du        
   5608 ****       124.7500 246.0000 354.2500 Du        
   5609 ****       124.7500 246.0000 354.5000 Du        
   5610 ****       124.7500 246.0000 354.7500 Du        
   5611 ****       124.7500 246.0000 355.0000 Du        
   5612 ****       124.7500 246.0000 355.2500 Du        
   5613 ****       124.7500 246.0000 355.5000 Du        
   5614 ****       124.7500 246.0000 355.7500 Du        
   5615 ****       124.7500 246.0000 356.0000 Du        
   5616 ****       124.7500 246.0000 356.2500 Du        
   5617 ****       124.7500 246.0000 356.7500 Du        
   5618 ****       124.7500 246.2500 354.2500 Du        
   5619 ****       124.7500 246.2500 354.5000 Du        
   5620 ****       124.7500 246.2500 354.7500 Du        
   5621 ****       124.7500 246.2500 355.0000 Du        
   5622 ****       124.7500 246.2500 355.2500 Du        
   5623 ****       124.7500 246.2500 355.5000 Du        
   5624 ****       124.7500 246.2500 355.7500 Du        
   5625 ****       124.7500 246.2500 356.0000 Du        
   5626 ****       124.7500 246.2500 356.2500 Du        
   5627 ****       124.7500 246.5000 354.2500 Du        
   5628 ****       124.7500 246.5000 354.5000 Du        
   5629 ****       124.7500 246.5000 354.7500 Du        
   5630 ****       124.7500 246.5000 355.0000 Du        
   5631 ****       124.7500 246.5000 355.2500 Du        
   5632 ****       124.7500 246.5000 355.5000 Du        
   5633 ****       124.7500 246.5000 355.7500 Du        
   5634 ****       124.7500 246.5000 356.0000 Du        
   5635 ****       124.7500 246.7500 354.2500 Du        
   5636 ****       124.7500 246.7500 354.5000 Du        
   5637 ****       124.7500 246.7500 354.7500 Du        
   5638 ****       124.7500 246.7500 355.0000 Du        
   5639 ****       124.7500 246.7500 355.2500 Du        
   5640 ****       124.7500 246.7500 355.7500 Du        
   5641 ****       124.7500 246.7500 356.0000 Du        
   5642 ****       124.7500 247.0000 354.2500 Du        
   5643 ****       124.7500 247.0000 354.5000 Du        
   5644 ****       124.7500 247.0000 354.7500 Du        
   5645 ****       124.7500 247.0000 355.0000 Du        
   5646 ****       124.7500 247.0000 355.2500 Du        
   5647 ****       124.7500 247.2500 354.2500 Du        
   5648 ****       124.7500 247.2500 354.5000 Du        
   5649 ****       124.7500 247.2500 354.7500 Du        
   5650 ****       124.7500 247.2500 355.0000 Du        
   5651 ****       124.7500 247.2500 355.2500 Du        
   5652 ****       124.7500 247.5000 354.2500 Du        
   5653 ****       124.7500 247.5000 354.5000 Du        
   5654 ****       124.7500 247.5000 354.7500 Du        
   5655 ****       124.7500 247.5000 355.0000 Du        
   5656 ****       124.7500 247.7500 354.2500 Du        
   5657 ****       124.7500 247.7500 354.5000 Du        
   5658 ****       124.7500 247.7500 354.7500 Du        
   5659 ****       124.7500 248.0000 354.5000 Du        
   5660 ****       124.7500 248.0000 354.7500 Du        
   5661 ****       124.7500 248.2500 354.7500 Du        
   5662 ****       124.7500 249.5000 359.7500 Du        
   5663 ****       124.7500 249.5000 360.0000 Du        
   5664 ****       124.7500 249.7500 359.7500 Du        
   5665 ****       124.7500 249.7500 360.0000 Du        
   5666 ****       124.7500 249.7500 360.2500 Du        
   5667 ****       124.7500 249.7500 360.5000 Du        
   5668 ****       124.7500 249.7500 360.7500 Du        
   5669 ****       124.7500 249.7500 361.0000 Du        
   5670 ****       124.7500 250.0000 359.7500 Du        
   5671 ****       124.7500 250.0000 360.0000 Du        
   5672 ****       124.7500 250.0000 360.2500 Du        
   5673 ****       124.7500 250.0000 360.5000 Du        
   5674 ****       124.7500 250.0000 360.7500 Du        
   5675 ****       124.7500 250.0000 361.0000 Du        
   5676 ****       124.7500 250.2500 359.7500 Du        
   5677 ****       124.7500 250.2500 360.0000 Du        
   5678 ****       124.7500 250.2500 360.2500 Du        
   5679 ****       124.7500 250.2500 360.5000 Du        
   5680 ****       124.7500 250.2500 360.7500 Du        
   5681 ****       124.7500 250.2500 361.0000 Du        
   5682 ****       124.7500 250.5000 360.0000 Du        
   5683 ****       124.7500 250.5000 360.2500 Du        
   5684 ****       124.7500 250.5000 360.5000 Du        
   5685 ****       124.7500 250.5000 360.7500 Du        
   5686 ****       124.7500 250.7500 360.0000 Du        
   5687 ****       124.7500 250.7500 360.2500 Du        
   5688 ****       124.7500 250.7500 360.5000 Du        
   5689 ****       124.7500 250.7500 360.7500 Du        
   5690 ****       124.7500 252.7500 355.2500 Du        
   5691 ****       124.7500 253.0000 355.0000 Du        
   5692 ****       124.7500 253.0000 355.2500 Du        
   5693 ****       124.7500 253.0000 355.5000 Du        
   5694 ****       124.7500 253.2500 355.0000 Du        
   5695 ****       124.7500 253.2500 355.2500 Du        
   5696 ****       124.7500 253.2500 355.5000 Du        
   5697 ****       124.7500 253.5000 355.0000 Du        
   5698 ****       124.7500 253.5000 355.2500 Du        
   5699 ****       124.7500 253.5000 355.5000 Du        
   5700 ****       124.7500 253.7500 355.0000 Du        
   5701 ****       124.7500 253.7500 355.2500 Du        
   5702 ****       124.7500 254.0000 355.2500 Du        
   5703 ****       124.7500 256.5000 361.0000 Du        
   5704 ****       124.7500 256.5000 361.2500 Du        
   5705 ****       124.7500 256.7500 361.0000 Du        
   5706 ****       124.7500 256.7500 361.2500 Du        
   5707 ****       124.7500 256.7500 361.5000 Du        
   5708 ****       124.7500 257.0000 361.0000 Du        
   5709 ****       124.7500 257.0000 361.2500 Du        
   5710 ****       124.7500 257.0000 361.5000 Du        
   5711 ****       124.7500 257.0000 361.7500 Du        
   5712 ****       124.7500 257.2500 361.0000 Du        
   5713 ****       124.7500 257.2500 361.2500 Du        
   5714 ****       124.7500 257.2500 361.5000 Du        
   5715 ****       124.7500 257.2500 361.7500 Du        
   5716 ****       125.0000 245.0000 355.2500 Du        
   5717 ****       125.0000 245.0000 355.5000 Du        
   5718 ****       125.0000 245.0000 355.7500 Du        
   5719 ****       125.0000 245.2500 355.0000 Du        
   5720 ****       125.0000 245.2500 355.2500 Du        
   5721 ****       125.0000 245.2500 355.5000 Du        
   5722 ****       125.0000 245.2500 355.7500 Du        
   5723 ****       125.0000 245.2500 356.0000 Du        
   5724 ****       125.0000 245.5000 354.7500 Du        
   5725 ****       125.0000 245.5000 355.0000 Du        
   5726 ****       125.0000 245.5000 355.2500 Du        
   5727 ****       125.0000 245.5000 355.5000 Du        
   5728 ****       125.0000 245.5000 355.7500 Du        
   5729 ****       125.0000 245.5000 356.0000 Du        
   5730 ****       125.0000 245.7500 354.5000 Du        
   5731 ****       125.0000 245.7500 354.7500 Du        
   5732 ****       125.0000 245.7500 355.0000 Du        
   5733 ****       125.0000 245.7500 355.2500 Du        
   5734 ****       125.0000 245.7500 355.5000 Du        
   5735 ****       125.0000 245.7500 355.7500 Du        
   5736 ****       125.0000 245.7500 356.0000 Du        
   5737 ****       125.0000 245.7500 356.2500 Du        
   5738 ****       125.0000 246.0000 354.2500 Du        
   5739 ****       125.0000 246.0000 354.5000 Du        
   5740 ****       125.0000 246.0000 354.7500 Du        
   5741 ****       125.0000 246.0000 355.0000 Du        
   5742 ****       125.0000 246.0000 355.2500 Du        
   5743 ****       125.0000 246.0000 355.5000 Du        
   5744 ****       125.0000 246.0000 355.7500 Du        
   5745 ****       125.0000 246.0000 356.0000 Du        
   5746 ****       125.0000 246.0000 356.2500 Du        
   5747 ****       125.0000 246.0000 357.0000 Du        
   5748 ****       125.0000 246.2500 354.2500 Du        
   5749 ****       125.0000 246.2500 354.5000 Du        
   5750 ****       125.0000 246.2500 354.7500 Du        
   5751 ****       125.0000 246.2500 355.0000 Du        
   5752 ****       125.0000 246.2500 355.2500 Du        
   5753 ****       125.0000 246.2500 355.5000 Du        
   5754 ****       125.0000 246.2500 355.7500 Du        
   5755 ****       125.0000 246.2500 356.0000 Du        
   5756 ****       125.0000 246.2500 356.2500 Du        
   5757 ****       125.0000 246.5000 354.2500 Du        
   5758 ****       125.0000 246.5000 354.5000 Du        
   5759 ****       125.0000 246.5000 354.7500 Du        
   5760 ****       125.0000 246.5000 355.0000 Du        
   5761 ****       125.0000 246.5000 355.2500 Du        
   5762 ****       125.0000 246.5000 355.5000 Du        
   5763 ****       125.0000 246.5000 355.7500 Du        
   5764 ****       125.0000 246.7500 354.2500 Du        
   5765 ****       125.0000 246.7500 354.5000 Du        
   5766 ****       125.0000 246.7500 354.7500 Du        
   5767 ****       125.0000 246.7500 355.0000 Du        
   5768 ****       125.0000 246.7500 355.2500 Du        
   5769 ****       125.0000 246.7500 355.7500 Du        
   5770 ****       125.0000 246.7500 356.0000 Du        
   5771 ****       125.0000 247.0000 354.2500 Du        
   5772 ****       125.0000 247.0000 354.5000 Du        
   5773 ****       125.0000 247.0000 354.7500 Du        
   5774 ****       125.0000 247.0000 355.0000 Du        
   5775 ****       125.0000 247.0000 355.2500 Du        
   5776 ****       125.0000 247.2500 354.2500 Du        
   5777 ****       125.0000 247.2500 354.5000 Du        
   5778 ****       125.0000 247.2500 354.7500 Du        
   5779 ****       125.0000 247.2500 355.0000 Du        
   5780 ****       125.0000 247.2500 355.2500 Du        
   5781 ****       125.0000 247.5000 354.2500 Du        
   5782 ****       125.0000 247.5000 354.5000 Du        
   5783 ****       125.0000 247.5000 354.7500 Du        
   5784 ****       125.0000 247.7500 354.2500 Du        
   5785 ****       125.0000 247.7500 354.5000 Du        
   5786 ****       125.0000 247.7500 354.7500 Du        
   5787 ****       125.0000 247.7500 355.0000 Du        
   5788 ****       125.0000 248.0000 354.2500 Du        
   5789 ****       125.0000 248.0000 354.5000 Du        
   5790 ****       125.0000 248.0000 354.7500 Du        
   5791 ****       125.0000 248.2500 354.7500 Du        
   5792 ****       125.0000 249.5000 359.7500 Du        
   5793 ****       125.0000 249.5000 360.0000 Du        
   5794 ****       125.0000 249.5000 360.2500 Du        
   5795 ****       125.0000 249.5000 360.5000 Du        
   5796 ****       125.0000 249.7500 359.5000 Du        
   5797 ****       125.0000 249.7500 359.7500 Du        
   5798 ****       125.0000 249.7500 360.0000 Du        
   5799 ****       125.0000 249.7500 360.2500 Du        
   5800 ****       125.0000 249.7500 360.5000 Du        
   5801 ****       125.0000 249.7500 360.7500 Du        
   5802 ****       125.0000 249.7500 361.0000 Du        
   5803 ****       125.0000 250.0000 359.5000 Du        
   5804 ****       125.0000 250.0000 359.7500 Du        
   5805 ****       125.0000 250.0000 360.0000 Du        
   5806 ****       125.0000 250.0000 360.2500 Du        
   5807 ****       125.0000 250.0000 360.5000 Du        
   5808 ****       125.0000 250.0000 360.7500 Du        
   5809 ****       125.0000 250.2500 359.7500 Du        
   5810 ****       125.0000 250.2500 360.0000 Du        
   5811 ****       125.0000 250.2500 360.2500 Du        
   5812 ****       125.0000 250.2500 360.5000 Du        
   5813 ****       125.0000 250.2500 360.7500 Du        
   5814 ****       125.0000 250.5000 360.0000 Du        
   5815 ****       125.0000 250.5000 360.2500 Du        
   5816 ****       125.0000 250.5000 360.5000 Du        
   5817 ****       125.0000 250.7500 360.0000 Du        
   5818 ****       125.0000 252.7500 355.2500 Du        
   5819 ****       125.0000 253.0000 355.0000 Du        
   5820 ****       125.0000 253.0000 355.2500 Du        
   5821 ****       125.0000 253.2500 355.0000 Du        
   5822 ****       125.0000 253.2500 355.2500 Du        
   5823 ****       125.0000 253.5000 355.0000 Du        
   5824 ****       125.0000 253.5000 355.2500 Du        
   5825 ****       125.0000 253.5000 355.5000 Du        
   5826 ****       125.0000 253.5000 355.7500 Du        
   5827 ****       125.0000 253.7500 355.0000 Du        
   5828 ****       125.0000 253.7500 355.2500 Du        
   5829 ****       125.0000 253.7500 355.5000 Du        
   5830 ****       125.0000 254.0000 355.2500 Du        
   5831 ****       125.0000 256.5000 360.7500 Du        
   5832 ****       125.0000 256.5000 361.0000 Du        
   5833 ****       125.0000 256.5000 361.2500 Du        
   5834 ****       125.0000 256.7500 360.7500 Du        
   5835 ****       125.0000 256.7500 361.0000 Du        
   5836 ****       125.0000 256.7500 361.2500 Du        
   5837 ****       125.0000 256.7500 361.5000 Du        
   5838 ****       125.0000 257.0000 360.7500 Du        
   5839 ****       125.0000 257.0000 361.0000 Du        
   5840 ****       125.0000 257.0000 361.2500 Du        
   5841 ****       125.0000 257.0000 361.5000 Du        
   5842 ****       125.0000 257.0000 361.7500 Du        
   5843 ****       125.0000 257.2500 360.7500 Du        
   5844 ****       125.0000 257.2500 361.0000 Du        
   5845 ****       125.0000 257.2500 361.2500 Du        
   5846 ****       125.0000 257.2500 361.5000 Du        
   5847 ****       125.0000 257.2500 361.7500 Du        
   5848 ****       125.0000 257.5000 361.2500 Du        
   5849 ****       125.0000 257.5000 361.5000 Du        
   5850 ****       125.0000 257.5000 361.7500 Du        
   5851 ****       125.2500 245.2500 355.0000 Du        
   5852 ****       125.2500 245.2500 355.2500 Du        
   5853 ****       125.2500 245.5000 354.7500 Du        
   5854 ****       125.2500 245.5000 355.0000 Du        
   5855 ****       125.2500 245.5000 355.2500 Du        
   5856 ****       125.2500 245.5000 355.5000 Du        
   5857 ****       125.2500 245.7500 354.5000 Du        
   5858 ****       125.2500 245.7500 354.7500 Du        
   5859 ****       125.2500 245.7500 355.0000 Du        
   5860 ****       125.2500 245.7500 355.2500 Du        
   5861 ****       125.2500 245.7500 355.5000 Du        
   5862 ****       125.2500 245.7500 355.7500 Du        
   5863 ****       125.2500 246.0000 354.2500 Du        
   5864 ****       125.2500 246.0000 354.5000 Du        
   5865 ****       125.2500 246.0000 354.7500 Du        
   5866 ****       125.2500 246.0000 355.0000 Du        
   5867 ****       125.2500 246.0000 355.2500 Du        
   5868 ****       125.2500 246.0000 355.5000 Du        
   5869 ****       125.2500 246.0000 355.7500 Du        
   5870 ****       125.2500 246.0000 356.0000 Du        
   5871 ****       125.2500 246.2500 354.2500 Du        
   5872 ****       125.2500 246.2500 354.5000 Du        
   5873 ****       125.2500 246.2500 354.7500 Du        
   5874 ****       125.2500 246.2500 355.0000 Du        
   5875 ****       125.2500 246.2500 355.2500 Du        
   5876 ****       125.2500 246.2500 355.5000 Du        
   5877 ****       125.2500 246.2500 355.7500 Du        
   5878 ****       125.2500 246.2500 356.0000 Du        
   5879 ****       125.2500 246.2500 356.2500 Du        
   5880 ****       125.2500 246.5000 354.2500 Du        
   5881 ****       125.2500 246.5000 354.5000 Du        
   5882 ****       125.2500 246.5000 354.7500 Du        
   5883 ****       125.2500 246.5000 355.0000 Du        
   5884 ****       125.2500 246.5000 355.2500 Du        
   5885 ****       125.2500 246.7500 354.2500 Du        
   5886 ****       125.2500 246.7500 354.5000 Du        
   5887 ****       125.2500 246.7500 354.7500 Du        
   5888 ****       125.2500 246.7500 355.0000 Du        
   5889 ****       125.2500 246.7500 355.2500 Du        
   5890 ****       125.2500 246.7500 355.5000 Du        
   5891 ****       125.2500 247.0000 354.2500 Du        
   5892 ****       125.2500 247.0000 354.5000 Du        
   5893 ****       125.2500 247.0000 354.7500 Du        
   5894 ****       125.2500 247.0000 355.0000 Du        
   5895 ****       125.2500 247.0000 355.2500 Du        
   5896 ****       125.2500 247.2500 354.2500 Du        
   5897 ****       125.2500 247.2500 354.5000 Du        
   5898 ****       125.2500 247.2500 354.7500 Du        
   5899 ****       125.2500 247.2500 355.0000 Du        
   5900 ****       125.2500 247.7500 354.2500 Du        
   5901 ****       125.2500 248.0000 354.2500 Du        
   5902 ****       125.2500 248.0000 354.5000 Du        
   5903 ****       125.2500 248.2500 354.2500 Du        
   5904 ****       125.2500 249.5000 359.7500 Du        
   5905 ****       125.2500 249.5000 360.0000 Du        
   5906 ****       125.2500 249.5000 360.2500 Du        
   5907 ****       125.2500 249.5000 360.5000 Du        
   5908 ****       125.2500 249.7500 359.7500 Du        
   5909 ****       125.2500 249.7500 360.0000 Du        
   5910 ****       125.2500 249.7500 360.2500 Du        
   5911 ****       125.2500 249.7500 360.5000 Du        
   5912 ****       125.2500 249.7500 360.7500 Du        
   5913 ****       125.2500 250.0000 359.7500 Du        
   5914 ****       125.2500 250.0000 360.0000 Du        
   5915 ****       125.2500 250.0000 360.2500 Du        
   5916 ****       125.2500 250.0000 360.5000 Du        
   5917 ****       125.2500 250.0000 360.7500 Du        
   5918 ****       125.2500 250.2500 359.7500 Du        
   5919 ****       125.2500 250.2500 360.0000 Du        
   5920 ****       125.2500 250.2500 360.2500 Du        
   5921 ****       125.2500 250.2500 360.5000 Du        
   5922 ****       125.2500 250.5000 360.0000 Du        
   5923 ****       125.2500 253.0000 355.2500 Du        
   5924 ****       125.2500 253.2500 355.2500 Du        
   5925 ****       125.2500 253.5000 355.2500 Du        
   5926 ****       125.2500 253.5000 355.5000 Du        
   5927 ****       125.2500 253.5000 355.7500 Du        
   5928 ****       125.2500 253.7500 355.2500 Du        
   5929 ****       125.2500 256.5000 360.7500 Du        
   5930 ****       125.2500 256.5000 361.0000 Du        
   5931 ****       125.2500 256.7500 360.5000 Du        
   5932 ****       125.2500 256.7500 360.7500 Du        
   5933 ****       125.2500 256.7500 361.0000 Du        
   5934 ****       125.2500 256.7500 361.2500 Du        
   5935 ****       125.2500 256.7500 361.5000 Du        
   5936 ****       125.2500 257.0000 360.5000 Du        
   5937 ****       125.2500 257.0000 360.7500 Du        
   5938 ****       125.2500 257.0000 361.0000 Du        
   5939 ****       125.2500 257.0000 361.2500 Du        
   5940 ****       125.2500 257.0000 361.5000 Du        
   5941 ****       125.2500 257.0000 361.7500 Du        
   5942 ****       125.2500 257.2500 360.7500 Du        
   5943 ****       125.2500 257.2500 361.0000 Du        
   5944 ****       125.2500 257.2500 361.2500 Du        
   5945 ****       125.2500 257.2500 361.5000 Du        
   5946 ****       125.2500 257.2500 361.7500 Du        
   5947 ****       125.2500 257.2500 362.0000 Du        
   5948 ****       125.2500 257.5000 360.7500 Du        
   5949 ****       125.2500 257.5000 361.0000 Du        
   5950 ****       125.2500 257.5000 361.2500 Du        
   5951 ****       125.2500 257.5000 361.5000 Du        
   5952 ****       125.2500 257.5000 361.7500 Du        
   5953 ****       125.2500 257.5000 362.0000 Du        
   5954 ****       125.5000 245.5000 354.7500 Du        
   5955 ****       125.5000 245.5000 355.0000 Du        
   5956 ****       125.5000 245.7500 354.2500 Du        
   5957 ****       125.5000 245.7500 354.5000 Du        
   5958 ****       125.5000 245.7500 354.7500 Du        
   5959 ****       125.5000 245.7500 355.0000 Du        
   5960 ****       125.5000 245.7500 355.2500 Du        
   5961 ****       125.5000 246.0000 354.2500 Du        
   5962 ****       125.5000 246.0000 354.5000 Du        
   5963 ****       125.5000 246.0000 354.7500 Du        
   5964 ****       125.5000 246.0000 355.0000 Du        
   5965 ****       125.5000 246.0000 355.2500 Du        
   5966 ****       125.5000 246.0000 355.5000 Du        
   5967 ****       125.5000 246.2500 354.2500 Du        
   5968 ****       125.5000 246.2500 354.5000 Du        
   5969 ****       125.5000 246.2500 354.7500 Du        
   5970 ****       125.5000 246.2500 355.0000 Du        
   5971 ****       125.5000 246.2500 355.2500 Du        
   5972 ****       125.5000 246.2500 355.5000 Du        
   5973 ****       125.5000 246.2500 355.7500 Du        
   5974 ****       125.5000 246.2500 356.0000 Du        
   5975 ****       125.5000 246.5000 354.2500 Du        
   5976 ****       125.5000 246.5000 354.5000 Du        
   5977 ****       125.5000 246.5000 354.7500 Du        
   5978 ****       125.5000 246.5000 355.0000 Du        
   5979 ****       125.5000 246.5000 355.2500 Du        
   5980 ****       125.5000 246.5000 355.5000 Du        
   5981 ****       125.5000 246.7500 354.2500 Du        
   5982 ****       125.5000 246.7500 354.5000 Du        
   5983 ****       125.5000 246.7500 354.7500 Du        
   5984 ****       125.5000 246.7500 355.0000 Du        
   5985 ****       125.5000 246.7500 355.2500 Du        
   5986 ****       125.5000 246.7500 355.5000 Du        
   5987 ****       125.5000 247.0000 354.2500 Du        
   5988 ****       125.5000 247.0000 354.5000 Du        
   5989 ****       125.5000 247.0000 354.7500 Du        
   5990 ****       125.5000 247.0000 355.0000 Du        
   5991 ****       125.5000 247.0000 355.2500 Du        
   5992 ****       125.5000 247.2500 354.2500 Du        
   5993 ****       125.5000 247.2500 354.5000 Du        
   5994 ****       125.5000 247.2500 354.7500 Du        
   5995 ****       125.5000 247.2500 355.0000 Du        
   5996 ****       125.5000 247.5000 354.2500 Du        
   5997 ****       125.5000 247.7500 354.2500 Du        
   5998 ****       125.5000 248.0000 354.2500 Du        
   5999 ****       125.5000 249.5000 359.7500 Du        
   6000 ****       125.5000 249.5000 360.0000 Du        
   6001 ****       125.5000 249.5000 360.2500 Du        
   6002 ****       125.5000 249.5000 360.5000 Du        
   6003 ****       125.5000 249.7500 359.7500 Du        
   6004 ****       125.5000 249.7500 360.0000 Du        
   6005 ****       125.5000 249.7500 360.2500 Du        
   6006 ****       125.5000 249.7500 360.5000 Du        
   6007 ****       125.5000 250.0000 359.7500 Du        
   6008 ****       125.5000 250.0000 360.0000 Du        
   6009 ****       125.5000 250.0000 360.2500 Du        
   6010 ****       125.5000 250.0000 360.5000 Du        
   6011 ****       125.5000 250.2500 359.7500 Du        
   6012 ****       125.5000 250.2500 360.0000 Du        
   6013 ****       125.5000 253.2500 355.2500 Du        
   6014 ****       125.5000 253.5000 355.2500 Du        
   6015 ****       125.5000 253.7500 355.2500 Du        
   6016 ****       125.5000 253.7500 355.7500 Du        
   6017 ****       125.5000 256.5000 360.5000 Du        
   6018 ****       125.5000 256.5000 360.7500 Du        
   6019 ****       125.5000 256.5000 361.0000 Du        
   6020 ****       125.5000 256.7500 360.2500 Du        
   6021 ****       125.5000 256.7500 360.5000 Du        
   6022 ****       125.5000 256.7500 360.7500 Du        
   6023 ****       125.5000 256.7500 361.0000 Du        
   6024 ****       125.5000 256.7500 361.2500 Du        
   6025 ****       125.5000 256.7500 361.5000 Du        
   6026 ****       125.5000 257.0000 360.2500 Du        
   6027 ****       125.5000 257.0000 360.5000 Du        
   6028 ****       125.5000 257.0000 360.7500 Du        
   6029 ****       125.5000 257.0000 361.0000 Du        
   6030 ****       125.5000 257.0000 361.2500 Du        
   6031 ****       125.5000 257.0000 361.5000 Du        
   6032 ****       125.5000 257.0000 361.7500 Du        
   6033 ****       125.5000 257.0000 362.0000 Du        
   6034 ****       125.5000 257.2500 360.5000 Du        
   6035 ****       125.5000 257.2500 360.7500 Du        
   6036 ****       125.5000 257.2500 361.0000 Du        
   6037 ****       125.5000 257.2500 361.2500 Du        
   6038 ****       125.5000 257.2500 361.5000 Du        
   6039 ****       125.5000 257.2500 361.7500 Du        
   6040 ****       125.5000 257.2500 362.0000 Du        
   6041 ****       125.5000 257.5000 360.5000 Du        
   6042 ****       125.5000 257.5000 360.7500 Du        
   6043 ****       125.5000 257.5000 361.0000 Du        
   6044 ****       125.5000 257.5000 361.2500 Du        
   6045 ****       125.5000 257.5000 361.5000 Du        
   6046 ****       125.5000 257.5000 361.7500 Du        
   6047 ****       125.5000 257.5000 362.0000 Du        
   6048 ****       125.7500 245.7500 354.2500 Du        
   6049 ****       125.7500 245.7500 354.5000 Du        
   6050 ****       125.7500 245.7500 354.7500 Du        
   6051 ****       125.7500 245.7500 355.0000 Du        
   6052 ****       125.7500 246.0000 354.2500 Du        
   6053 ****       125.7500 246.0000 354.5000 Du        
   6054 ****       125.7500 246.0000 354.7500 Du        
   6055 ****       125.7500 246.0000 355.0000 Du        
   6056 ****       125.7500 246.0000 355.2500 Du        
   6057 ****       125.7500 246.2500 354.0000 Du        
   6058 ****       125.7500 246.2500 354.2500 Du        
   6059 ****       125.7500 246.2500 354.5000 Du        
   6060 ****       125.7500 246.2500 354.7500 Du        
   6061 ****       125.7500 246.2500 355.0000 Du        
   6062 ****       125.7500 246.2500 355.2500 Du        
   6063 ****       125.7500 246.5000 354.2500 Du        
   6064 ****       125.7500 246.5000 354.5000 Du        
   6065 ****       125.7500 246.5000 354.7500 Du        
   6066 ****       125.7500 246.5000 355.0000 Du        
   6067 ****       125.7500 246.5000 355.2500 Du        
   6068 ****       125.7500 246.7500 354.2500 Du        
   6069 ****       125.7500 246.7500 354.5000 Du        
   6070 ****       125.7500 246.7500 354.7500 Du        
   6071 ****       125.7500 246.7500 355.0000 Du        
   6072 ****       125.7500 246.7500 355.2500 Du        
   6073 ****       125.7500 247.0000 354.2500 Du        
   6074 ****       125.7500 247.0000 354.5000 Du        
   6075 ****       125.7500 247.0000 354.7500 Du        
   6076 ****       125.7500 247.0000 355.0000 Du        
   6077 ****       125.7500 247.0000 355.2500 Du        
   6078 ****       125.7500 247.2500 354.2500 Du        
   6079 ****       125.7500 247.2500 354.5000 Du        
   6080 ****       125.7500 247.2500 354.7500 Du        
   6081 ****       125.7500 247.2500 355.0000 Du        
   6082 ****       125.7500 247.2500 355.2500 Du        
   6083 ****       125.7500 247.5000 354.2500 Du        
   6084 ****       125.7500 247.7500 354.0000 Du        
   6085 ****       125.7500 247.7500 354.2500 Du        
   6086 ****       125.7500 248.0000 354.2500 Du        
   6087 ****       125.7500 249.5000 359.7500 Du        
   6088 ****       125.7500 249.5000 360.0000 Du        
   6089 ****       125.7500 249.7500 359.7500 Du        
   6090 ****       125.7500 249.7500 360.0000 Du        
   6091 ****       125.7500 250.0000 359.7500 Du        
   6092 ****       125.7500 250.0000 360.0000 Du        
   6093 ****       125.7500 253.2500 355.2500 Du        
   6094 ****       125.7500 253.5000 355.2500 Du        
   6095 ****       125.7500 253.7500 355.2500 Du        
   6096 ****       125.7500 253.7500 355.7500 Du        
   6097 ****       125.7500 256.2500 360.0000 Du        
   6098 ****       125.7500 256.2500 360.2500 Du        
   6099 ****       125.7500 256.5000 360.0000 Du        
   6100 ****       125.7500 256.5000 360.2500 Du        
   6101 ****       125.7500 256.5000 360.5000 Du        
   6102 ****       125.7500 256.5000 360.7500 Du        
   6103 ****       125.7500 256.5000 361.0000 Du        
   6104 ****       125.7500 256.7500 360.0000 Du        
   6105 ****       125.7500 256.7500 360.2500 Du        
   6106 ****       125.7500 256.7500 360.5000 Du        
   6107 ****       125.7500 256.7500 360.7500 Du        
   6108 ****       125.7500 256.7500 361.0000 Du        
   6109 ****       125.7500 256.7500 361.2500 Du        
   6110 ****       125.7500 256.7500 361.5000 Du        
   6111 ****       125.7500 257.0000 360.0000 Du        
   6112 ****       125.7500 257.0000 360.2500 Du        
   6113 ****       125.7500 257.0000 360.5000 Du        
   6114 ****       125.7500 257.0000 360.7500 Du        
   6115 ****       125.7500 257.0000 361.0000 Du        
   6116 ****       125.7500 257.0000 361.2500 Du        
   6117 ****       125.7500 257.0000 361.5000 Du        
   6118 ****       125.7500 257.0000 361.7500 Du        
   6119 ****       125.7500 257.0000 362.0000 Du        
   6120 ****       125.7500 257.2500 360.0000 Du        
   6121 ****       125.7500 257.2500 360.2500 Du        
   6122 ****       125.7500 257.2500 360.5000 Du        
   6123 ****       125.7500 257.2500 360.7500 Du        
   6124 ****       125.7500 257.2500 361.0000 Du        
   6125 ****       125.7500 257.2500 361.2500 Du        
   6126 ****       125.7500 257.2500 361.5000 Du        
   6127 ****       125.7500 257.2500 361.7500 Du        
   6128 ****       125.7500 257.2500 362.0000 Du        
   6129 ****       125.7500 257.2500 362.2500 Du        
   6130 ****       125.7500 257.5000 360.0000 Du        
   6131 ****       125.7500 257.5000 360.2500 Du        
   6132 ****       125.7500 257.5000 360.5000 Du        
   6133 ****       125.7500 257.5000 360.7500 Du        
   6134 ****       125.7500 257.5000 361.0000 Du        
   6135 ****       125.7500 257.5000 361.2500 Du        
   6136 ****       125.7500 257.5000 361.5000 Du        
   6137 ****       125.7500 257.5000 361.7500 Du        
   6138 ****       125.7500 257.5000 362.0000 Du        
   6139 ****       125.7500 257.5000 362.2500 Du        
   6140 ****       125.7500 257.7500 360.0000 Du        
   6141 ****       125.7500 257.7500 360.2500 Du        
   6142 ****       125.7500 260.2500 357.7500 Du        
   6143 ****       125.7500 260.5000 357.7500 Du        
   6144 ****       125.7500 260.5000 358.0000 Du        
   6145 ****       125.7500 260.7500 357.7500 Du        
   6146 ****       125.7500 260.7500 358.0000 Du        
   6147 ****       125.7500 260.7500 358.2500 Du        
   6148 ****       126.0000 245.7500 354.2500 Du        
   6149 ****       126.0000 245.7500 354.5000 Du        
   6150 ****       126.0000 246.0000 354.0000 Du        
   6151 ****       126.0000 246.0000 354.2500 Du        
   6152 ****       126.0000 246.0000 354.5000 Du        
   6153 ****       126.0000 246.0000 354.7500 Du        
   6154 ****       126.0000 246.2500 354.0000 Du        
   6155 ****       126.0000 246.2500 354.2500 Du        
   6156 ****       126.0000 246.2500 354.5000 Du        
   6157 ****       126.0000 246.2500 354.7500 Du        
   6158 ****       126.0000 246.2500 355.0000 Du        
   6159 ****       126.0000 246.5000 354.0000 Du        
   6160 ****       126.0000 246.5000 354.2500 Du        
   6161 ****       126.0000 246.5000 354.5000 Du        
   6162 ****       126.0000 246.5000 354.7500 Du        
   6163 ****       126.0000 246.5000 355.0000 Du        
   6164 ****       126.0000 246.5000 355.2500 Du        
   6165 ****       126.0000 246.7500 354.0000 Du        
   6166 ****       126.0000 246.7500 354.2500 Du        
   6167 ****       126.0000 246.7500 354.5000 Du        
   6168 ****       126.0000 246.7500 354.7500 Du        
   6169 ****       126.0000 246.7500 355.0000 Du        
   6170 ****       126.0000 246.7500 355.2500 Du        
   6171 ****       126.0000 247.0000 354.0000 Du        
   6172 ****       126.0000 247.0000 354.2500 Du        
   6173 ****       126.0000 247.0000 354.5000 Du        
   6174 ****       126.0000 247.0000 354.7500 Du        
   6175 ****       126.0000 247.0000 355.0000 Du        
   6176 ****       126.0000 247.0000 355.2500 Du        
   6177 ****       126.0000 247.2500 354.2500 Du        
   6178 ****       126.0000 247.2500 354.5000 Du        
   6179 ****       126.0000 247.2500 354.7500 Du        
   6180 ****       126.0000 247.2500 355.0000 Du        
   6181 ****       126.0000 247.2500 355.2500 Du        
   6182 ****       126.0000 247.5000 354.2500 Du        
   6183 ****       126.0000 248.0000 354.0000 Du        
   6184 ****       126.0000 248.0000 354.2500 Du        
   6185 ****       126.0000 253.5000 355.2500 Du        
   6186 ****       126.0000 256.2500 359.7500 Du        
   6187 ****       126.0000 256.2500 360.0000 Du        
   6188 ****       126.0000 256.2500 360.2500 Du        
   6189 ****       126.0000 256.5000 359.7500 Du        
   6190 ****       126.0000 256.5000 360.0000 Du        
   6191 ****       126.0000 256.5000 360.2500 Du        
   6192 ****       126.0000 256.5000 360.5000 Du        
   6193 ****       126.0000 256.5000 360.7500 Du        
   6194 ****       126.0000 256.5000 361.0000 Du        
   6195 ****       126.0000 256.7500 359.7500 Du        
   6196 ****       126.0000 256.7500 360.0000 Du        
   6197 ****       126.0000 256.7500 360.2500 Du        
   6198 ****       126.0000 256.7500 360.5000 Du        
   6199 ****       126.0000 256.7500 360.7500 Du        
   6200 ****       126.0000 256.7500 361.0000 Du        
   6201 ****       126.0000 256.7500 361.2500 Du        
   6202 ****       126.0000 256.7500 361.5000 Du        
   6203 ****       126.0000 257.0000 359.5000 Du        
   6204 ****       126.0000 257.0000 359.7500 Du        
   6205 ****       126.0000 257.0000 360.0000 Du        
   6206 ****       126.0000 257.0000 360.2500 Du        
   6207 ****       126.0000 257.0000 360.5000 Du        
   6208 ****       126.0000 257.0000 360.7500 Du        
   6209 ****       126.0000 257.0000 361.0000 Du        
   6210 ****       126.0000 257.0000 361.2500 Du        
   6211 ****       126.0000 257.0000 361.5000 Du        
   6212 ****       126.0000 257.0000 361.7500 Du        
   6213 ****       126.0000 257.0000 362.0000 Du        
   6214 ****       126.0000 257.2500 359.5000 Du        
   6215 ****       126.0000 257.2500 359.7500 Du        
   6216 ****       126.0000 257.2500 360.0000 Du        
   6217 ****       126.0000 257.2500 360.2500 Du        
   6218 ****       126.0000 257.2500 360.5000 Du        
   6219 ****       126.0000 257.2500 360.7500 Du        
   6220 ****       126.0000 257.2500 361.0000 Du        
   6221 ****       126.0000 257.2500 361.2500 Du        
   6222 ****       126.0000 257.2500 361.5000 Du        
   6223 ****       126.0000 257.2500 361.7500 Du        
   6224 ****       126.0000 257.2500 362.0000 Du        
   6225 ****       126.0000 257.2500 362.2500 Du        
   6226 ****       126.0000 257.5000 359.5000 Du        
   6227 ****       126.0000 257.5000 359.7500 Du        
   6228 ****       126.0000 257.5000 360.0000 Du        
   6229 ****       126.0000 257.5000 360.2500 Du        
   6230 ****       126.0000 257.5000 360.5000 Du        
   6231 ****       126.0000 257.5000 360.7500 Du        
   6232 ****       126.0000 257.5000 361.0000 Du        
   6233 ****       126.0000 257.5000 361.2500 Du        
   6234 ****       126.0000 257.5000 361.5000 Du        
   6235 ****       126.0000 257.5000 361.7500 Du        
   6236 ****       126.0000 257.5000 362.0000 Du        
   6237 ****       126.0000 257.5000 362.2500 Du        
   6238 ****       126.0000 257.5000 362.5000 Du        
   6239 ****       126.0000 257.7500 359.5000 Du        
   6240 ****       126.0000 257.7500 359.7500 Du        
   6241 ****       126.0000 257.7500 360.0000 Du        
   6242 ****       126.0000 257.7500 360.2500 Du        
   6243 ****       126.0000 258.0000 359.2500 Du        
   6244 ****       126.0000 258.0000 359.5000 Du        
   6245 ****       126.0000 258.0000 359.7500 Du        
   6246 ****       126.0000 258.0000 360.0000 Du        
   6247 ****       126.0000 258.2500 359.0000 Du        
   6248 ****       126.0000 258.2500 359.2500 Du        
   6249 ****       126.0000 258.2500 359.5000 Du        
   6250 ****       126.0000 258.5000 358.7500 Du        
   6251 ****       126.0000 258.5000 359.0000 Du        
   6252 ****       126.0000 258.7500 358.0000 Du        
   6253 ****       126.0000 258.7500 358.2500 Du        
   6254 ****       126.0000 258.7500 358.5000 Du        
   6255 ****       126.0000 258.7500 358.7500 Du        
   6256 ****       126.0000 258.7500 359.0000 Du        
   6257 ****       126.0000 259.0000 357.7500 Du        
   6258 ****       126.0000 259.0000 358.0000 Du        
   6259 ****       126.0000 259.0000 358.2500 Du        
   6260 ****       126.0000 259.0000 358.5000 Du        
   6261 ****       126.0000 259.0000 358.7500 Du        
   6262 ****       126.0000 259.0000 359.0000 Du        
   6263 ****       126.0000 259.2500 357.7500 Du        
   6264 ****       126.0000 259.2500 358.0000 Du        
   6265 ****       126.0000 259.2500 358.2500 Du        
   6266 ****       126.0000 259.2500 358.5000 Du        
   6267 ****       126.0000 259.2500 358.7500 Du        
   6268 ****       126.0000 259.5000 357.7500 Du        
   6269 ****       126.0000 259.5000 358.0000 Du        
   6270 ****       126.0000 259.5000 358.2500 Du        
   6271 ****       126.0000 259.5000 358.5000 Du        
   6272 ****       126.0000 259.5000 358.7500 Du        
   6273 ****       126.0000 259.7500 357.7500 Du        
   6274 ****       126.0000 259.7500 358.0000 Du        
   6275 ****       126.0000 259.7500 358.2500 Du        
   6276 ****       126.0000 259.7500 358.5000 Du        
   6277 ****       126.0000 259.7500 358.7500 Du        
   6278 ****       126.0000 260.0000 357.7500 Du        
   6279 ****       126.0000 260.0000 358.0000 Du        
   6280 ****       126.0000 260.0000 358.2500 Du        
   6281 ****       126.0000 260.0000 358.5000 Du        
   6282 ****       126.0000 260.2500 357.7500 Du        
   6283 ****       126.0000 260.2500 358.0000 Du        
   6284 ****       126.0000 260.2500 358.2500 Du        
   6285 ****       126.0000 260.2500 358.5000 Du        
   6286 ****       126.0000 260.5000 357.7500 Du        
   6287 ****       126.0000 260.5000 358.0000 Du        
   6288 ****       126.0000 260.5000 358.2500 Du        
   6289 ****       126.0000 260.5000 358.5000 Du        
   6290 ****       126.0000 260.7500 357.7500 Du        
   6291 ****       126.0000 260.7500 358.0000 Du        
   6292 ****       126.0000 260.7500 358.2500 Du        
   6293 ****       126.0000 260.7500 358.5000 Du        
   6294 ****       126.2500 246.0000 354.0000 Du        
   6295 ****       126.2500 246.0000 354.2500 Du        
   6296 ****       126.2500 246.0000 354.5000 Du        
   6297 ****       126.2500 246.2500 354.0000 Du        
   6298 ****       126.2500 246.2500 354.2500 Du        
   6299 ****       126.2500 246.2500 354.5000 Du        
   6300 ****       126.2500 246.2500 354.7500 Du        
   6301 ****       126.2500 246.5000 354.0000 Du        
   6302 ****       126.2500 246.5000 354.2500 Du        
   6303 ****       126.2500 246.5000 354.5000 Du        
   6304 ****       126.2500 246.5000 354.7500 Du        
   6305 ****       126.2500 246.5000 355.0000 Du        
   6306 ****       126.2500 246.7500 354.0000 Du        
   6307 ****       126.2500 246.7500 354.2500 Du        
   6308 ****       126.2500 246.7500 354.5000 Du        
   6309 ****       126.2500 246.7500 354.7500 Du        
   6310 ****       126.2500 246.7500 355.0000 Du        
   6311 ****       126.2500 246.7500 355.2500 Du        
   6312 ****       126.2500 247.0000 354.0000 Du        
   6313 ****       126.2500 247.0000 354.2500 Du        
   6314 ****       126.2500 247.0000 354.5000 Du        
   6315 ****       126.2500 247.0000 354.7500 Du        
   6316 ****       126.2500 247.0000 355.0000 Du        
   6317 ****       126.2500 247.0000 355.2500 Du        
   6318 ****       126.2500 247.2500 354.0000 Du        
   6319 ****       126.2500 247.2500 354.2500 Du        
   6320 ****       126.2500 247.2500 354.5000 Du        
   6321 ****       126.2500 247.2500 354.7500 Du        
   6322 ****       126.2500 247.2500 355.0000 Du        
   6323 ****       126.2500 253.5000 355.2500 Du        
   6324 ****       126.2500 256.2500 359.7500 Du        
   6325 ****       126.2500 256.2500 360.0000 Du        
   6326 ****       126.2500 256.2500 360.2500 Du        
   6327 ****       126.2500 256.5000 359.5000 Du        
   6328 ****       126.2500 256.5000 359.7500 Du        
   6329 ****       126.2500 256.5000 360.0000 Du        
   6330 ****       126.2500 256.5000 360.2500 Du        
   6331 ****       126.2500 256.5000 360.5000 Du        
   6332 ****       126.2500 256.5000 360.7500 Du        
   6333 ****       126.2500 256.7500 359.2500 Du        
   6334 ****       126.2500 256.7500 359.5000 Du        
   6335 ****       126.2500 256.7500 359.7500 Du        
   6336 ****       126.2500 256.7500 360.0000 Du        
   6337 ****       126.2500 256.7500 360.2500 Du        
   6338 ****       126.2500 256.7500 360.5000 Du        
   6339 ****       126.2500 256.7500 360.7500 Du        
   6340 ****       126.2500 256.7500 361.0000 Du        
   6341 ****       126.2500 256.7500 361.2500 Du        
   6342 ****       126.2500 256.7500 361.5000 Du        
   6343 ****       126.2500 257.0000 359.0000 Du        
   6344 ****       126.2500 257.0000 359.2500 Du        
   6345 ****       126.2500 257.0000 359.5000 Du        
   6346 ****       126.2500 257.0000 359.7500 Du        
   6347 ****       126.2500 257.0000 360.0000 Du        
   6348 ****       126.2500 257.0000 360.2500 Du        
   6349 ****       126.2500 257.0000 360.5000 Du        
   6350 ****       126.2500 257.0000 360.7500 Du        
   6351 ****       126.2500 257.0000 361.0000 Du        
   6352 ****       126.2500 257.0000 361.2500 Du        
   6353 ****       126.2500 257.0000 361.5000 Du        
   6354 ****       126.2500 257.0000 361.7500 Du        
   6355 ****       126.2500 257.0000 362.0000 Du        
   6356 ****       126.2500 257.2500 359.0000 Du        
   6357 ****       126.2500 257.2500 359.2500 Du        
   6358 ****       126.2500 257.2500 359.5000 Du        
   6359 ****       126.2500 257.2500 359.7500 Du        
   6360 ****       126.2500 257.2500 360.0000 Du        
   6361 ****       126.2500 257.2500 360.2500 Du        
   6362 ****       126.2500 257.2500 360.5000 Du        
   6363 ****       126.2500 257.2500 360.7500 Du        
   6364 ****       126.2500 257.2500 361.0000 Du        
   6365 ****       126.2500 257.2500 361.2500 Du        
   6366 ****       126.2500 257.2500 361.5000 Du        
   6367 ****       126.2500 257.2500 361.7500 Du        
   6368 ****       126.2500 257.2500 362.0000 Du        
   6369 ****       126.2500 257.2500 362.2500 Du        
   6370 ****       126.2500 257.5000 358.7500 Du        
   6371 ****       126.2500 257.5000 359.0000 Du        
   6372 ****       126.2500 257.5000 359.2500 Du        
   6373 ****       126.2500 257.5000 359.5000 Du        
   6374 ****       126.2500 257.5000 359.7500 Du        
   6375 ****       126.2500 257.5000 360.0000 Du        
   6376 ****       126.2500 257.5000 360.2500 Du        
   6377 ****       126.2500 257.5000 360.5000 Du        
   6378 ****       126.2500 257.5000 360.7500 Du        
   6379 ****       126.2500 257.5000 361.0000 Du        
   6380 ****       126.2500 257.5000 361.2500 Du        
   6381 ****       126.2500 257.5000 361.5000 Du        
   6382 ****       126.2500 257.5000 361.7500 Du        
   6383 ****       126.2500 257.5000 362.0000 Du        
   6384 ****       126.2500 257.5000 362.2500 Du        
   6385 ****       126.2500 257.5000 362.5000 Du        
   6386 ****       126.2500 257.5000 362.7500 Du        
   6387 ****       126.2500 257.7500 358.2500 Du        
   6388 ****       126.2500 257.7500 358.5000 Du        
   6389 ****       126.2500 257.7500 358.7500 Du        
   6390 ****       126.2500 257.7500 359.0000 Du        
   6391 ****       126.2500 257.7500 359.2500 Du        
   6392 ****       126.2500 257.7500 359.5000 Du        
   6393 ****       126.2500 257.7500 359.7500 Du        
   6394 ****       126.2500 257.7500 360.0000 Du        
   6395 ****       126.2500 257.7500 360.2500 Du        
   6396 ****       126.2500 257.7500 360.5000 Du        
   6397 ****       126.2500 257.7500 362.5000 Du        
   6398 ****       126.2500 257.7500 362.7500 Du        
   6399 ****       126.2500 258.0000 358.0000 Du        
   6400 ****       126.2500 258.0000 358.2500 Du        
   6401 ****       126.2500 258.0000 358.5000 Du        
   6402 ****       126.2500 258.0000 358.7500 Du        
   6403 ****       126.2500 258.0000 359.0000 Du        
   6404 ****       126.2500 258.0000 359.2500 Du        
   6405 ****       126.2500 258.0000 359.5000 Du        
   6406 ****       126.2500 258.0000 359.7500 Du        
   6407 ****       126.2500 258.0000 360.0000 Du        
   6408 ****       126.2500 258.2500 358.0000 Du        
   6409 ****       126.2500 258.2500 358.2500 Du        
   6410 ****       126.2500 258.2500 358.5000 Du        
   6411 ****       126.2500 258.2500 358.7500 Du        
   6412 ****       126.2500 258.2500 359.0000 Du        
   6413 ****       126.2500 258.2500 359.2500 Du        
   6414 ****       126.2500 258.2500 359.5000 Du        
   6415 ****       126.2500 258.2500 359.7500 Du        
   6416 ****       126.2500 258.5000 357.7500 Du        
   6417 ****       126.2500 258.5000 358.0000 Du        
   6418 ****       126.2500 258.5000 358.2500 Du        
   6419 ****       126.2500 258.5000 358.5000 Du        
   6420 ****       126.2500 258.5000 358.7500 Du        
   6421 ****       126.2500 258.5000 359.0000 Du        
   6422 ****       126.2500 258.5000 359.2500 Du        
   6423 ****       126.2500 258.5000 359.5000 Du        
   6424 ****       126.2500 258.7500 357.7500 Du        
   6425 ****       126.2500 258.7500 358.0000 Du        
   6426 ****       126.2500 258.7500 358.2500 Du        
   6427 ****       126.2500 258.7500 358.5000 Du        
   6428 ****       126.2500 258.7500 358.7500 Du        
   6429 ****       126.2500 258.7500 359.0000 Du        
   6430 ****       126.2500 258.7500 359.2500 Du        
   6431 ****       126.2500 259.0000 357.7500 Du        
   6432 ****       126.2500 259.0000 358.0000 Du        
   6433 ****       126.2500 259.0000 358.2500 Du        
   6434 ****       126.2500 259.0000 358.5000 Du        
   6435 ****       126.2500 259.0000 358.7500 Du        
   6436 ****       126.2500 259.0000 359.0000 Du        
   6437 ****       126.2500 259.2500 357.7500 Du        
   6438 ****       126.2500 259.2500 358.0000 Du        
   6439 ****       126.2500 259.2500 358.2500 Du        
   6440 ****       126.2500 259.2500 358.5000 Du        
   6441 ****       126.2500 259.2500 358.7500 Du        
   6442 ****       126.2500 259.2500 359.0000 Du        
   6443 ****       126.2500 259.5000 357.7500 Du        
   6444 ****       126.2500 259.5000 358.0000 Du        
   6445 ****       126.2500 259.5000 358.2500 Du        
   6446 ****       126.2500 259.5000 358.5000 Du        
   6447 ****       126.2500 259.5000 358.7500 Du        
   6448 ****       126.2500 259.5000 359.0000 Du        
   6449 ****       126.2500 259.7500 357.7500 Du        
   6450 ****       126.2500 259.7500 358.0000 Du        
   6451 ****       126.2500 259.7500 358.2500 Du        
   6452 ****       126.2500 259.7500 358.5000 Du        
   6453 ****       126.2500 259.7500 358.7500 Du        
   6454 ****       126.2500 260.0000 357.7500 Du        
   6455 ****       126.2500 260.0000 358.0000 Du        
   6456 ****       126.2500 260.0000 358.2500 Du        
   6457 ****       126.2500 260.0000 358.5000 Du        
   6458 ****       126.2500 260.0000 358.7500 Du        
   6459 ****       126.2500 260.2500 357.7500 Du        
   6460 ****       126.2500 260.2500 358.0000 Du        
   6461 ****       126.2500 260.2500 358.2500 Du        
   6462 ****       126.2500 260.2500 358.5000 Du        
   6463 ****       126.2500 260.2500 358.7500 Du        
   6464 ****       126.2500 260.5000 357.7500 Du        
   6465 ****       126.2500 260.5000 358.0000 Du        
   6466 ****       126.2500 260.5000 358.2500 Du        
   6467 ****       126.2500 260.5000 358.5000 Du        
   6468 ****       126.2500 260.5000 358.7500 Du        
   6469 ****       126.2500 260.7500 357.7500 Du        
   6470 ****       126.2500 260.7500 358.0000 Du        
   6471 ****       126.2500 260.7500 358.2500 Du        
   6472 ****       126.2500 260.7500 358.5000 Du        
   6473 ****       126.5000 246.0000 354.0000 Du        
   6474 ****       126.5000 246.2500 354.0000 Du        
   6475 ****       126.5000 246.2500 354.2500 Du        
   6476 ****       126.5000 246.5000 354.0000 Du        
   6477 ****       126.5000 246.5000 354.2500 Du        
   6478 ****       126.5000 246.7500 354.0000 Du        
   6479 ****       126.5000 246.7500 354.2500 Du        
   6480 ****       126.5000 246.7500 354.5000 Du        
   6481 ****       126.5000 246.7500 354.7500 Du        
   6482 ****       126.5000 247.0000 354.0000 Du        
   6483 ****       126.5000 247.0000 354.2500 Du        
   6484 ****       126.5000 247.0000 354.5000 Du        
   6485 ****       126.5000 247.0000 354.7500 Du        
   6486 ****       126.5000 247.0000 355.0000 Du        
   6487 ****       126.5000 247.2500 354.2500 Du        
   6488 ****       126.5000 247.2500 354.7500 Du        
   6489 ****       126.5000 247.2500 355.0000 Du        
   6490 ****       126.5000 256.5000 359.5000 Du        
   6491 ****       126.5000 256.5000 359.7500 Du        
   6492 ****       126.5000 256.5000 360.0000 Du        
   6493 ****       126.5000 256.5000 360.2500 Du        
   6494 ****       126.5000 256.5000 360.5000 Du        
   6495 ****       126.5000 256.5000 360.7500 Du        
   6496 ****       126.5000 256.7500 359.2500 Du        
   6497 ****       126.5000 256.7500 359.5000 Du        
   6498 ****       126.5000 256.7500 359.7500 Du        
   6499 ****       126.5000 256.7500 360.0000 Du        
   6500 ****       126.5000 256.7500 360.2500 Du        
   6501 ****       126.5000 256.7500 360.5000 Du        
   6502 ****       126.5000 256.7500 360.7500 Du        
   6503 ****       126.5000 256.7500 361.0000 Du        
   6504 ****       126.5000 256.7500 361.2500 Du        
   6505 ****       126.5000 257.0000 359.0000 Du        
   6506 ****       126.5000 257.0000 359.2500 Du        
   6507 ****       126.5000 257.0000 359.5000 Du        
   6508 ****       126.5000 257.0000 359.7500 Du        
   6509 ****       126.5000 257.0000 360.0000 Du        
   6510 ****       126.5000 257.0000 360.2500 Du        
   6511 ****       126.5000 257.0000 360.5000 Du        
   6512 ****       126.5000 257.0000 360.7500 Du        
   6513 ****       126.5000 257.0000 361.0000 Du        
   6514 ****       126.5000 257.0000 361.2500 Du        
   6515 ****       126.5000 257.0000 361.5000 Du        
   6516 ****       126.5000 257.0000 361.7500 Du        
   6517 ****       126.5000 257.2500 359.0000 Du        
   6518 ****       126.5000 257.2500 359.2500 Du        
   6519 ****       126.5000 257.2500 359.5000 Du        
   6520 ****       126.5000 257.2500 359.7500 Du        
   6521 ****       126.5000 257.2500 360.0000 Du        
   6522 ****       126.5000 257.2500 360.2500 Du        
   6523 ****       126.5000 257.2500 360.5000 Du        
   6524 ****       126.5000 257.2500 360.7500 Du        
   6525 ****       126.5000 257.2500 361.0000 Du        
   6526 ****       126.5000 257.2500 361.2500 Du        
   6527 ****       126.5000 257.2500 361.5000 Du        
   6528 ****       126.5000 257.2500 361.7500 Du        
   6529 ****       126.5000 257.2500 362.0000 Du        
   6530 ****       126.5000 257.2500 362.2500 Du        
   6531 ****       126.5000 257.5000 358.2500 Du        
   6532 ****       126.5000 257.5000 358.5000 Du        
   6533 ****       126.5000 257.5000 358.7500 Du        
   6534 ****       126.5000 257.5000 359.0000 Du        
   6535 ****       126.5000 257.5000 359.2500 Du        
   6536 ****       126.5000 257.5000 359.5000 Du        
   6537 ****       126.5000 257.5000 359.7500 Du        
   6538 ****       126.5000 257.5000 360.0000 Du        
   6539 ****       126.5000 257.5000 360.2500 Du        
   6540 ****       126.5000 257.5000 360.5000 Du        
   6541 ****       126.5000 257.5000 360.7500 Du        
   6542 ****       126.5000 257.5000 361.0000 Du        
   6543 ****       126.5000 257.5000 361.2500 Du        
   6544 ****       126.5000 257.5000 361.5000 Du        
   6545 ****       126.5000 257.5000 361.7500 Du        
   6546 ****       126.5000 257.5000 362.0000 Du        
   6547 ****       126.5000 257.5000 362.2500 Du        
   6548 ****       126.5000 257.5000 362.5000 Du        
   6549 ****       126.5000 257.5000 362.7500 Du        
   6550 ****       126.5000 257.7500 358.0000 Du        
   6551 ****       126.5000 257.7500 358.2500 Du        
   6552 ****       126.5000 257.7500 358.5000 Du        
   6553 ****       126.5000 257.7500 358.7500 Du        
   6554 ****       126.5000 257.7500 359.0000 Du        
   6555 ****       126.5000 257.7500 359.2500 Du        
   6556 ****       126.5000 257.7500 359.5000 Du        
   6557 ****       126.5000 257.7500 359.7500 Du        
   6558 ****       126.5000 257.7500 360.0000 Du        
   6559 ****       126.5000 257.7500 360.2500 Du        
   6560 ****       126.5000 257.7500 360.5000 Du        
   6561 ****       126.5000 257.7500 360.7500 Du        
   6562 ****       126.5000 257.7500 362.7500 Du        
   6563 ****       126.5000 257.7500 363.0000 Du        
   6564 ****       126.5000 258.0000 358.0000 Du        
   6565 ****       126.5000 258.0000 358.2500 Du        
   6566 ****       126.5000 258.0000 358.5000 Du        
   6567 ****       126.5000 258.0000 358.7500 Du        
   6568 ****       126.5000 258.0000 359.0000 Du        
   6569 ****       126.5000 258.0000 359.2500 Du        
   6570 ****       126.5000 258.0000 359.5000 Du        
   6571 ****       126.5000 258.0000 359.7500 Du        
   6572 ****       126.5000 258.0000 360.0000 Du        
   6573 ****       126.5000 258.2500 357.7500 Du        
   6574 ****       126.5000 258.2500 358.0000 Du        
   6575 ****       126.5000 258.2500 358.2500 Du        
   6576 ****       126.5000 258.2500 358.5000 Du        
   6577 ****       126.5000 258.2500 358.7500 Du        
   6578 ****       126.5000 258.2500 359.0000 Du        
   6579 ****       126.5000 258.2500 359.2500 Du        
   6580 ****       126.5000 258.2500 359.5000 Du        
   6581 ****       126.5000 258.2500 359.7500 Du        
   6582 ****       126.5000 258.5000 357.7500 Du        
   6583 ****       126.5000 258.5000 358.0000 Du        
   6584 ****       126.5000 258.5000 358.2500 Du        
   6585 ****       126.5000 258.5000 358.5000 Du        
   6586 ****       126.5000 258.5000 358.7500 Du        
   6587 ****       126.5000 258.5000 359.0000 Du        
   6588 ****       126.5000 258.5000 359.2500 Du        
   6589 ****       126.5000 258.5000 359.5000 Du        
   6590 ****       126.5000 258.7500 357.7500 Du        
   6591 ****       126.5000 258.7500 358.0000 Du        
   6592 ****       126.5000 258.7500 358.2500 Du        
   6593 ****       126.5000 258.7500 358.5000 Du        
   6594 ****       126.5000 258.7500 358.7500 Du        
   6595 ****       126.5000 258.7500 359.0000 Du        
   6596 ****       126.5000 258.7500 359.2500 Du        
   6597 ****       126.5000 259.0000 357.7500 Du        
   6598 ****       126.5000 259.0000 358.0000 Du        
   6599 ****       126.5000 259.0000 358.2500 Du        
   6600 ****       126.5000 259.0000 358.5000 Du        
   6601 ****       126.5000 259.0000 358.7500 Du        
   6602 ****       126.5000 259.0000 359.0000 Du        
   6603 ****       126.5000 259.2500 357.7500 Du        
   6604 ****       126.5000 259.2500 358.0000 Du        
   6605 ****       126.5000 259.2500 358.2500 Du        
   6606 ****       126.5000 259.2500 358.5000 Du        
   6607 ****       126.5000 259.2500 358.7500 Du        
   6608 ****       126.5000 259.2500 359.0000 Du        
   6609 ****       126.5000 259.5000 357.7500 Du        
   6610 ****       126.5000 259.5000 358.0000 Du        
   6611 ****       126.5000 259.5000 358.2500 Du        
   6612 ****       126.5000 259.5000 358.5000 Du        
   6613 ****       126.5000 259.5000 358.7500 Du        
   6614 ****       126.5000 259.5000 359.0000 Du        
   6615 ****       126.5000 259.7500 357.7500 Du        
   6616 ****       126.5000 259.7500 358.0000 Du        
   6617 ****       126.5000 259.7500 358.2500 Du        
   6618 ****       126.5000 259.7500 358.5000 Du        
   6619 ****       126.5000 259.7500 358.7500 Du        
   6620 ****       126.5000 260.0000 357.7500 Du        
   6621 ****       126.5000 260.0000 358.0000 Du        
   6622 ****       126.5000 260.0000 358.2500 Du        
   6623 ****       126.5000 260.0000 358.5000 Du        
   6624 ****       126.5000 260.0000 358.7500 Du        
   6625 ****       126.5000 260.2500 357.7500 Du        
   6626 ****       126.5000 260.2500 358.0000 Du        
   6627 ****       126.5000 260.2500 358.2500 Du        
   6628 ****       126.5000 260.2500 358.5000 Du        
   6629 ****       126.5000 260.2500 358.7500 Du        
   6630 ****       126.5000 260.5000 357.7500 Du        
   6631 ****       126.5000 260.5000 358.0000 Du        
   6632 ****       126.5000 260.5000 358.2500 Du        
   6633 ****       126.5000 260.5000 358.5000 Du        
   6634 ****       126.5000 260.7500 357.7500 Du        
   6635 ****       126.5000 260.7500 358.0000 Du        
   6636 ****       126.5000 260.7500 358.2500 Du        
   6637 ****       126.5000 260.7500 358.5000 Du        
   6638 ****       126.7500 246.2500 354.0000 Du        
   6639 ****       126.7500 246.5000 354.0000 Du        
   6640 ****       126.7500 246.5000 354.2500 Du        
   6641 ****       126.7500 246.7500 354.0000 Du        
   6642 ****       126.7500 246.7500 354.2500 Du        
   6643 ****       126.7500 247.0000 354.0000 Du        
   6644 ****       126.7500 247.0000 354.2500 Du        
   6645 ****       126.7500 247.0000 354.5000 Du        
   6646 ****       126.7500 247.0000 354.7500 Du        
   6647 ****       126.7500 247.2500 354.0000 Du        
   6648 ****       126.7500 247.2500 354.2500 Du        
   6649 ****       126.7500 247.2500 354.5000 Du        
   6650 ****       126.7500 247.2500 354.7500 Du        
   6651 ****       126.7500 256.5000 359.5000 Du        
   6652 ****       126.7500 256.5000 359.7500 Du        
   6653 ****       126.7500 256.5000 360.0000 Du        
   6654 ****       126.7500 256.5000 360.5000 Du        
   6655 ****       126.7500 256.7500 359.0000 Du        
   6656 ****       126.7500 256.7500 359.2500 Du        
   6657 ****       126.7500 256.7500 359.5000 Du        
   6658 ****       126.7500 256.7500 359.7500 Du        
   6659 ****       126.7500 256.7500 360.0000 Du        
   6660 ****       126.7500 256.7500 360.2500 Du        
   6661 ****       126.7500 256.7500 360.5000 Du        
   6662 ****       126.7500 256.7500 360.7500 Du        
   6663 ****       126.7500 256.7500 361.0000 Du        
   6664 ****       126.7500 257.0000 359.0000 Du        
   6665 ****       126.7500 257.0000 359.2500 Du        
   6666 ****       126.7500 257.0000 359.5000 Du        
   6667 ****       126.7500 257.0000 359.7500 Du        
   6668 ****       126.7500 257.0000 360.0000 Du        
   6669 ****       126.7500 257.0000 360.2500 Du        
   6670 ****       126.7500 257.0000 360.5000 Du        
   6671 ****       126.7500 257.0000 360.7500 Du        
   6672 ****       126.7500 257.0000 361.0000 Du        
   6673 ****       126.7500 257.0000 361.2500 Du        
   6674 ****       126.7500 257.2500 358.7500 Du        
   6675 ****       126.7500 257.2500 359.0000 Du        
   6676 ****       126.7500 257.2500 359.2500 Du        
   6677 ****       126.7500 257.2500 359.5000 Du        
   6678 ****       126.7500 257.2500 359.7500 Du        
   6679 ****       126.7500 257.2500 360.0000 Du        
   6680 ****       126.7500 257.2500 360.2500 Du        
   6681 ****       126.7500 257.2500 360.5000 Du        
   6682 ****       126.7500 257.2500 360.7500 Du        
   6683 ****       126.7500 257.2500 361.0000 Du        
   6684 ****       126.7500 257.2500 361.2500 Du        
   6685 ****       126.7500 257.5000 358.2500 Du        
   6686 ****       126.7500 257.5000 358.5000 Du        
   6687 ****       126.7500 257.5000 358.7500 Du        
   6688 ****       126.7500 257.5000 359.0000 Du        
   6689 ****       126.7500 257.5000 359.2500 Du        
   6690 ****       126.7500 257.5000 359.5000 Du        
   6691 ****       126.7500 257.5000 359.7500 Du        
   6692 ****       126.7500 257.5000 360.0000 Du        
   6693 ****       126.7500 257.5000 360.2500 Du        
   6694 ****       126.7500 257.5000 360.5000 Du        
   6695 ****       126.7500 257.5000 360.7500 Du        
   6696 ****       126.7500 257.5000 361.0000 Du        
   6697 ****       126.7500 257.7500 358.0000 Du        
   6698 ****       126.7500 257.7500 358.2500 Du        
   6699 ****       126.7500 257.7500 358.5000 Du        
   6700 ****       126.7500 257.7500 358.7500 Du        
   6701 ****       126.7500 257.7500 359.0000 Du        
   6702 ****       126.7500 257.7500 359.2500 Du        
   6703 ****       126.7500 257.7500 359.5000 Du        
   6704 ****       126.7500 257.7500 359.7500 Du        
   6705 ****       126.7500 257.7500 360.0000 Du        
   6706 ****       126.7500 257.7500 360.2500 Du        
   6707 ****       126.7500 257.7500 360.5000 Du        
   6708 ****       126.7500 257.7500 360.7500 Du        
   6709 ****       126.7500 258.0000 357.7500 Du        
   6710 ****       126.7500 258.0000 358.0000 Du        
   6711 ****       126.7500 258.0000 358.2500 Du        
   6712 ****       126.7500 258.0000 358.5000 Du        
   6713 ****       126.7500 258.0000 358.7500 Du        
   6714 ****       126.7500 258.0000 359.0000 Du        
   6715 ****       126.7500 258.0000 359.2500 Du        
   6716 ****       126.7500 258.0000 359.5000 Du        
   6717 ****       126.7500 258.0000 359.7500 Du        
   6718 ****       126.7500 258.0000 360.0000 Du        
   6719 ****       126.7500 258.0000 360.2500 Du        
   6720 ****       126.7500 258.2500 357.7500 Du        
   6721 ****       126.7500 258.2500 358.0000 Du        
   6722 ****       126.7500 258.2500 358.2500 Du        
   6723 ****       126.7500 258.2500 358.5000 Du        
   6724 ****       126.7500 258.2500 358.7500 Du        
   6725 ****       126.7500 258.2500 359.0000 Du        
   6726 ****       126.7500 258.2500 359.2500 Du        
   6727 ****       126.7500 258.2500 359.5000 Du        
   6728 ****       126.7500 258.2500 359.7500 Du        
   6729 ****       126.7500 258.2500 360.0000 Du        
   6730 ****       126.7500 258.5000 357.7500 Du        
   6731 ****       126.7500 258.5000 358.0000 Du        
   6732 ****       126.7500 258.5000 358.2500 Du        
   6733 ****       126.7500 258.5000 358.5000 Du        
   6734 ****       126.7500 258.5000 358.7500 Du        
   6735 ****       126.7500 258.5000 359.0000 Du        
   6736 ****       126.7500 258.5000 359.2500 Du        
   6737 ****       126.7500 258.5000 359.5000 Du        
   6738 ****       126.7500 258.7500 357.7500 Du        
   6739 ****       126.7500 258.7500 358.0000 Du        
   6740 ****       126.7500 258.7500 358.2500 Du        
   6741 ****       126.7500 258.7500 358.5000 Du        
   6742 ****       126.7500 258.7500 358.7500 Du        
   6743 ****       126.7500 258.7500 359.0000 Du        
   6744 ****       126.7500 258.7500 359.2500 Du        
   6745 ****       126.7500 258.7500 359.5000 Du        
   6746 ****       126.7500 259.0000 357.7500 Du        
   6747 ****       126.7500 259.0000 358.0000 Du        
   6748 ****       126.7500 259.0000 358.2500 Du        
   6749 ****       126.7500 259.0000 358.5000 Du        
   6750 ****       126.7500 259.0000 358.7500 Du        
   6751 ****       126.7500 259.0000 359.0000 Du        
   6752 ****       126.7500 259.0000 359.2500 Du        
   6753 ****       126.7500 259.2500 357.7500 Du        
   6754 ****       126.7500 259.2500 358.0000 Du        
   6755 ****       126.7500 259.2500 358.2500 Du        
   6756 ****       126.7500 259.2500 358.5000 Du        
   6757 ****       126.7500 259.2500 358.7500 Du        
   6758 ****       126.7500 259.2500 359.0000 Du        
   6759 ****       126.7500 259.5000 357.7500 Du        
   6760 ****       126.7500 259.5000 358.0000 Du        
   6761 ****       126.7500 259.5000 358.2500 Du        
   6762 ****       126.7500 259.5000 358.5000 Du        
   6763 ****       126.7500 259.5000 358.7500 Du        
   6764 ****       126.7500 259.5000 359.0000 Du        
   6765 ****       126.7500 259.7500 357.7500 Du        
   6766 ****       126.7500 259.7500 358.0000 Du        
   6767 ****       126.7500 259.7500 358.2500 Du        
   6768 ****       126.7500 259.7500 358.5000 Du        
   6769 ****       126.7500 259.7500 358.7500 Du        
   6770 ****       126.7500 259.7500 359.0000 Du        
   6771 ****       126.7500 260.0000 357.7500 Du        
   6772 ****       126.7500 260.0000 358.0000 Du        
   6773 ****       126.7500 260.0000 358.2500 Du        
   6774 ****       126.7500 260.0000 358.5000 Du        
   6775 ****       126.7500 260.0000 358.7500 Du        
   6776 ****       126.7500 260.2500 357.7500 Du        
   6777 ****       126.7500 260.2500 358.0000 Du        
   6778 ****       126.7500 260.2500 358.2500 Du        
   6779 ****       126.7500 260.2500 358.5000 Du        
   6780 ****       126.7500 260.2500 358.7500 Du        
   6781 ****       126.7500 260.5000 357.7500 Du        
   6782 ****       126.7500 260.5000 358.0000 Du        
   6783 ****       126.7500 260.5000 358.2500 Du        
   6784 ****       126.7500 260.5000 358.5000 Du        
   6785 ****       126.7500 260.7500 357.7500 Du        
   6786 ****       126.7500 260.7500 358.0000 Du        
   6787 ****       126.7500 260.7500 358.2500 Du        
   6788 ****       126.7500 260.7500 358.5000 Du        
   6789 ****       127.0000 246.5000 354.0000 Du        
   6790 ****       127.0000 246.7500 354.0000 Du        
   6791 ****       127.0000 246.7500 354.2500 Du        
   6792 ****       127.0000 247.0000 353.7500 Du        
   6793 ****       127.0000 247.0000 354.0000 Du        
   6794 ****       127.0000 247.0000 354.2500 Du        
   6795 ****       127.0000 247.0000 354.5000 Du        
   6796 ****       127.0000 247.2500 354.0000 Du        
   6797 ****       127.0000 247.2500 354.2500 Du        
   6798 ****       127.0000 247.2500 354.5000 Du        
   6799 ****       127.0000 256.7500 359.2500 Du        
   6800 ****       127.0000 256.7500 359.5000 Du        
   6801 ****       127.0000 256.7500 359.7500 Du        
   6802 ****       127.0000 256.7500 360.0000 Du        
   6803 ****       127.0000 257.0000 358.7500 Du        
   6804 ****       127.0000 257.0000 359.0000 Du        
   6805 ****       127.0000 257.0000 359.2500 Du        
   6806 ****       127.0000 257.0000 359.5000 Du        
   6807 ****       127.0000 257.0000 359.7500 Du        
   6808 ****       127.0000 257.0000 360.0000 Du        
   6809 ****       127.0000 257.0000 360.2500 Du        
   6810 ****       127.0000 257.0000 360.5000 Du        
   6811 ****       127.0000 257.2500 358.7500 Du        
   6812 ****       127.0000 257.2500 359.0000 Du        
   6813 ****       127.0000 257.2500 359.2500 Du        
   6814 ****       127.0000 257.2500 359.5000 Du        
   6815 ****       127.0000 257.2500 359.7500 Du        
   6816 ****       127.0000 257.2500 360.0000 Du        
   6817 ****       127.0000 257.2500 360.2500 Du        
   6818 ****       127.0000 257.5000 358.5000 Du        
   6819 ****       127.0000 257.5000 358.7500 Du        
   6820 ****       127.0000 257.5000 359.0000 Du        
   6821 ****       127.0000 257.5000 359.2500 Du        
   6822 ****       127.0000 257.5000 359.5000 Du        
   6823 ****       127.0000 257.5000 359.7500 Du        
   6824 ****       127.0000 257.5000 360.0000 Du        
   6825 ****       127.0000 257.5000 360.2500 Du        
   6826 ****       127.0000 257.5000 360.5000 Du        
   6827 ****       127.0000 257.7500 358.0000 Du        
   6828 ****       127.0000 257.7500 358.2500 Du        
   6829 ****       127.0000 257.7500 358.5000 Du        
   6830 ****       127.0000 257.7500 358.7500 Du        
   6831 ****       127.0000 257.7500 359.0000 Du        
   6832 ****       127.0000 257.7500 359.2500 Du        
   6833 ****       127.0000 257.7500 359.5000 Du        
   6834 ****       127.0000 257.7500 359.7500 Du        
   6835 ****       127.0000 257.7500 360.0000 Du        
   6836 ****       127.0000 257.7500 360.2500 Du        
   6837 ****       127.0000 257.7500 360.5000 Du        
   6838 ****       127.0000 258.0000 357.7500 Du        
   6839 ****       127.0000 258.0000 358.0000 Du        
   6840 ****       127.0000 258.0000 358.2500 Du        
   6841 ****       127.0000 258.0000 358.5000 Du        
   6842 ****       127.0000 258.0000 358.7500 Du        
   6843 ****       127.0000 258.0000 359.0000 Du        
   6844 ****       127.0000 258.0000 359.2500 Du        
   6845 ****       127.0000 258.0000 359.5000 Du        
   6846 ****       127.0000 258.0000 359.7500 Du        
   6847 ****       127.0000 258.0000 360.0000 Du        
   6848 ****       127.0000 258.0000 360.2500 Du        
   6849 ****       127.0000 258.2500 357.7500 Du        
   6850 ****       127.0000 258.2500 358.0000 Du        
   6851 ****       127.0000 258.2500 358.2500 Du        
   6852 ****       127.0000 258.2500 358.5000 Du        
   6853 ****       127.0000 258.2500 358.7500 Du        
   6854 ****       127.0000 258.2500 359.0000 Du        
   6855 ****       127.0000 258.2500 359.2500 Du        
   6856 ****       127.0000 258.2500 359.5000 Du        
   6857 ****       127.0000 258.2500 359.7500 Du        
   6858 ****       127.0000 258.2500 360.0000 Du        
   6859 ****       127.0000 258.5000 357.7500 Du        
   6860 ****       127.0000 258.5000 358.0000 Du        
   6861 ****       127.0000 258.5000 358.2500 Du        
   6862 ****       127.0000 258.5000 358.5000 Du        
   6863 ****       127.0000 258.5000 358.7500 Du        
   6864 ****       127.0000 258.5000 359.0000 Du        
   6865 ****       127.0000 258.5000 359.2500 Du        
   6866 ****       127.0000 258.5000 359.5000 Du        
   6867 ****       127.0000 258.5000 359.7500 Du        
   6868 ****       127.0000 258.7500 357.7500 Du        
   6869 ****       127.0000 258.7500 358.0000 Du        
   6870 ****       127.0000 258.7500 358.2500 Du        
   6871 ****       127.0000 258.7500 358.5000 Du        
   6872 ****       127.0000 258.7500 358.7500 Du        
   6873 ****       127.0000 258.7500 359.0000 Du        
   6874 ****       127.0000 258.7500 359.2500 Du        
   6875 ****       127.0000 258.7500 359.5000 Du        
   6876 ****       127.0000 259.0000 357.7500 Du        
   6877 ****       127.0000 259.0000 358.0000 Du        
   6878 ****       127.0000 259.0000 358.2500 Du        
   6879 ****       127.0000 259.0000 358.5000 Du        
   6880 ****       127.0000 259.0000 358.7500 Du        
   6881 ****       127.0000 259.0000 359.0000 Du        
   6882 ****       127.0000 259.0000 359.2500 Du        
   6883 ****       127.0000 259.2500 357.7500 Du        
   6884 ****       127.0000 259.2500 358.0000 Du        
   6885 ****       127.0000 259.2500 358.2500 Du        
   6886 ****       127.0000 259.2500 358.5000 Du        
   6887 ****       127.0000 259.2500 358.7500 Du        
   6888 ****       127.0000 259.2500 359.0000 Du        
   6889 ****       127.0000 259.2500 359.2500 Du        
   6890 ****       127.0000 259.5000 357.7500 Du        
   6891 ****       127.0000 259.5000 358.0000 Du        
   6892 ****       127.0000 259.5000 358.2500 Du        
   6893 ****       127.0000 259.5000 358.5000 Du        
   6894 ****       127.0000 259.5000 358.7500 Du        
   6895 ****       127.0000 259.5000 359.0000 Du        
   6896 ****       127.0000 259.7500 357.7500 Du        
   6897 ****       127.0000 259.7500 358.0000 Du        
   6898 ****       127.0000 259.7500 358.2500 Du        
   6899 ****       127.0000 259.7500 358.5000 Du        
   6900 ****       127.0000 259.7500 358.7500 Du        
   6901 ****       127.0000 259.7500 359.0000 Du        
   6902 ****       127.0000 260.0000 357.7500 Du        
   6903 ****       127.0000 260.0000 358.0000 Du        
   6904 ****       127.0000 260.0000 358.2500 Du        
   6905 ****       127.0000 260.0000 358.5000 Du        
   6906 ****       127.0000 260.0000 358.7500 Du        
   6907 ****       127.0000 260.2500 357.7500 Du        
   6908 ****       127.0000 260.2500 358.0000 Du        
   6909 ****       127.0000 260.2500 358.2500 Du        
   6910 ****       127.0000 260.2500 358.5000 Du        
   6911 ****       127.0000 260.2500 358.7500 Du        
   6912 ****       127.0000 260.5000 357.7500 Du        
   6913 ****       127.0000 260.5000 358.0000 Du        
   6914 ****       127.0000 260.5000 358.2500 Du        
   6915 ****       127.0000 260.5000 358.5000 Du        
   6916 ****       127.0000 260.7500 357.7500 Du        
   6917 ****       127.0000 260.7500 358.0000 Du        
   6918 ****       127.0000 260.7500 358.2500 Du        
   6919 ****       127.0000 260.7500 358.5000 Du        
   6920 ****       127.2500 246.5000 353.7500 Du        
   6921 ****       127.2500 246.7500 353.7500 Du        
   6922 ****       127.2500 246.7500 354.0000 Du        
   6923 ****       127.2500 247.0000 353.7500 Du        
   6924 ****       127.2500 247.0000 354.0000 Du        
   6925 ****       127.2500 247.0000 354.2500 Du        
   6926 ****       127.2500 247.2500 353.7500 Du        
   6927 ****       127.2500 247.2500 354.0000 Du        
   6928 ****       127.2500 247.2500 354.2500 Du        
   6929 ****       127.2500 257.0000 359.7500 Du        
   6930 ****       127.2500 257.2500 359.2500 Du        
   6931 ****       127.2500 257.2500 359.5000 Du        
   6932 ****       127.2500 257.2500 359.7500 Du        
   6933 ****       127.2500 257.5000 358.7500 Du        
   6934 ****       127.2500 257.5000 359.0000 Du        
   6935 ****       127.2500 257.5000 359.2500 Du        
   6936 ****       127.2500 257.5000 359.5000 Du        
   6937 ****       127.2500 257.5000 359.7500 Du        
   6938 ****       127.2500 257.5000 360.0000 Du        
   6939 ****       127.2500 257.7500 358.5000 Du        
   6940 ****       127.2500 257.7500 358.7500 Du        
   6941 ****       127.2500 257.7500 359.0000 Du        
   6942 ****       127.2500 257.7500 359.2500 Du        
   6943 ****       127.2500 257.7500 359.5000 Du        
   6944 ****       127.2500 257.7500 359.7500 Du        
   6945 ****       127.2500 257.7500 360.0000 Du        
   6946 ****       127.2500 258.0000 358.5000 Du        
   6947 ****       127.2500 258.0000 358.7500 Du        
   6948 ****       127.2500 258.0000 359.0000 Du        
   6949 ****       127.2500 258.0000 359.2500 Du        
   6950 ****       127.2500 258.0000 359.5000 Du        
   6951 ****       127.2500 258.0000 359.7500 Du        
   6952 ****       127.2500 258.0000 360.0000 Du        
   6953 ****       127.2500 258.2500 358.2500 Du        
   6954 ****       127.2500 258.2500 358.5000 Du        
   6955 ****       127.2500 258.2500 358.7500 Du        
   6956 ****       127.2500 258.2500 359.0000 Du        
   6957 ****       127.2500 258.2500 359.2500 Du        
   6958 ****       127.2500 258.2500 359.5000 Du        
   6959 ****       127.2500 258.2500 359.7500 Du        
   6960 ****       127.2500 258.2500 360.0000 Du        
   6961 ****       127.2500 258.5000 357.7500 Du        
   6962 ****       127.2500 258.5000 358.0000 Du        
   6963 ****       127.2500 258.5000 358.2500 Du        
   6964 ****       127.2500 258.5000 358.5000 Du        
   6965 ****       127.2500 258.5000 358.7500 Du        
   6966 ****       127.2500 258.5000 359.0000 Du        
   6967 ****       127.2500 258.5000 359.2500 Du        
   6968 ****       127.2500 258.5000 359.5000 Du        
   6969 ****       127.2500 258.5000 359.7500 Du        
   6970 ****       127.2500 258.7500 357.7500 Du        
   6971 ****       127.2500 258.7500 358.0000 Du        
   6972 ****       127.2500 258.7500 358.2500 Du        
   6973 ****       127.2500 258.7500 358.5000 Du        
   6974 ****       127.2500 258.7500 358.7500 Du        
   6975 ****       127.2500 258.7500 359.0000 Du        
   6976 ****       127.2500 258.7500 359.2500 Du        
   6977 ****       127.2500 258.7500 359.5000 Du        
   6978 ****       127.2500 258.7500 359.7500 Du        
   6979 ****       127.2500 259.0000 357.7500 Du        
   6980 ****       127.2500 259.0000 358.0000 Du        
   6981 ****       127.2500 259.0000 358.2500 Du        
   6982 ****       127.2500 259.0000 358.5000 Du        
   6983 ****       127.2500 259.0000 358.7500 Du        
   6984 ****       127.2500 259.0000 359.0000 Du        
   6985 ****       127.2500 259.0000 359.2500 Du        
   6986 ****       127.2500 259.0000 359.5000 Du        
   6987 ****       127.2500 259.2500 357.7500 Du        
   6988 ****       127.2500 259.2500 358.0000 Du        
   6989 ****       127.2500 259.2500 358.2500 Du        
   6990 ****       127.2500 259.2500 358.5000 Du        
   6991 ****       127.2500 259.2500 358.7500 Du        
   6992 ****       127.2500 259.2500 359.0000 Du        
   6993 ****       127.2500 259.2500 359.2500 Du        
   6994 ****       127.2500 259.5000 357.7500 Du        
   6995 ****       127.2500 259.5000 358.0000 Du        
   6996 ****       127.2500 259.5000 358.2500 Du        
   6997 ****       127.2500 259.5000 358.5000 Du        
   6998 ****       127.2500 259.5000 358.7500 Du        
   6999 ****       127.2500 259.5000 359.0000 Du        
   7000 ****       127.2500 259.5000 359.2500 Du        
   7001 ****       127.2500 259.7500 357.7500 Du        
   7002 ****       127.2500 259.7500 358.0000 Du        
   7003 ****       127.2500 259.7500 358.2500 Du        
   7004 ****       127.2500 259.7500 358.5000 Du        
   7005 ****       127.2500 259.7500 358.7500 Du        
   7006 ****       127.2500 259.7500 359.0000 Du        
   7007 ****       127.2500 260.0000 357.7500 Du        
   7008 ****       127.2500 260.0000 358.0000 Du        
   7009 ****       127.2500 260.0000 358.2500 Du        
   7010 ****       127.2500 260.0000 358.5000 Du        
   7011 ****       127.2500 260.0000 358.7500 Du        
   7012 ****       127.2500 260.2500 357.7500 Du        
   7013 ****       127.2500 260.2500 358.0000 Du        
   7014 ****       127.2500 260.2500 358.2500 Du        
   7015 ****       127.2500 260.2500 358.5000 Du        
   7016 ****       127.2500 260.2500 358.7500 Du        
   7017 ****       127.2500 260.5000 357.7500 Du        
   7018 ****       127.2500 260.5000 358.0000 Du        
   7019 ****       127.2500 260.5000 358.2500 Du        
   7020 ****       127.2500 260.7500 357.7500 Du        
   7021 ****       127.2500 260.7500 358.0000 Du        
   7022 ****       127.2500 260.7500 358.2500 Du        
   7023 ****       127.5000 246.7500 353.7500 Du        
   7024 ****       127.5000 246.7500 354.0000 Du        
   7025 ****       127.5000 247.0000 353.7500 Du        
   7026 ****       127.5000 247.0000 354.0000 Du        
   7027 ****       127.5000 247.0000 354.2500 Du        
   7028 ****       127.5000 247.2500 353.7500 Du        
   7029 ****       127.5000 247.2500 354.0000 Du        
   7030 ****       127.5000 247.2500 354.2500 Du        
   7031 ****       127.5000 258.0000 359.0000 Du        
   7032 ****       127.5000 258.0000 359.2500 Du        
   7033 ****       127.5000 258.2500 358.7500 Du        
   7034 ****       127.5000 258.2500 359.0000 Du        
   7035 ****       127.5000 258.2500 359.2500 Du        
   7036 ****       127.5000 258.5000 359.0000 Du        
   7037 ****       127.5000 258.5000 359.2500 Du        
   7038 ****       127.5000 258.7500 358.7500 Du        
   7039 ****       127.5000 258.7500 359.0000 Du        
   7040 ****       127.5000 258.7500 359.2500 Du        
   7041 ****       127.5000 259.0000 358.2500 Du        
   7042 ****       127.5000 259.0000 358.7500 Du        
   7043 ****       127.5000 259.0000 359.0000 Du        
   7044 ****       127.5000 259.0000 359.2500 Du        
   7045 ****       127.5000 259.2500 358.0000 Du        
   7046 ****       127.5000 259.2500 358.2500 Du        
   7047 ****       127.5000 259.2500 358.5000 Du        
   7048 ****       127.5000 259.2500 358.7500 Du        
   7049 ****       127.5000 259.2500 359.0000 Du        
   7050 ****       127.5000 259.5000 358.2500 Du        
   7051 ****       127.5000 259.5000 358.5000 Du        
   7052 ****       127.5000 259.5000 358.7500 Du        
   7053 ****       127.5000 259.5000 359.0000 Du        
   7054 ****       127.5000 259.7500 358.0000 Du        
   7055 ****       127.5000 259.7500 358.2500 Du        
   7056 ****       127.5000 259.7500 358.5000 Du        
   7057 ****       127.5000 259.7500 358.7500 Du        
   7058 ****       127.5000 260.0000 358.0000 Du        
   7059 ****       127.5000 260.0000 358.2500 Du        
   7060 ****       127.5000 260.0000 358.5000 Du        
   7061 ****       127.5000 260.2500 358.2500 Du        
   7062 ****       127.7500 246.7500 353.7500 Du        
   7063 ****       127.7500 247.0000 353.5000 Du        
   7064 ****       127.7500 247.0000 353.7500 Du        
   7065 ****       127.7500 247.0000 354.0000 Du        
   7066 ****       127.7500 247.2500 353.7500 Du        
   7067 ****       127.7500 247.2500 354.0000 Du        
   7068 ****       127.7500 255.7500 366.0000 Du        
   7069 ****       127.7500 255.7500 366.2500 Du        
   7070 ****       127.7500 256.0000 366.0000 Du        
   7071 ****       127.7500 256.0000 366.2500 Du        
   7072 ****       127.7500 258.2500 359.0000 Du        
   7073 ****       127.7500 258.7500 359.0000 Du        
   7074 ****       127.7500 258.7500 359.2500 Du        
   7075 ****       127.7500 259.0000 358.7500 Du        
   7076 ****       127.7500 259.0000 359.0000 Du        
   7077 ****       127.7500 259.0000 359.2500 Du        
   7078 ****       127.7500 259.2500 358.2500 Du        
   7079 ****       127.7500 259.2500 358.5000 Du        
   7080 ****       127.7500 259.2500 358.7500 Du        
   7081 ****       127.7500 259.2500 359.0000 Du        
   7082 ****       127.7500 259.5000 358.5000 Du        
   7083 ****       127.7500 259.5000 358.7500 Du        
   7084 ****       127.7500 259.5000 359.0000 Du        
   7085 ****       127.7500 259.7500 358.2500 Du        
   7086 ****       127.7500 259.7500 358.5000 Du        
   7087 ****       127.7500 259.7500 358.7500 Du        
   7088 ****       127.7500 260.0000 358.2500 Du        
   7089 ****       128.0000 246.7500 353.5000 Du        
   7090 ****       128.0000 247.0000 353.2500 Du        
   7091 ****       128.0000 247.0000 353.5000 Du        
   7092 ****       128.0000 247.0000 353.7500 Du        
   7093 ****       128.0000 247.2500 353.2500 Du        
   7094 ****       128.0000 247.2500 353.5000 Du        
   7095 ****       128.0000 247.2500 353.7500 Du        
   7096 ****       128.0000 247.2500 354.0000 Du        
   7097 ****       128.0000 248.2500 353.2500 Du        
   7098 ****       128.0000 249.0000 351.0000 Du        
   7099 ****       128.0000 249.0000 351.2500 Du        
   7100 ****       128.0000 249.0000 351.5000 Du        
   7101 ****       128.0000 249.0000 351.7500 Du        
   7102 ****       128.0000 249.0000 352.0000 Du        
   7103 ****       128.0000 249.0000 352.2500 Du        
   7104 ****       128.0000 249.2500 350.7500 Du        
   7105 ****       128.0000 249.2500 351.0000 Du        
   7106 ****       128.0000 249.2500 351.2500 Du        
   7107 ****       128.0000 249.2500 351.5000 Du        
   7108 ****       128.0000 249.2500 351.7500 Du        
   7109 ****       128.0000 249.2500 352.0000 Du        
   7110 ****       128.0000 255.5000 365.2500 Du        
   7111 ****       128.0000 255.5000 365.5000 Du        
   7112 ****       128.0000 255.5000 365.7500 Du        
   7113 ****       128.0000 255.5000 366.0000 Du        
   7114 ****       128.0000 255.7500 365.0000 Du        
   7115 ****       128.0000 255.7500 365.2500 Du        
   7116 ****       128.0000 255.7500 365.5000 Du        
   7117 ****       128.0000 255.7500 365.7500 Du        
   7118 ****       128.0000 255.7500 366.0000 Du        
   7119 ****       128.0000 256.0000 365.0000 Du        
   7120 ****       128.0000 256.0000 365.2500 Du        
   7121 ****       128.0000 256.0000 365.5000 Du        
   7122 ****       128.0000 256.0000 365.7500 Du        
   7123 ****       128.0000 259.0000 359.0000 Du        
   7124 ****       128.0000 259.2500 358.7500 Du        
   7125 ****       128.0000 259.2500 359.0000 Du        
   7126 ****       128.2500 246.7500 353.2500 Du        
   7127 ****       128.2500 247.0000 353.2500 Du        
   7128 ****       128.2500 247.0000 353.5000 Du        
   7129 ****       128.2500 247.0000 353.7500 Du        
   7130 ****       128.2500 247.2500 353.2500 Du        
   7131 ****       128.2500 247.2500 353.5000 Du        
   7132 ****       128.2500 247.2500 353.7500 Du        
   7133 ****       128.2500 247.5000 353.2500 Du        
   7134 ****       128.2500 247.7500 353.0000 Du        
   7135 ****       128.2500 247.7500 353.2500 Du        
   7136 ****       128.2500 248.0000 353.0000 Du        
   7137 ****       128.2500 248.0000 353.2500 Du        
   7138 ****       128.2500 248.2500 353.0000 Du        
   7139 ****       128.2500 248.2500 353.2500 Du        
   7140 ****       128.2500 248.7500 351.0000 Du        
   7141 ****       128.2500 248.7500 351.2500 Du        
   7142 ****       128.2500 248.7500 351.5000 Du        
   7143 ****       128.2500 248.7500 351.7500 Du        
   7144 ****       128.2500 248.7500 352.0000 Du        
   7145 ****       128.2500 248.7500 352.2500 Du        
   7146 ****       128.2500 248.7500 352.5000 Du        
   7147 ****       128.2500 249.0000 350.7500 Du        
   7148 ****       128.2500 249.0000 351.0000 Du        
   7149 ****       128.2500 249.0000 351.2500 Du        
   7150 ****       128.2500 249.0000 351.5000 Du        
   7151 ****       128.2500 249.0000 351.7500 Du        
   7152 ****       128.2500 249.0000 352.0000 Du        
   7153 ****       128.2500 249.0000 352.2500 Du        
   7154 ****       128.2500 249.0000 352.7500 Du        
   7155 ****       128.2500 249.2500 350.7500 Du        
   7156 ****       128.2500 249.2500 351.0000 Du        
   7157 ****       128.2500 249.2500 351.2500 Du        
   7158 ****       128.2500 249.2500 351.5000 Du        
   7159 ****       128.2500 249.2500 351.7500 Du        
   7160 ****       128.2500 249.2500 352.0000 Du        
   7161 ****       128.2500 249.2500 352.2500 Du        
   7162 ****       128.2500 249.5000 352.0000 Du        
   7163 ****       128.2500 255.0000 365.0000 Du        
   7164 ****       128.2500 255.0000 365.2500 Du        
   7165 ****       128.2500 255.2500 364.7500 Du        
   7166 ****       128.2500 255.2500 365.0000 Du        
   7167 ****       128.2500 255.2500 365.2500 Du        
   7168 ****       128.2500 255.2500 365.5000 Du        
   7169 ****       128.2500 255.5000 364.5000 Du        
   7170 ****       128.2500 255.5000 364.7500 Du        
   7171 ****       128.2500 255.5000 365.0000 Du        
   7172 ****       128.2500 255.5000 365.2500 Du        
   7173 ****       128.2500 255.5000 365.5000 Du        
   7174 ****       128.2500 255.5000 365.7500 Du        
   7175 ****       128.2500 255.7500 364.5000 Du        
   7176 ****       128.2500 255.7500 364.7500 Du        
   7177 ****       128.2500 255.7500 365.0000 Du        
   7178 ****       128.2500 255.7500 365.2500 Du        
   7179 ****       128.2500 255.7500 365.5000 Du        
   7180 ****       128.2500 255.7500 365.7500 Du        
   7181 ****       128.2500 256.0000 364.5000 Du        
   7182 ****       128.2500 256.0000 364.7500 Du        
   7183 ****       128.2500 256.0000 365.0000 Du        
   7184 ****       128.2500 256.0000 365.2500 Du        
   7185 ****       128.5000 246.7500 353.2500 Du        
   7186 ****       128.5000 247.0000 353.0000 Du        
   7187 ****       128.5000 247.0000 353.2500 Du        
   7188 ****       128.5000 247.0000 353.5000 Du        
   7189 ****       128.5000 247.2500 353.0000 Du        
   7190 ****       128.5000 247.2500 353.2500 Du        
   7191 ****       128.5000 247.2500 353.5000 Du        
   7192 ****       128.5000 247.5000 352.7500 Du        
   7193 ****       128.5000 247.5000 353.0000 Du        
   7194 ****       128.5000 247.5000 353.2500 Du        
   7195 ****       128.5000 247.7500 352.7500 Du        
   7196 ****       128.5000 247.7500 353.0000 Du        
   7197 ****       128.5000 247.7500 353.2500 Du        
   7198 ****       128.5000 248.0000 352.2500 Du        
   7199 ****       128.5000 248.0000 352.7500 Du        
   7200 ****       128.5000 248.0000 353.0000 Du        
   7201 ****       128.5000 248.0000 353.2500 Du        
   7202 ****       128.5000 248.2500 351.2500 Du        
   7203 ****       128.5000 248.2500 351.5000 Du        
   7204 ****       128.5000 248.2500 351.7500 Du        
   7205 ****       128.5000 248.2500 352.0000 Du        
   7206 ****       128.5000 248.2500 352.2500 Du        
   7207 ****       128.5000 248.2500 352.5000 Du        
   7208 ****       128.5000 248.2500 353.0000 Du        
   7209 ****       128.5000 248.2500 353.2500 Du        
   7210 ****       128.5000 248.5000 351.0000 Du        
   7211 ****       128.5000 248.5000 351.2500 Du        
   7212 ****       128.5000 248.5000 351.5000 Du        
   7213 ****       128.5000 248.5000 351.7500 Du        
   7214 ****       128.5000 248.5000 352.0000 Du        
   7215 ****       128.5000 248.5000 352.2500 Du        
   7216 ****       128.5000 248.5000 352.5000 Du        
   7217 ****       128.5000 248.5000 352.7500 Du        
   7218 ****       128.5000 248.7500 351.0000 Du        
   7219 ****       128.5000 248.7500 351.2500 Du        
   7220 ****       128.5000 248.7500 351.5000 Du        
   7221 ****       128.5000 248.7500 351.7500 Du        
   7222 ****       128.5000 248.7500 352.0000 Du        
   7223 ****       128.5000 248.7500 352.2500 Du        
   7224 ****       128.5000 248.7500 352.5000 Du        
   7225 ****       128.5000 248.7500 352.7500 Du        
   7226 ****       128.5000 249.0000 351.0000 Du        
   7227 ****       128.5000 249.0000 351.2500 Du        
   7228 ****       128.5000 249.0000 351.5000 Du        
   7229 ****       128.5000 249.0000 351.7500 Du        
   7230 ****       128.5000 249.0000 352.0000 Du        
   7231 ****       128.5000 249.0000 352.2500 Du        
   7232 ****       128.5000 249.0000 352.5000 Du        
   7233 ****       128.5000 249.2500 351.2500 Du        
   7234 ****       128.5000 249.2500 351.5000 Du        
   7235 ****       128.5000 249.2500 351.7500 Du        
   7236 ****       128.5000 249.2500 352.0000 Du        
   7237 ****       128.5000 249.2500 352.2500 Du        
   7238 ****       128.5000 249.2500 352.5000 Du        
   7239 ****       128.5000 249.5000 352.0000 Du        
   7240 ****       128.5000 249.5000 352.2500 Du        
   7241 ****       128.5000 254.7500 364.7500 Du        
   7242 ****       128.5000 254.7500 365.0000 Du        
   7243 ****       128.5000 255.0000 364.5000 Du        
   7244 ****       128.5000 255.0000 364.7500 Du        
   7245 ****       128.5000 255.0000 365.0000 Du        
   7246 ****       128.5000 255.0000 365.2500 Du        
   7247 ****       128.5000 255.2500 364.5000 Du        
   7248 ****       128.5000 255.2500 364.7500 Du        
   7249 ****       128.5000 255.2500 365.0000 Du        
   7250 ****       128.5000 255.2500 365.2500 Du        
   7251 ****       128.5000 255.2500 365.5000 Du        
   7252 ****       128.5000 255.5000 364.2500 Du        
   7253 ****       128.5000 255.5000 364.5000 Du        
   7254 ****       128.5000 255.5000 364.7500 Du        
   7255 ****       128.5000 255.5000 365.0000 Du        
   7256 ****       128.5000 255.5000 365.2500 Du        
   7257 ****       128.5000 255.5000 365.5000 Du        
   7258 ****       128.5000 255.7500 364.2500 Du        
   7259 ****       128.5000 255.7500 364.5000 Du        
   7260 ****       128.5000 255.7500 364.7500 Du        
   7261 ****       128.5000 255.7500 365.0000 Du        
   7262 ****       128.5000 255.7500 365.2500 Du        
   7263 ****       128.5000 255.7500 365.5000 Du        
   7264 ****       128.5000 256.0000 364.5000 Du        
   7265 ****       128.5000 256.0000 364.7500 Du        
   7266 ****       128.7500 246.7500 353.0000 Du        
   7267 ****       128.7500 246.7500 353.2500 Du        
   7268 ****       128.7500 247.0000 352.7500 Du        
   7269 ****       128.7500 247.0000 353.0000 Du        
   7270 ****       128.7500 247.0000 353.2500 Du        
   7271 ****       128.7500 247.0000 353.5000 Du        
   7272 ****       128.7500 247.2500 352.7500 Du        
   7273 ****       128.7500 247.2500 353.0000 Du        
   7274 ****       128.7500 247.2500 353.2500 Du        
   7275 ****       128.7500 247.2500 353.5000 Du        
   7276 ****       128.7500 247.5000 352.5000 Du        
   7277 ****       128.7500 247.5000 352.7500 Du        
   7278 ****       128.7500 247.5000 353.0000 Du        
   7279 ****       128.7500 247.5000 353.2500 Du        
   7280 ****       128.7500 247.7500 351.7500 Du        
   7281 ****       128.7500 247.7500 352.0000 Du        
   7282 ****       128.7500 247.7500 352.2500 Du        
   7283 ****       128.7500 247.7500 352.5000 Du        
   7284 ****       128.7500 247.7500 352.7500 Du        
   7285 ****       128.7500 247.7500 353.0000 Du        
   7286 ****       128.7500 247.7500 353.2500 Du        
   7287 ****       128.7500 248.0000 351.0000 Du        
   7288 ****       128.7500 248.0000 351.2500 Du        
   7289 ****       128.7500 248.0000 351.5000 Du        
   7290 ****       128.7500 248.0000 351.7500 Du        
   7291 ****       128.7500 248.0000 352.0000 Du        
   7292 ****       128.7500 248.0000 352.2500 Du        
   7293 ****       128.7500 248.0000 352.5000 Du        
   7294 ****       128.7500 248.0000 352.7500 Du        
   7295 ****       128.7500 248.0000 353.0000 Du        
   7296 ****       128.7500 248.0000 353.2500 Du        
   7297 ****       128.7500 248.2500 351.0000 Du        
   7298 ****       128.7500 248.2500 351.2500 Du        
   7299 ****       128.7500 248.2500 351.5000 Du        
   7300 ****       128.7500 248.2500 351.7500 Du        
   7301 ****       128.7500 248.2500 352.0000 Du        
   7302 ****       128.7500 248.2500 352.2500 Du        
   7303 ****       128.7500 248.2500 352.5000 Du        
   7304 ****       128.7500 248.2500 352.7500 Du        
   7305 ****       128.7500 248.2500 353.0000 Du        
   7306 ****       128.7500 248.2500 353.2500 Du        
   7307 ****       128.7500 248.5000 350.7500 Du        
   7308 ****       128.7500 248.5000 351.0000 Du        
   7309 ****       128.7500 248.5000 351.2500 Du        
   7310 ****       128.7500 248.5000 351.5000 Du        
   7311 ****       128.7500 248.5000 351.7500 Du        
   7312 ****       128.7500 248.5000 352.0000 Du        
   7313 ****       128.7500 248.5000 352.2500 Du        
   7314 ****       128.7500 248.5000 352.5000 Du        
   7315 ****       128.7500 248.5000 352.7500 Du        
   7316 ****       128.7500 248.5000 353.0000 Du        
   7317 ****       128.7500 248.7500 350.7500 Du        
   7318 ****       128.7500 248.7500 351.0000 Du        
   7319 ****       128.7500 248.7500 351.2500 Du        
   7320 ****       128.7500 248.7500 351.5000 Du        
   7321 ****       128.7500 248.7500 351.7500 Du        
   7322 ****       128.7500 248.7500 352.0000 Du        
   7323 ****       128.7500 248.7500 352.2500 Du        
   7324 ****       128.7500 248.7500 352.5000 Du        
   7325 ****       128.7500 248.7500 352.7500 Du        
   7326 ****       128.7500 249.0000 351.0000 Du        
   7327 ****       128.7500 249.0000 351.2500 Du        
   7328 ****       128.7500 249.0000 351.5000 Du        
   7329 ****       128.7500 249.0000 351.7500 Du        
   7330 ****       128.7500 249.0000 352.0000 Du        
   7331 ****       128.7500 249.0000 352.2500 Du        
   7332 ****       128.7500 249.0000 352.5000 Du        
   7333 ****       128.7500 249.2500 351.2500 Du        
   7334 ****       128.7500 249.2500 351.5000 Du        
   7335 ****       128.7500 249.2500 351.7500 Du        
   7336 ****       128.7500 249.2500 352.0000 Du        
   7337 ****       128.7500 249.2500 352.2500 Du        
   7338 ****       128.7500 249.2500 352.5000 Du        
   7339 ****       128.7500 249.5000 352.0000 Du        
   7340 ****       128.7500 249.5000 352.2500 Du        
   7341 ****       128.7500 254.2500 364.7500 Du        
   7342 ****       128.7500 254.5000 364.5000 Du        
   7343 ****       128.7500 254.5000 364.7500 Du        
   7344 ****       128.7500 254.5000 365.0000 Du        
   7345 ****       128.7500 254.7500 364.2500 Du        
   7346 ****       128.7500 254.7500 364.5000 Du        
   7347 ****       128.7500 254.7500 364.7500 Du        
   7348 ****       128.7500 254.7500 365.0000 Du        
   7349 ****       128.7500 255.0000 364.2500 Du        
   7350 ****       128.7500 255.0000 364.5000 Du        
   7351 ****       128.7500 255.0000 364.7500 Du        
   7352 ****       128.7500 255.0000 365.0000 Du        
   7353 ****       128.7500 255.0000 365.2500 Du        
   7354 ****       128.7500 255.2500 364.2500 Du        
   7355 ****       128.7500 255.2500 364.5000 Du        
   7356 ****       128.7500 255.2500 364.7500 Du        
   7357 ****       128.7500 255.2500 365.0000 Du        
   7358 ****       128.7500 255.2500 365.2500 Du        
   7359 ****       128.7500 255.5000 364.2500 Du        
   7360 ****       128.7500 255.5000 364.5000 Du        
   7361 ****       128.7500 255.5000 364.7500 Du        
   7362 ****       128.7500 255.5000 365.0000 Du        
   7363 ****       128.7500 255.5000 365.2500 Du        
   7364 ****       128.7500 255.5000 365.5000 Du        
   7365 ****       128.7500 255.7500 364.2500 Du        
   7366 ****       128.7500 255.7500 364.5000 Du        
   7367 ****       128.7500 255.7500 364.7500 Du        
   7368 ****       128.7500 255.7500 365.0000 Du        
   7369 ****       128.7500 255.7500 365.2500 Du        
   7370 ****       129.0000 246.7500 352.7500 Du        
   7371 ****       129.0000 246.7500 353.0000 Du        
   7372 ****       129.0000 246.7500 353.2500 Du        
   7373 ****       129.0000 247.0000 352.5000 Du        
   7374 ****       129.0000 247.0000 352.7500 Du        
   7375 ****       129.0000 247.0000 353.0000 Du        
   7376 ****       129.0000 247.0000 353.2500 Du        
   7377 ****       129.0000 247.2500 352.0000 Du        
   7378 ****       129.0000 247.2500 352.2500 Du        
   7379 ****       129.0000 247.2500 352.5000 Du        
   7380 ****       129.0000 247.2500 352.7500 Du        
   7381 ****       129.0000 247.2500 353.0000 Du        
   7382 ****       129.0000 247.2500 353.2500 Du        
   7383 ****       129.0000 247.2500 353.5000 Du        
   7384 ****       129.0000 247.5000 351.5000 Du        
   7385 ****       129.0000 247.5000 351.7500 Du        
   7386 ****       129.0000 247.5000 352.0000 Du        
   7387 ****       129.0000 247.5000 352.2500 Du        
   7388 ****       129.0000 247.5000 352.5000 Du        
   7389 ****       129.0000 247.5000 352.7500 Du        
   7390 ****       129.0000 247.5000 353.0000 Du        
   7391 ****       129.0000 247.5000 353.2500 Du        
   7392 ****       129.0000 247.7500 351.0000 Du        
   7393 ****       129.0000 247.7500 351.2500 Du        
   7394 ****       129.0000 247.7500 351.5000 Du        
   7395 ****       129.0000 247.7500 351.7500 Du        
   7396 ****       129.0000 247.7500 352.0000 Du        
   7397 ****       129.0000 247.7500 352.2500 Du        
   7398 ****       129.0000 247.7500 352.5000 Du        
   7399 ****       129.0000 247.7500 352.7500 Du        
   7400 ****       129.0000 247.7500 353.0000 Du        
   7401 ****       129.0000 247.7500 353.2500 Du        
   7402 ****       129.0000 247.7500 353.5000 Du        
   7403 ****       129.0000 248.0000 350.7500 Du        
   7404 ****       129.0000 248.0000 351.0000 Du        
   7405 ****       129.0000 248.0000 351.2500 Du        
   7406 ****       129.0000 248.0000 351.5000 Du        
   7407 ****       129.0000 248.0000 351.7500 Du        
   7408 ****       129.0000 248.0000 352.0000 Du        
   7409 ****       129.0000 248.0000 352.2500 Du        
   7410 ****       129.0000 248.0000 352.5000 Du        
   7411 ****       129.0000 248.0000 352.7500 Du        
   7412 ****       129.0000 248.0000 353.0000 Du        
   7413 ****       129.0000 248.0000 353.2500 Du        
   7414 ****       129.0000 248.2500 350.7500 Du        
   7415 ****       129.0000 248.2500 351.0000 Du        
   7416 ****       129.0000 248.2500 351.2500 Du        
   7417 ****       129.0000 248.2500 351.5000 Du        
   7418 ****       129.0000 248.2500 351.7500 Du        
   7419 ****       129.0000 248.2500 352.0000 Du        
   7420 ****       129.0000 248.2500 352.2500 Du        
   7421 ****       129.0000 248.2500 352.5000 Du        
   7422 ****       129.0000 248.2500 352.7500 Du        
   7423 ****       129.0000 248.2500 353.0000 Du        
   7424 ****       129.0000 248.5000 350.7500 Du        
   7425 ****       129.0000 248.5000 351.0000 Du        
   7426 ****       129.0000 248.5000 351.2500 Du        
   7427 ****       129.0000 248.5000 351.5000 Du        
   7428 ****       129.0000 248.5000 351.7500 Du        
   7429 ****       129.0000 248.5000 352.0000 Du        
   7430 ****       129.0000 248.5000 352.2500 Du        
   7431 ****       129.0000 248.5000 352.5000 Du        
   7432 ****       129.0000 248.5000 352.7500 Du        
   7433 ****       129.0000 248.5000 353.0000 Du        
   7434 ****       129.0000 248.7500 350.7500 Du        
   7435 ****       129.0000 248.7500 351.0000 Du        
   7436 ****       129.0000 248.7500 351.2500 Du        
   7437 ****       129.0000 248.7500 351.5000 Du        
   7438 ****       129.0000 248.7500 351.7500 Du        
   7439 ****       129.0000 248.7500 352.0000 Du        
   7440 ****       129.0000 248.7500 352.2500 Du        
   7441 ****       129.0000 248.7500 352.5000 Du        
   7442 ****       129.0000 248.7500 352.7500 Du        
   7443 ****       129.0000 248.7500 353.0000 Du        
   7444 ****       129.0000 249.0000 351.0000 Du        
   7445 ****       129.0000 249.0000 351.2500 Du        
   7446 ****       129.0000 249.0000 351.5000 Du        
   7447 ****       129.0000 249.0000 351.7500 Du        
   7448 ****       129.0000 249.0000 352.0000 Du        
   7449 ****       129.0000 249.0000 352.2500 Du        
   7450 ****       129.0000 249.0000 352.5000 Du        
   7451 ****       129.0000 249.0000 352.7500 Du        
   7452 ****       129.0000 249.2500 351.5000 Du        
   7453 ****       129.0000 249.2500 351.7500 Du        
   7454 ****       129.0000 249.2500 352.0000 Du        
   7455 ****       129.0000 249.2500 352.2500 Du        
   7456 ****       129.0000 249.2500 352.5000 Du        
   7457 ****       129.0000 249.5000 352.0000 Du        
   7458 ****       129.0000 249.5000 352.2500 Du        
   7459 ****       129.0000 254.2500 364.5000 Du        
   7460 ****       129.0000 254.2500 364.7500 Du        
   7461 ****       129.0000 254.5000 364.2500 Du        
   7462 ****       129.0000 254.5000 364.5000 Du        
   7463 ****       129.0000 254.5000 364.7500 Du        
   7464 ****       129.0000 254.7500 364.0000 Du        
   7465 ****       129.0000 254.7500 364.2500 Du        
   7466 ****       129.0000 254.7500 364.5000 Du        
   7467 ****       129.0000 254.7500 364.7500 Du        
   7468 ****       129.0000 254.7500 365.0000 Du        
   7469 ****       129.0000 255.0000 364.0000 Du        
   7470 ****       129.0000 255.0000 364.2500 Du        
   7471 ****       129.0000 255.0000 364.5000 Du        
   7472 ****       129.0000 255.0000 364.7500 Du        
   7473 ****       129.0000 255.0000 365.0000 Du        
   7474 ****       129.0000 255.2500 364.0000 Du        
   7475 ****       129.0000 255.2500 364.2500 Du        
   7476 ****       129.0000 255.2500 364.5000 Du        
   7477 ****       129.0000 255.2500 364.7500 Du        
   7478 ****       129.0000 255.2500 365.0000 Du        
   7479 ****       129.0000 255.5000 364.2500 Du        
   7480 ****       129.0000 255.5000 364.5000 Du        
   7481 ****       129.0000 255.5000 364.7500 Du        
   7482 ****       129.0000 255.5000 365.0000 Du        
   7483 ****       129.0000 255.7500 364.5000 Du        
   7484 ****       129.0000 255.7500 364.7500 Du        
   7485 ****       129.2500 246.7500 352.5000 Du        
   7486 ****       129.2500 246.7500 352.7500 Du        
   7487 ****       129.2500 246.7500 353.0000 Du        
   7488 ****       129.2500 247.0000 352.0000 Du        
   7489 ****       129.2500 247.0000 352.2500 Du        
   7490 ****       129.2500 247.0000 352.5000 Du        
   7491 ****       129.2500 247.0000 352.7500 Du        
   7492 ****       129.2500 247.0000 353.0000 Du        
   7493 ****       129.2500 247.0000 353.2500 Du        
   7494 ****       129.2500 247.2500 351.0000 Du        
   7495 ****       129.2500 247.2500 351.2500 Du        
   7496 ****       129.2500 247.2500 351.5000 Du        
   7497 ****       129.2500 247.2500 351.7500 Du        
   7498 ****       129.2500 247.2500 352.0000 Du        
   7499 ****       129.2500 247.2500 352.2500 Du        
   7500 ****       129.2500 247.2500 352.5000 Du        
   7501 ****       129.2500 247.2500 352.7500 Du        
   7502 ****       129.2500 247.2500 353.0000 Du        
   7503 ****       129.2500 247.2500 353.2500 Du        
   7504 ****       129.2500 247.5000 350.7500 Du        
   7505 ****       129.2500 247.5000 351.0000 Du        
   7506 ****       129.2500 247.5000 351.2500 Du        
   7507 ****       129.2500 247.5000 351.5000 Du        
   7508 ****       129.2500 247.5000 351.7500 Du        
   7509 ****       129.2500 247.5000 352.0000 Du        
   7510 ****       129.2500 247.5000 352.2500 Du        
   7511 ****       129.2500 247.5000 352.5000 Du        
   7512 ****       129.2500 247.5000 352.7500 Du        
   7513 ****       129.2500 247.5000 353.0000 Du        
   7514 ****       129.2500 247.5000 353.2500 Du        
   7515 ****       129.2500 247.7500 350.7500 Du        
   7516 ****       129.2500 247.7500 351.0000 Du        
   7517 ****       129.2500 247.7500 351.2500 Du        
   7518 ****       129.2500 247.7500 351.5000 Du        
   7519 ****       129.2500 247.7500 351.7500 Du        
   7520 ****       129.2500 247.7500 352.0000 Du        
   7521 ****       129.2500 247.7500 352.2500 Du        
   7522 ****       129.2500 247.7500 352.5000 Du        
   7523 ****       129.2500 247.7500 352.7500 Du        
   7524 ****       129.2500 247.7500 353.0000 Du        
   7525 ****       129.2500 247.7500 353.2500 Du        
   7526 ****       129.2500 248.0000 350.5000 Du        
   7527 ****       129.2500 248.0000 350.7500 Du        
   7528 ****       129.2500 248.0000 351.0000 Du        
   7529 ****       129.2500 248.0000 351.2500 Du        
   7530 ****       129.2500 248.0000 351.5000 Du        
   7531 ****       129.2500 248.0000 351.7500 Du        
   7532 ****       129.2500 248.0000 352.0000 Du        
   7533 ****       129.2500 248.0000 352.2500 Du        
   7534 ****       129.2500 248.0000 352.5000 Du        
   7535 ****       129.2500 248.0000 352.7500 Du        
   7536 ****       129.2500 248.0000 353.0000 Du        
   7537 ****       129.2500 248.0000 353.2500 Du        
   7538 ****       129.2500 248.2500 350.5000 Du        
   7539 ****       129.2500 248.2500 350.7500 Du        
   7540 ****       129.2500 248.2500 351.0000 Du        
   7541 ****       129.2500 248.2500 351.2500 Du        
   7542 ****       129.2500 248.2500 351.5000 Du        
   7543 ****       129.2500 248.2500 351.7500 Du        
   7544 ****       129.2500 248.2500 352.0000 Du        
   7545 ****       129.2500 248.2500 352.2500 Du        
   7546 ****       129.2500 248.2500 352.5000 Du        
   7547 ****       129.2500 248.2500 353.0000 Du        
   7548 ****       129.2500 248.5000 350.5000 Du        
   7549 ****       129.2500 248.5000 350.7500 Du        
   7550 ****       129.2500 248.5000 351.0000 Du        
   7551 ****       129.2500 248.5000 351.2500 Du        
   7552 ****       129.2500 248.5000 351.5000 Du        
   7553 ****       129.2500 248.5000 351.7500 Du        
   7554 ****       129.2500 248.5000 352.0000 Du        
   7555 ****       129.2500 248.5000 352.2500 Du        
   7556 ****       129.2500 248.5000 352.5000 Du        
   7557 ****       129.2500 248.5000 352.7500 Du        
   7558 ****       129.2500 248.7500 350.7500 Du        
   7559 ****       129.2500 248.7500 351.0000 Du        
   7560 ****       129.2500 248.7500 351.2500 Du        
   7561 ****       129.2500 248.7500 351.5000 Du        
   7562 ****       129.2500 248.7500 351.7500 Du        
   7563 ****       129.2500 248.7500 352.0000 Du        
   7564 ****       129.2500 248.7500 352.2500 Du        
   7565 ****       129.2500 248.7500 352.7500 Du        
   7566 ****       129.2500 249.0000 351.0000 Du        
   7567 ****       129.2500 249.0000 351.2500 Du        
   7568 ****       129.2500 249.0000 351.5000 Du        
   7569 ****       129.2500 249.0000 351.7500 Du        
   7570 ****       129.2500 249.0000 352.0000 Du        
   7571 ****       129.2500 249.0000 352.2500 Du        
   7572 ****       129.2500 249.0000 352.5000 Du        
   7573 ****       129.2500 249.0000 352.7500 Du        
   7574 ****       129.2500 249.2500 351.7500 Du        
   7575 ****       129.2500 249.2500 352.0000 Du        
   7576 ****       129.2500 249.2500 352.2500 Du        
   7577 ****       129.2500 249.2500 352.5000 Du        
   7578 ****       129.2500 254.2500 364.5000 Du        
   7579 ****       129.2500 254.5000 364.5000 Du        
   7580 ****       129.2500 254.5000 364.7500 Du        
   7581 ****       129.2500 254.7500 364.2500 Du        
   7582 ****       129.2500 254.7500 364.5000 Du        
   7583 ****       129.2500 254.7500 364.7500 Du        
   7584 ****       129.2500 255.0000 364.5000 Du        
   7585 ****       129.2500 255.0000 364.7500 Du        
   7586 ****       129.2500 255.2500 364.5000 Du        
   7587 ****       129.2500 255.2500 364.7500 Du        
   7588 ****       129.5000 246.7500 352.2500 Du        
   7589 ****       129.5000 246.7500 352.5000 Du        
   7590 ****       129.5000 246.7500 352.7500 Du        
   7591 ****       129.5000 247.0000 351.2500 Du        
   7592 ****       129.5000 247.0000 351.5000 Du        
   7593 ****       129.5000 247.0000 351.7500 Du        
   7594 ****       129.5000 247.0000 352.0000 Du        
   7595 ****       129.5000 247.0000 352.2500 Du        
   7596 ****       129.5000 247.0000 352.5000 Du        
   7597 ****       129.5000 247.0000 352.7500 Du        
   7598 ****       129.5000 247.0000 353.0000 Du        
   7599 ****       129.5000 247.2500 350.5000 Du        
   7600 ****       129.5000 247.2500 350.7500 Du        
   7601 ****       129.5000 247.2500 351.0000 Du        
   7602 ****       129.5000 247.2500 351.2500 Du        
   7603 ****       129.5000 247.2500 351.5000 Du        
   7604 ****       129.5000 247.2500 351.7500 Du        
   7605 ****       129.5000 247.2500 352.0000 Du        
   7606 ****       129.5000 247.2500 352.2500 Du        
   7607 ****       129.5000 247.2500 352.5000 Du        
   7608 ****       129.5000 247.2500 352.7500 Du        
   7609 ****       129.5000 247.2500 353.0000 Du        
   7610 ****       129.5000 247.2500 353.2500 Du        
   7611 ****       129.5000 247.5000 350.5000 Du        
   7612 ****       129.5000 247.5000 350.7500 Du        
   7613 ****       129.5000 247.5000 351.0000 Du        
   7614 ****       129.5000 247.5000 351.2500 Du        
   7615 ****       129.5000 247.5000 351.5000 Du        
   7616 ****       129.5000 247.5000 351.7500 Du        
   7617 ****       129.5000 247.5000 352.0000 Du        
   7618 ****       129.5000 247.5000 352.2500 Du        
   7619 ****       129.5000 247.5000 352.5000 Du        
   7620 ****       129.5000 247.5000 352.7500 Du        
   7621 ****       129.5000 247.5000 353.0000 Du        
   7622 ****       129.5000 247.5000 353.2500 Du        
   7623 ****       129.5000 247.7500 350.2500 Du        
   7624 ****       129.5000 247.7500 350.5000 Du        
   7625 ****       129.5000 247.7500 350.7500 Du        
   7626 ****       129.5000 247.7500 351.0000 Du        
   7627 ****       129.5000 247.7500 351.2500 Du        
   7628 ****       129.5000 247.7500 351.5000 Du        
   7629 ****       129.5000 247.7500 351.7500 Du        
   7630 ****       129.5000 247.7500 352.0000 Du        
   7631 ****       129.5000 247.7500 352.2500 Du        
   7632 ****       129.5000 247.7500 352.5000 Du        
   7633 ****       129.5000 247.7500 352.7500 Du        
   7634 ****       129.5000 247.7500 353.0000 Du        
   7635 ****       129.5000 247.7500 353.2500 Du        
   7636 ****       129.5000 248.0000 350.2500 Du        
   7637 ****       129.5000 248.0000 350.5000 Du        
   7638 ****       129.5000 248.0000 350.7500 Du        
   7639 ****       129.5000 248.0000 351.0000 Du        
   7640 ****       129.5000 248.0000 351.2500 Du        
   7641 ****       129.5000 248.0000 351.5000 Du        
   7642 ****       129.5000 248.0000 351.7500 Du        
   7643 ****       129.5000 248.0000 352.0000 Du        
   7644 ****       129.5000 248.0000 352.2500 Du        
   7645 ****       129.5000 248.0000 352.5000 Du        
   7646 ****       129.5000 248.0000 352.7500 Du        
   7647 ****       129.5000 248.0000 353.0000 Du        
   7648 ****       129.5000 248.0000 353.2500 Du        
   7649 ****       129.5000 248.0000 366.5000 Du        
   7650 ****       129.5000 248.2500 350.2500 Du        
   7651 ****       129.5000 248.2500 350.5000 Du        
   7652 ****       129.5000 248.2500 350.7500 Du        
   7653 ****       129.5000 248.2500 351.0000 Du        
   7654 ****       129.5000 248.2500 351.2500 Du        
   7655 ****       129.5000 248.2500 351.5000 Du        
   7656 ****       129.5000 248.2500 351.7500 Du        
   7657 ****       129.5000 248.2500 352.0000 Du        
   7658 ****       129.5000 248.2500 352.2500 Du        
   7659 ****       129.5000 248.2500 352.5000 Du        
   7660 ****       129.5000 248.2500 352.7500 Du        
   7661 ****       129.5000 248.2500 353.0000 Du        
   7662 ****       129.5000 248.2500 353.2500 Du        
   7663 ****       129.5000 248.5000 350.5000 Du        
   7664 ****       129.5000 248.5000 350.7500 Du        
   7665 ****       129.5000 248.5000 351.0000 Du        
   7666 ****       129.5000 248.5000 351.2500 Du        
   7667 ****       129.5000 248.5000 351.5000 Du        
   7668 ****       129.5000 248.5000 351.7500 Du        
   7669 ****       129.5000 248.5000 352.0000 Du        
   7670 ****       129.5000 248.5000 352.2500 Du        
   7671 ****       129.5000 248.7500 350.7500 Du        
   7672 ****       129.5000 248.7500 351.0000 Du        
   7673 ****       129.5000 248.7500 351.2500 Du        
   7674 ****       129.5000 248.7500 351.5000 Du        
   7675 ****       129.5000 248.7500 351.7500 Du        
   7676 ****       129.5000 248.7500 352.0000 Du        
   7677 ****       129.5000 248.7500 352.2500 Du        
   7678 ****       129.5000 249.0000 351.2500 Du        
   7679 ****       129.5000 249.0000 351.5000 Du        
   7680 ****       129.5000 249.0000 351.7500 Du        
   7681 ****       129.5000 249.0000 352.0000 Du        
   7682 ****       129.5000 249.0000 352.2500 Du        
   7683 ****       129.5000 249.2500 351.7500 Du        
   7684 ****       129.5000 249.2500 352.0000 Du        
   7685 ****       129.5000 249.2500 352.2500 Du        
   7686 ****       129.7500 246.7500 352.0000 Du        
   7687 ****       129.7500 246.7500 352.2500 Du        
   7688 ****       129.7500 246.7500 352.5000 Du        
   7689 ****       129.7500 247.0000 350.2500 Du        
   7690 ****       129.7500 247.0000 350.5000 Du        
   7691 ****       129.7500 247.0000 350.7500 Du        
   7692 ****       129.7500 247.0000 351.0000 Du        
   7693 ****       129.7500 247.0000 351.2500 Du        
   7694 ****       129.7500 247.0000 351.5000 Du        
   7695 ****       129.7500 247.0000 351.7500 Du        
   7696 ****       129.7500 247.0000 352.0000 Du        
   7697 ****       129.7500 247.0000 352.2500 Du        
   7698 ****       129.7500 247.0000 352.5000 Du        
   7699 ****       129.7500 247.0000 352.7500 Du        
   7700 ****       129.7500 247.0000 353.0000 Du        
   7701 ****       129.7500 247.2500 350.0000 Du        
   7702 ****       129.7500 247.2500 350.2500 Du        
   7703 ****       129.7500 247.2500 350.5000 Du        
   7704 ****       129.7500 247.2500 350.7500 Du        
   7705 ****       129.7500 247.2500 351.0000 Du        
   7706 ****       129.7500 247.2500 351.2500 Du        
   7707 ****       129.7500 247.2500 351.5000 Du        
   7708 ****       129.7500 247.2500 351.7500 Du        
   7709 ****       129.7500 247.2500 352.0000 Du        
   7710 ****       129.7500 247.2500 352.2500 Du        
   7711 ****       129.7500 247.2500 352.5000 Du        
   7712 ****       129.7500 247.2500 352.7500 Du        
   7713 ****       129.7500 247.2500 353.0000 Du        
   7714 ****       129.7500 247.2500 353.2500 Du        
   7715 ****       129.7500 247.5000 350.0000 Du        
   7716 ****       129.7500 247.5000 350.2500 Du        
   7717 ****       129.7500 247.5000 350.5000 Du        
   7718 ****       129.7500 247.5000 350.7500 Du        
   7719 ****       129.7500 247.5000 351.0000 Du        
   7720 ****       129.7500 247.5000 351.2500 Du        
   7721 ****       129.7500 247.5000 351.5000 Du        
   7722 ****       129.7500 247.5000 351.7500 Du        
   7723 ****       129.7500 247.5000 352.0000 Du        
   7724 ****       129.7500 247.5000 352.2500 Du        
   7725 ****       129.7500 247.5000 352.5000 Du        
   7726 ****       129.7500 247.5000 352.7500 Du        
   7727 ****       129.7500 247.5000 353.0000 Du        
   7728 ****       129.7500 247.5000 353.2500 Du        
   7729 ****       129.7500 247.7500 350.0000 Du        
   7730 ****       129.7500 247.7500 350.2500 Du        
   7731 ****       129.7500 247.7500 350.5000 Du        
   7732 ****       129.7500 247.7500 350.7500 Du        
   7733 ****       129.7500 247.7500 351.0000 Du        
   7734 ****       129.7500 247.7500 351.2500 Du        
   7735 ****       129.7500 247.7500 351.5000 Du        
   7736 ****       129.7500 247.7500 351.7500 Du        
   7737 ****       129.7500 247.7500 352.0000 Du        
   7738 ****       129.7500 247.7500 352.2500 Du        
   7739 ****       129.7500 247.7500 352.5000 Du        
   7740 ****       129.7500 247.7500 352.7500 Du        
   7741 ****       129.7500 247.7500 353.0000 Du        
   7742 ****       129.7500 247.7500 353.2500 Du        
   7743 ****       129.7500 247.7500 353.5000 Du        
   7744 ****       129.7500 248.0000 350.0000 Du        
   7745 ****       129.7500 248.0000 350.2500 Du        
   7746 ****       129.7500 248.0000 350.5000 Du        
   7747 ****       129.7500 248.0000 350.7500 Du        
   7748 ****       129.7500 248.0000 351.0000 Du        
   7749 ****       129.7500 248.0000 351.2500 Du        
   7750 ****       129.7500 248.0000 351.5000 Du        
   7751 ****       129.7500 248.0000 351.7500 Du        
   7752 ****       129.7500 248.0000 352.0000 Du        
   7753 ****       129.7500 248.0000 352.2500 Du        
   7754 ****       129.7500 248.0000 352.5000 Du        
   7755 ****       129.7500 248.0000 352.7500 Du        
   7756 ****       129.7500 248.0000 353.0000 Du        
   7757 ****       129.7500 248.0000 353.2500 Du        
   7758 ****       129.7500 248.0000 365.7500 Du        
   7759 ****       129.7500 248.0000 366.0000 Du        
   7760 ****       129.7500 248.0000 366.2500 Du        
   7761 ****       129.7500 248.0000 366.5000 Du        
   7762 ****       129.7500 248.0000 366.7500 Du        
   7763 ****       129.7500 248.2500 350.2500 Du        
   7764 ****       129.7500 248.2500 350.5000 Du        
   7765 ****       129.7500 248.2500 350.7500 Du        
   7766 ****       129.7500 248.2500 351.0000 Du        
   7767 ****       129.7500 248.2500 351.2500 Du        
   7768 ****       129.7500 248.2500 351.5000 Du        
   7769 ****       129.7500 248.2500 351.7500 Du        
   7770 ****       129.7500 248.2500 352.0000 Du        
   7771 ****       129.7500 248.2500 352.2500 Du        
   7772 ****       129.7500 248.2500 352.5000 Du        
   7773 ****       129.7500 248.2500 352.7500 Du        
   7774 ****       129.7500 248.2500 353.0000 Du        
   7775 ****       129.7500 248.2500 353.2500 Du        
   7776 ****       129.7500 248.2500 365.5000 Du        
   7777 ****       129.7500 248.2500 365.7500 Du        
   7778 ****       129.7500 248.2500 366.0000 Du        
   7779 ****       129.7500 248.2500 366.2500 Du        
   7780 ****       129.7500 248.2500 366.5000 Du        
   7781 ****       129.7500 248.2500 366.7500 Du        
   7782 ****       129.7500 248.5000 350.2500 Du        
   7783 ****       129.7500 248.5000 350.5000 Du        
   7784 ****       129.7500 248.5000 350.7500 Du        
   7785 ****       129.7500 248.5000 351.0000 Du        
   7786 ****       129.7500 248.5000 351.2500 Du        
   7787 ****       129.7500 248.5000 351.5000 Du        
   7788 ****       129.7500 248.5000 351.7500 Du        
   7789 ****       129.7500 248.5000 352.0000 Du        
   7790 ****       129.7500 248.5000 352.2500 Du        
   7791 ****       129.7500 248.5000 352.5000 Du        
   7792 ****       129.7500 248.5000 352.7500 Du        
   7793 ****       129.7500 248.7500 350.7500 Du        
   7794 ****       129.7500 248.7500 351.0000 Du        
   7795 ****       129.7500 248.7500 351.2500 Du        
   7796 ****       129.7500 248.7500 351.5000 Du        
   7797 ****       129.7500 248.7500 351.7500 Du        
   7798 ****       129.7500 248.7500 352.0000 Du        
   7799 ****       129.7500 248.7500 352.2500 Du        
   7800 ****       129.7500 249.0000 351.5000 Du        
   7801 ****       129.7500 249.0000 351.7500 Du        
   7802 ****       129.7500 249.0000 352.0000 Du        
   7803 ****       129.7500 249.0000 352.2500 Du        
   7804 ****       129.7500 249.2500 352.0000 Du        
   7805 ****       129.7500 249.2500 352.2500 Du        
   7806 ****       130.0000 246.5000 350.0000 Du        
   7807 ****       130.0000 246.5000 350.2500 Du        
   7808 ****       130.0000 246.7500 349.7500 Du        
   7809 ****       130.0000 246.7500 350.0000 Du        
   7810 ****       130.0000 246.7500 350.2500 Du        
   7811 ****       130.0000 246.7500 350.5000 Du        
   7812 ****       130.0000 246.7500 350.7500 Du        
   7813 ****       130.0000 246.7500 351.0000 Du        
   7814 ****       130.0000 246.7500 351.2500 Du        
   7815 ****       130.0000 247.0000 349.7500 Du        
   7816 ****       130.0000 247.0000 350.0000 Du        
   7817 ****       130.0000 247.0000 350.2500 Du        
   7818 ****       130.0000 247.0000 350.5000 Du        
   7819 ****       130.0000 247.0000 350.7500 Du        
   7820 ****       130.0000 247.0000 351.0000 Du        
   7821 ****       130.0000 247.0000 351.2500 Du        
   7822 ****       130.0000 247.0000 351.5000 Du        
   7823 ****       130.0000 247.0000 351.7500 Du        
   7824 ****       130.0000 247.0000 352.0000 Du        
   7825 ****       130.0000 247.0000 352.2500 Du        
   7826 ****       130.0000 247.0000 352.5000 Du        
   7827 ****       130.0000 247.0000 352.7500 Du        
   7828 ****       130.0000 247.2500 349.7500 Du        
   7829 ****       130.0000 247.2500 350.0000 Du        
   7830 ****       130.0000 247.2500 350.2500 Du        
   7831 ****       130.0000 247.2500 350.5000 Du        
   7832 ****       130.0000 247.2500 350.7500 Du        
   7833 ****       130.0000 247.2500 351.0000 Du        
   7834 ****       130.0000 247.2500 351.2500 Du        
   7835 ****       130.0000 247.2500 351.5000 Du        
   7836 ****       130.0000 247.2500 351.7500 Du        
   7837 ****       130.0000 247.2500 352.0000 Du        
   7838 ****       130.0000 247.2500 352.2500 Du        
   7839 ****       130.0000 247.2500 352.5000 Du        
   7840 ****       130.0000 247.2500 352.7500 Du        
   7841 ****       130.0000 247.2500 353.0000 Du        
   7842 ****       130.0000 247.5000 349.7500 Du        
   7843 ****       130.0000 247.5000 350.0000 Du        
   7844 ****       130.0000 247.5000 350.2500 Du        
   7845 ****       130.0000 247.5000 350.5000 Du        
   7846 ****       130.0000 247.5000 350.7500 Du        
   7847 ****       130.0000 247.5000 351.0000 Du        
   7848 ****       130.0000 247.5000 351.2500 Du        
   7849 ****       130.0000 247.5000 351.5000 Du        
   7850 ****       130.0000 247.5000 351.7500 Du        
   7851 ****       130.0000 247.5000 352.0000 Du        
   7852 ****       130.0000 247.5000 352.2500 Du        
   7853 ****       130.0000 247.5000 352.5000 Du        
   7854 ****       130.0000 247.5000 352.7500 Du        
   7855 ****       130.0000 247.5000 353.0000 Du        
   7856 ****       130.0000 247.5000 353.2500 Du        
   7857 ****       130.0000 247.7500 349.7500 Du        
   7858 ****       130.0000 247.7500 350.0000 Du        
   7859 ****       130.0000 247.7500 350.2500 Du        
   7860 ****       130.0000 247.7500 350.5000 Du        
   7861 ****       130.0000 247.7500 350.7500 Du        
   7862 ****       130.0000 247.7500 351.0000 Du        
   7863 ****       130.0000 247.7500 351.2500 Du        
   7864 ****       130.0000 247.7500 351.5000 Du        
   7865 ****       130.0000 247.7500 351.7500 Du        
   7866 ****       130.0000 247.7500 352.0000 Du        
   7867 ****       130.0000 247.7500 352.2500 Du        
   7868 ****       130.0000 247.7500 352.5000 Du        
   7869 ****       130.0000 247.7500 352.7500 Du        
   7870 ****       130.0000 247.7500 353.0000 Du        
   7871 ****       130.0000 247.7500 353.2500 Du        
   7872 ****       130.0000 248.0000 350.0000 Du        
   7873 ****       130.0000 248.0000 350.2500 Du        
   7874 ****       130.0000 248.0000 350.5000 Du        
   7875 ****       130.0000 248.0000 350.7500 Du        
   7876 ****       130.0000 248.0000 351.0000 Du        
   7877 ****       130.0000 248.0000 351.2500 Du        
   7878 ****       130.0000 248.0000 351.5000 Du        
   7879 ****       130.0000 248.0000 351.7500 Du        
   7880 ****       130.0000 248.0000 352.0000 Du        
   7881 ****       130.0000 248.0000 352.2500 Du        
   7882 ****       130.0000 248.0000 352.5000 Du        
   7883 ****       130.0000 248.0000 352.7500 Du        
   7884 ****       130.0000 248.0000 353.0000 Du        
   7885 ****       130.0000 248.0000 353.2500 Du        
   7886 ****       130.0000 248.0000 365.5000 Du        
   7887 ****       130.0000 248.0000 365.7500 Du        
   7888 ****       130.0000 248.0000 366.0000 Du        
   7889 ****       130.0000 248.0000 366.2500 Du        
   7890 ****       130.0000 248.0000 366.5000 Du        
   7891 ****       130.0000 248.0000 366.7500 Du        
   7892 ****       130.0000 248.2500 350.0000 Du        
   7893 ****       130.0000 248.2500 350.2500 Du        
   7894 ****       130.0000 248.2500 350.5000 Du        
   7895 ****       130.0000 248.2500 350.7500 Du        
   7896 ****       130.0000 248.2500 351.0000 Du        
   7897 ****       130.0000 248.2500 351.2500 Du        
   7898 ****       130.0000 248.2500 351.5000 Du        
   7899 ****       130.0000 248.2500 351.7500 Du        
   7900 ****       130.0000 248.2500 352.0000 Du        
   7901 ****       130.0000 248.2500 352.2500 Du        
   7902 ****       130.0000 248.2500 352.5000 Du        
   7903 ****       130.0000 248.2500 352.7500 Du        
   7904 ****       130.0000 248.2500 353.0000 Du        
   7905 ****       130.0000 248.2500 353.2500 Du        
   7906 ****       130.0000 248.2500 365.2500 Du        
   7907 ****       130.0000 248.2500 365.5000 Du        
   7908 ****       130.0000 248.2500 365.7500 Du        
   7909 ****       130.0000 248.2500 366.0000 Du        
   7910 ****       130.0000 248.2500 366.2500 Du        
   7911 ****       130.0000 248.2500 366.5000 Du        
   7912 ****       130.0000 248.2500 366.7500 Du        
   7913 ****       130.0000 248.5000 350.5000 Du        
   7914 ****       130.0000 248.5000 350.7500 Du        
   7915 ****       130.0000 248.5000 351.0000 Du        
   7916 ****       130.0000 248.5000 351.2500 Du        
   7917 ****       130.0000 248.5000 351.5000 Du        
   7918 ****       130.0000 248.5000 351.7500 Du        
   7919 ****       130.0000 248.5000 352.0000 Du        
   7920 ****       130.0000 248.5000 352.2500 Du        
   7921 ****       130.0000 248.5000 352.5000 Du        
   7922 ****       130.0000 248.5000 352.7500 Du        
   7923 ****       130.0000 248.5000 365.0000 Du        
   7924 ****       130.0000 248.5000 365.2500 Du        
   7925 ****       130.0000 248.5000 365.5000 Du        
   7926 ****       130.0000 248.5000 365.7500 Du        
   7927 ****       130.0000 248.5000 366.0000 Du        
   7928 ****       130.0000 248.5000 366.2500 Du        
   7929 ****       130.0000 248.5000 366.5000 Du        
   7930 ****       130.0000 248.7500 351.0000 Du        
   7931 ****       130.0000 248.7500 351.2500 Du        
   7932 ****       130.0000 248.7500 351.5000 Du        
   7933 ****       130.0000 248.7500 351.7500 Du        
   7934 ****       130.0000 248.7500 352.0000 Du        
   7935 ****       130.0000 248.7500 352.2500 Du        
   7936 ****       130.0000 248.7500 352.5000 Du        
   7937 ****       130.0000 248.7500 352.7500 Du        
   7938 ****       130.0000 249.0000 351.5000 Du        
   7939 ****       130.0000 249.0000 351.7500 Du        
   7940 ****       130.0000 249.0000 352.0000 Du        
   7941 ****       130.0000 249.0000 352.2500 Du        
   7942 ****       130.0000 249.2500 352.0000 Du        
   7943 ****       130.2500 246.2500 349.7500 Du        
   7944 ****       130.2500 246.2500 350.0000 Du        
   7945 ****       130.2500 246.2500 350.2500 Du        
   7946 ****       130.2500 246.5000 349.7500 Du        
   7947 ****       130.2500 246.5000 350.0000 Du        
   7948 ****       130.2500 246.5000 350.2500 Du        
   7949 ****       130.2500 246.5000 350.5000 Du        
   7950 ****       130.2500 246.7500 349.7500 Du        
   7951 ****       130.2500 246.7500 350.0000 Du        
   7952 ****       130.2500 246.7500 350.2500 Du        
   7953 ****       130.2500 246.7500 350.5000 Du        
   7954 ****       130.2500 246.7500 350.7500 Du        
   7955 ****       130.2500 246.7500 351.0000 Du        
   7956 ****       130.2500 247.0000 349.7500 Du        
   7957 ****       130.2500 247.0000 350.0000 Du        
   7958 ****       130.2500 247.0000 350.2500 Du        
   7959 ****       130.2500 247.0000 350.5000 Du        
   7960 ****       130.2500 247.0000 350.7500 Du        
   7961 ****       130.2500 247.0000 351.0000 Du        
   7962 ****       130.2500 247.0000 351.2500 Du        
   7963 ****       130.2500 247.2500 349.7500 Du        
   7964 ****       130.2500 247.2500 350.0000 Du        
   7965 ****       130.2500 247.2500 350.2500 Du        
   7966 ****       130.2500 247.2500 350.5000 Du        
   7967 ****       130.2500 247.2500 350.7500 Du        
   7968 ****       130.2500 247.2500 351.0000 Du        
   7969 ****       130.2500 247.2500 351.2500 Du        
   7970 ****       130.2500 247.2500 351.5000 Du        
   7971 ****       130.2500 247.5000 349.7500 Du        
   7972 ****       130.2500 247.5000 350.0000 Du        
   7973 ****       130.2500 247.5000 350.2500 Du        
   7974 ****       130.2500 247.5000 350.5000 Du        
   7975 ****       130.2500 247.5000 350.7500 Du        
   7976 ****       130.2500 247.5000 351.0000 Du        
   7977 ****       130.2500 247.5000 351.2500 Du        
   7978 ****       130.2500 247.5000 351.5000 Du        
   7979 ****       130.2500 247.7500 349.7500 Du        
   7980 ****       130.2500 247.7500 350.0000 Du        
   7981 ****       130.2500 247.7500 350.2500 Du        
   7982 ****       130.2500 247.7500 350.5000 Du        
   7983 ****       130.2500 247.7500 350.7500 Du        
   7984 ****       130.2500 247.7500 351.0000 Du        
   7985 ****       130.2500 247.7500 351.2500 Du        
   7986 ****       130.2500 247.7500 351.5000 Du        
   7987 ****       130.2500 247.7500 351.7500 Du        
   7988 ****       130.2500 247.7500 352.0000 Du        
   7989 ****       130.2500 247.7500 352.5000 Du        
   7990 ****       130.2500 247.7500 352.7500 Du        
   7991 ****       130.2500 247.7500 353.0000 Du        
   7992 ****       130.2500 248.0000 349.7500 Du        
   7993 ****       130.2500 248.0000 350.0000 Du        
   7994 ****       130.2500 248.0000 350.2500 Du        
   7995 ****       130.2500 248.0000 350.5000 Du        
   7996 ****       130.2500 248.0000 350.7500 Du        
   7997 ****       130.2500 248.0000 351.0000 Du        
   7998 ****       130.2500 248.0000 351.2500 Du        
   7999 ****       130.2500 248.0000 351.5000 Du        
   8000 ****       130.2500 248.0000 351.7500 Du        
   8001 ****       130.2500 248.0000 352.0000 Du        
   8002 ****       130.2500 248.0000 352.2500 Du        
   8003 ****       130.2500 248.0000 352.5000 Du        
   8004 ****       130.2500 248.0000 352.7500 Du        
   8005 ****       130.2500 248.0000 353.0000 Du        
   8006 ****       130.2500 248.0000 353.2500 Du        
   8007 ****       130.2500 248.0000 365.2500 Du        
   8008 ****       130.2500 248.0000 365.5000 Du        
   8009 ****       130.2500 248.0000 365.7500 Du        
   8010 ****       130.2500 248.0000 366.0000 Du        
   8011 ****       130.2500 248.0000 366.2500 Du        
   8012 ****       130.2500 248.2500 350.2500 Du        
   8013 ****       130.2500 248.2500 350.5000 Du        
   8014 ****       130.2500 248.2500 350.7500 Du        
   8015 ****       130.2500 248.2500 351.0000 Du        
   8016 ****       130.2500 248.2500 351.2500 Du        
   8017 ****       130.2500 248.2500 351.5000 Du        
   8018 ****       130.2500 248.2500 351.7500 Du        
   8019 ****       130.2500 248.2500 352.0000 Du        
   8020 ****       130.2500 248.2500 352.2500 Du        
   8021 ****       130.2500 248.2500 352.5000 Du        
   8022 ****       130.2500 248.2500 352.7500 Du        
   8023 ****       130.2500 248.2500 353.0000 Du        
   8024 ****       130.2500 248.2500 353.2500 Du        
   8025 ****       130.2500 248.2500 354.0000 Du        
   8026 ****       130.2500 248.2500 365.0000 Du        
   8027 ****       130.2500 248.2500 365.2500 Du        
   8028 ****       130.2500 248.2500 365.5000 Du        
   8029 ****       130.2500 248.2500 365.7500 Du        
   8030 ****       130.2500 248.2500 366.0000 Du        
   8031 ****       130.2500 248.2500 366.2500 Du        
   8032 ****       130.2500 248.2500 366.5000 Du        
   8033 ****       130.2500 248.5000 350.7500 Du        
   8034 ****       130.2500 248.5000 351.0000 Du        
   8035 ****       130.2500 248.5000 351.2500 Du        
   8036 ****       130.2500 248.5000 351.5000 Du        
   8037 ****       130.2500 248.5000 351.7500 Du        
   8038 ****       130.2500 248.5000 352.0000 Du        
   8039 ****       130.2500 248.5000 352.2500 Du        
   8040 ****       130.2500 248.5000 352.5000 Du        
   8041 ****       130.2500 248.5000 352.7500 Du        
   8042 ****       130.2500 248.5000 364.7500 Du        
   8043 ****       130.2500 248.5000 365.0000 Du        
   8044 ****       130.2500 248.5000 365.2500 Du        
   8045 ****       130.2500 248.5000 365.5000 Du        
   8046 ****       130.2500 248.5000 365.7500 Du        
   8047 ****       130.2500 248.5000 366.0000 Du        
   8048 ****       130.2500 248.5000 366.2500 Du        
   8049 ****       130.2500 248.7500 351.2500 Du        
   8050 ****       130.2500 248.7500 351.5000 Du        
   8051 ****       130.2500 248.7500 351.7500 Du        
   8052 ****       130.2500 248.7500 352.0000 Du        
   8053 ****       130.2500 248.7500 352.2500 Du        
   8054 ****       130.2500 248.7500 352.5000 Du        
   8055 ****       130.2500 248.7500 352.7500 Du        
   8056 ****       130.2500 248.7500 364.7500 Du        
   8057 ****       130.2500 248.7500 365.0000 Du        
   8058 ****       130.2500 248.7500 365.2500 Du        
   8059 ****       130.2500 248.7500 365.5000 Du        
   8060 ****       130.2500 248.7500 365.7500 Du        
   8061 ****       130.2500 248.7500 366.0000 Du        
   8062 ****       130.2500 248.7500 366.2500 Du        
   8063 ****       130.2500 249.0000 351.7500 Du        
   8064 ****       130.2500 249.0000 352.0000 Du        
   8065 ****       130.2500 249.0000 352.2500 Du        
   8066 ****       130.2500 249.0000 352.5000 Du        
   8067 ****       130.2500 249.0000 352.7500 Du        
   8068 ****       130.2500 249.0000 364.7500 Du        
   8069 ****       130.2500 249.0000 365.0000 Du        
   8070 ****       130.2500 249.0000 365.2500 Du        
   8071 ****       130.2500 251.0000 360.7500 Du        
   8072 ****       130.2500 251.0000 361.0000 Du        
   8073 ****       130.5000 246.0000 349.7500 Du        
   8074 ****       130.5000 246.0000 350.0000 Du        
   8075 ****       130.5000 246.2500 349.7500 Du        
   8076 ****       130.5000 246.2500 350.0000 Du        
   8077 ****       130.5000 246.2500 350.2500 Du        
   8078 ****       130.5000 246.5000 349.7500 Du        
   8079 ****       130.5000 246.5000 350.0000 Du        
   8080 ****       130.5000 246.5000 350.2500 Du        
   8081 ****       130.5000 246.7500 349.7500 Du        
   8082 ****       130.5000 246.7500 350.0000 Du        
   8083 ****       130.5000 246.7500 350.2500 Du        
   8084 ****       130.5000 246.7500 350.5000 Du        
   8085 ****       130.5000 247.0000 349.7500 Du        
   8086 ****       130.5000 247.0000 350.0000 Du        
   8087 ****       130.5000 247.0000 350.2500 Du        
   8088 ****       130.5000 247.0000 350.5000 Du        
   8089 ****       130.5000 247.0000 350.7500 Du        
   8090 ****       130.5000 247.2500 349.7500 Du        
   8091 ****       130.5000 247.2500 350.0000 Du        
   8092 ****       130.5000 247.2500 350.2500 Du        
   8093 ****       130.5000 247.2500 350.5000 Du        
   8094 ****       130.5000 247.2500 350.7500 Du        
   8095 ****       130.5000 247.5000 349.7500 Du        
   8096 ****       130.5000 247.5000 350.0000 Du        
   8097 ****       130.5000 247.5000 350.2500 Du        
   8098 ****       130.5000 247.5000 350.5000 Du        
   8099 ****       130.5000 247.5000 350.7500 Du        
   8100 ****       130.5000 247.5000 351.0000 Du        
   8101 ****       130.5000 247.7500 349.7500 Du        
   8102 ****       130.5000 247.7500 350.0000 Du        
   8103 ****       130.5000 247.7500 350.2500 Du        
   8104 ****       130.5000 247.7500 350.5000 Du        
   8105 ****       130.5000 247.7500 350.7500 Du        
   8106 ****       130.5000 247.7500 351.0000 Du        
   8107 ****       130.5000 247.7500 351.2500 Du        
   8108 ****       130.5000 248.0000 350.0000 Du        
   8109 ****       130.5000 248.0000 350.2500 Du        
   8110 ****       130.5000 248.0000 350.5000 Du        
   8111 ****       130.5000 248.0000 350.7500 Du        
   8112 ****       130.5000 248.0000 351.0000 Du        
   8113 ****       130.5000 248.0000 351.2500 Du        
   8114 ****       130.5000 248.0000 351.5000 Du        
   8115 ****       130.5000 248.0000 351.7500 Du        
   8116 ****       130.5000 248.0000 352.0000 Du        
   8117 ****       130.5000 248.0000 354.0000 Du        
   8118 ****       130.5000 248.0000 365.2500 Du        
   8119 ****       130.5000 248.0000 365.5000 Du        
   8120 ****       130.5000 248.0000 365.7500 Du        
   8121 ****       130.5000 248.2500 350.5000 Du        
   8122 ****       130.5000 248.2500 350.7500 Du        
   8123 ****       130.5000 248.2500 351.0000 Du        
   8124 ****       130.5000 248.2500 351.2500 Du        
   8125 ****       130.5000 248.2500 351.5000 Du        
   8126 ****       130.5000 248.2500 351.7500 Du        
   8127 ****       130.5000 248.2500 352.0000 Du        
   8128 ****       130.5000 248.2500 352.2500 Du        
   8129 ****       130.5000 248.2500 364.7500 Du        
   8130 ****       130.5000 248.2500 365.0000 Du        
   8131 ****       130.5000 248.2500 365.2500 Du        
   8132 ****       130.5000 248.2500 365.5000 Du        
   8133 ****       130.5000 248.2500 365.7500 Du        
   8134 ****       130.5000 248.2500 366.0000 Du        
   8135 ****       130.5000 248.5000 351.0000 Du        
   8136 ****       130.5000 248.5000 351.2500 Du        
   8137 ****       130.5000 248.5000 351.5000 Du        
   8138 ****       130.5000 248.5000 351.7500 Du        
   8139 ****       130.5000 248.5000 352.0000 Du        
   8140 ****       130.5000 248.5000 352.2500 Du        
   8141 ****       130.5000 248.5000 364.7500 Du        
   8142 ****       130.5000 248.5000 365.0000 Du        
   8143 ****       130.5000 248.5000 365.2500 Du        
   8144 ****       130.5000 248.5000 365.5000 Du        
   8145 ****       130.5000 248.5000 365.7500 Du        
   8146 ****       130.5000 248.5000 366.0000 Du        
   8147 ****       130.5000 248.7500 351.5000 Du        
   8148 ****       130.5000 248.7500 351.7500 Du        
   8149 ****       130.5000 248.7500 352.0000 Du        
   8150 ****       130.5000 248.7500 352.2500 Du        
   8151 ****       130.5000 248.7500 364.5000 Du        
   8152 ****       130.5000 248.7500 364.7500 Du        
   8153 ****       130.5000 248.7500 365.0000 Du        
   8154 ****       130.5000 248.7500 365.2500 Du        
   8155 ****       130.5000 248.7500 365.5000 Du        
   8156 ****       130.5000 248.7500 365.7500 Du        
   8157 ****       130.5000 248.7500 366.0000 Du        
   8158 ****       130.5000 249.0000 352.0000 Du        
   8159 ****       130.5000 249.0000 352.2500 Du        
   8160 ****       130.5000 249.0000 364.5000 Du        
   8161 ****       130.5000 249.0000 364.7500 Du        
   8162 ****       130.5000 249.0000 365.0000 Du        
   8163 ****       130.5000 249.0000 365.2500 Du        
   8164 ****       130.5000 249.0000 365.5000 Du        
   8165 ****       130.5000 249.0000 365.7500 Du        
   8166 ****       130.5000 249.2500 364.2500 Du        
   8167 ****       130.5000 249.2500 364.5000 Du        
   8168 ****       130.5000 249.2500 364.7500 Du        
   8169 ****       130.5000 249.2500 365.0000 Du        
   8170 ****       130.5000 249.2500 365.2500 Du        
   8171 ****       130.5000 249.5000 364.2500 Du        
   8172 ****       130.5000 249.5000 364.5000 Du        
   8173 ****       130.5000 249.5000 364.7500 Du        
   8174 ****       130.5000 250.5000 361.5000 Du        
   8175 ****       130.5000 250.5000 361.7500 Du        
   8176 ****       130.5000 250.7500 360.7500 Du        
   8177 ****       130.5000 250.7500 361.0000 Du        
   8178 ****       130.5000 250.7500 361.2500 Du        
   8179 ****       130.5000 250.7500 361.5000 Du        
   8180 ****       130.5000 250.7500 361.7500 Du        
   8181 ****       130.5000 250.7500 362.0000 Du        
   8182 ****       130.5000 251.0000 360.5000 Du        
   8183 ****       130.5000 251.0000 360.7500 Du        
   8184 ****       130.5000 251.0000 361.0000 Du        
   8185 ****       130.5000 251.0000 361.2500 Du        
   8186 ****       130.5000 251.0000 361.5000 Du        
   8187 ****       130.5000 251.0000 361.7500 Du        
   8188 ****       130.5000 251.0000 362.0000 Du        
   8189 ****       130.5000 251.2500 360.7500 Du        
   8190 ****       130.5000 251.2500 361.0000 Du        
   8191 ****       130.5000 251.2500 361.2500 Du        
   8192 ****       130.5000 251.2500 361.5000 Du        
   8193 ****       130.5000 251.2500 361.7500 Du        
   8194 ****       130.5000 251.2500 362.0000 Du        
   8195 ****       130.5000 251.5000 361.7500 Du        
   8196 ****       130.7500 246.5000 349.7500 Du        
   8197 ****       130.7500 246.5000 350.0000 Du        
   8198 ****       130.7500 246.7500 349.7500 Du        
   8199 ****       130.7500 246.7500 350.0000 Du        
   8200 ****       130.7500 247.0000 349.7500 Du        
   8201 ****       130.7500 247.0000 350.0000 Du        
   8202 ****       130.7500 247.0000 350.2500 Du        
   8203 ****       130.7500 247.2500 349.7500 Du        
   8204 ****       130.7500 247.2500 350.0000 Du        
   8205 ****       130.7500 247.2500 350.2500 Du        
   8206 ****       130.7500 247.5000 349.7500 Du        
   8207 ****       130.7500 247.5000 350.0000 Du        
   8208 ****       130.7500 247.5000 350.2500 Du        
   8209 ****       130.7500 247.5000 350.5000 Du        
   8210 ****       130.7500 247.7500 350.2500 Du        
   8211 ****       130.7500 247.7500 350.5000 Du        
   8212 ****       130.7500 247.7500 350.7500 Du        
   8213 ****       130.7500 248.0000 350.7500 Du        
   8214 ****       130.7500 248.0000 351.0000 Du        
   8215 ****       130.7500 248.0000 354.0000 Du        
   8216 ****       130.7500 248.0000 365.0000 Du        
   8217 ****       130.7500 248.0000 365.2500 Du        
   8218 ****       130.7500 248.2500 351.2500 Du        
   8219 ****       130.7500 248.2500 364.7500 Du        
   8220 ****       130.7500 248.2500 365.0000 Du        
   8221 ****       130.7500 248.2500 365.2500 Du        
   8222 ****       130.7500 248.2500 365.5000 Du        
   8223 ****       130.7500 248.5000 352.0000 Du        
   8224 ****       130.7500 248.5000 364.5000 Du        
   8225 ****       130.7500 248.5000 364.7500 Du        
   8226 ****       130.7500 248.5000 365.0000 Du        
   8227 ****       130.7500 248.5000 365.2500 Du        
   8228 ****       130.7500 248.5000 365.5000 Du        
   8229 ****       130.7500 248.7500 352.0000 Du        
   8230 ****       130.7500 248.7500 352.2500 Du        
   8231 ****       130.7500 248.7500 364.5000 Du        
   8232 ****       130.7500 248.7500 364.7500 Du        
   8233 ****       130.7500 248.7500 365.0000 Du        
   8234 ****       130.7500 248.7500 365.2500 Du        
   8235 ****       130.7500 248.7500 365.5000 Du        
   8236 ****       130.7500 249.0000 352.0000 Du        
   8237 ****       130.7500 249.0000 352.2500 Du        
   8238 ****       130.7500 249.0000 364.2500 Du        
   8239 ****       130.7500 249.0000 364.5000 Du        
   8240 ****       130.7500 249.0000 364.7500 Du        
   8241 ****       130.7500 249.0000 365.0000 Du        
   8242 ****       130.7500 249.0000 365.2500 Du        
   8243 ****       130.7500 249.0000 365.5000 Du        
   8244 ****       130.7500 249.2500 364.0000 Du        
   8245 ****       130.7500 249.2500 364.2500 Du        
   8246 ****       130.7500 249.2500 364.5000 Du        
   8247 ****       130.7500 249.2500 364.7500 Du        
   8248 ****       130.7500 249.2500 365.0000 Du        
   8249 ****       130.7500 249.2500 365.2500 Du        
   8250 ****       130.7500 249.5000 364.0000 Du        
   8251 ****       130.7500 249.5000 364.2500 Du        
   8252 ****       130.7500 249.5000 364.5000 Du        
   8253 ****       130.7500 249.5000 364.7500 Du        
   8254 ****       130.7500 249.5000 365.0000 Du        
   8255 ****       130.7500 249.7500 363.7500 Du        
   8256 ****       130.7500 249.7500 364.0000 Du        
   8257 ****       130.7500 249.7500 364.2500 Du        
   8258 ****       130.7500 249.7500 364.5000 Du        
   8259 ****       130.7500 249.7500 364.7500 Du        
   8260 ****       130.7500 249.7500 365.0000 Du        
   8261 ****       130.7500 250.0000 363.2500 Du        
   8262 ****       130.7500 250.0000 363.5000 Du        
   8263 ****       130.7500 250.0000 363.7500 Du        
   8264 ****       130.7500 250.0000 364.0000 Du        
   8265 ****       130.7500 250.0000 364.2500 Du        
   8266 ****       130.7500 250.0000 364.5000 Du        
   8267 ****       130.7500 250.0000 364.7500 Du        
   8268 ****       130.7500 250.2500 361.5000 Du        
   8269 ****       130.7500 250.2500 361.7500 Du        
   8270 ****       130.7500 250.2500 362.0000 Du        
   8271 ****       130.7500 250.2500 362.2500 Du        
   8272 ****       130.7500 250.2500 362.5000 Du        
   8273 ****       130.7500 250.2500 362.7500 Du        
   8274 ****       130.7500 250.2500 363.0000 Du        
   8275 ****       130.7500 250.2500 363.2500 Du        
   8276 ****       130.7500 250.2500 363.5000 Du        
   8277 ****       130.7500 250.2500 363.7500 Du        
   8278 ****       130.7500 250.2500 364.0000 Du        
   8279 ****       130.7500 250.2500 364.2500 Du        
   8280 ****       130.7500 250.2500 364.5000 Du        
   8281 ****       130.7500 250.5000 361.0000 Du        
   8282 ****       130.7500 250.5000 361.2500 Du        
   8283 ****       130.7500 250.5000 361.5000 Du        
   8284 ****       130.7500 250.5000 361.7500 Du        
   8285 ****       130.7500 250.5000 362.0000 Du        
   8286 ****       130.7500 250.5000 362.2500 Du        
   8287 ****       130.7500 250.5000 362.5000 Du        
   8288 ****       130.7500 250.5000 362.7500 Du        
   8289 ****       130.7500 250.5000 363.0000 Du        
   8290 ****       130.7500 250.5000 363.2500 Du        
   8291 ****       130.7500 250.5000 363.5000 Du        
   8292 ****       130.7500 250.5000 363.7500 Du        
   8293 ****       130.7500 250.5000 364.0000 Du        
   8294 ****       130.7500 250.7500 360.7500 Du        
   8295 ****       130.7500 250.7500 361.0000 Du        
   8296 ****       130.7500 250.7500 361.2500 Du        
   8297 ****       130.7500 250.7500 361.5000 Du        
   8298 ****       130.7500 250.7500 361.7500 Du        
   8299 ****       130.7500 250.7500 362.0000 Du        
   8300 ****       130.7500 250.7500 362.2500 Du        
   8301 ****       130.7500 250.7500 362.5000 Du        
   8302 ****       130.7500 250.7500 362.7500 Du        
   8303 ****       130.7500 250.7500 363.0000 Du        
   8304 ****       130.7500 250.7500 363.2500 Du        
   8305 ****       130.7500 250.7500 363.5000 Du        
   8306 ****       130.7500 250.7500 363.7500 Du        
   8307 ****       130.7500 250.7500 364.0000 Du        
   8308 ****       130.7500 251.0000 360.5000 Du        
   8309 ****       130.7500 251.0000 360.7500 Du        
   8310 ****       130.7500 251.0000 361.0000 Du        
   8311 ****       130.7500 251.0000 361.2500 Du        
   8312 ****       130.7500 251.0000 361.5000 Du        
   8313 ****       130.7500 251.0000 361.7500 Du        
   8314 ****       130.7500 251.0000 362.0000 Du        
   8315 ****       130.7500 251.0000 362.2500 Du        
   8316 ****       130.7500 251.0000 362.5000 Du        
   8317 ****       130.7500 251.0000 362.7500 Du        
   8318 ****       130.7500 251.0000 363.0000 Du        
   8319 ****       130.7500 251.0000 363.2500 Du        
   8320 ****       130.7500 251.0000 363.5000 Du        
   8321 ****       130.7500 251.0000 363.7500 Du        
   8322 ****       130.7500 251.0000 364.0000 Du        
   8323 ****       130.7500 251.2500 360.7500 Du        
   8324 ****       130.7500 251.2500 361.0000 Du        
   8325 ****       130.7500 251.2500 361.2500 Du        
   8326 ****       130.7500 251.2500 361.5000 Du        
   8327 ****       130.7500 251.2500 361.7500 Du        
   8328 ****       130.7500 251.2500 362.0000 Du        
   8329 ****       130.7500 251.2500 362.2500 Du        
   8330 ****       130.7500 251.2500 362.5000 Du        
   8331 ****       130.7500 251.2500 362.7500 Du        
   8332 ****       130.7500 251.2500 363.0000 Du        
   8333 ****       130.7500 251.2500 363.2500 Du        
   8334 ****       130.7500 251.2500 363.5000 Du        
   8335 ****       130.7500 251.2500 363.7500 Du        
   8336 ****       130.7500 251.5000 361.0000 Du        
   8337 ****       130.7500 251.5000 361.2500 Du        
   8338 ****       130.7500 251.5000 361.5000 Du        
   8339 ****       130.7500 251.5000 361.7500 Du        
   8340 ****       130.7500 251.5000 362.0000 Du        
   8341 ****       130.7500 251.5000 362.2500 Du        
   8342 ****       130.7500 251.5000 362.5000 Du        
   8343 ****       130.7500 251.5000 362.7500 Du        
   8344 ****       130.7500 251.5000 363.0000 Du        
   8345 ****       130.7500 251.5000 363.5000 Du        
   8346 ****       130.7500 251.7500 361.0000 Du        
   8347 ****       130.7500 251.7500 361.2500 Du        
   8348 ****       130.7500 251.7500 361.5000 Du        
   8349 ****       130.7500 251.7500 361.7500 Du        
   8350 ****       130.7500 251.7500 362.0000 Du        
   8351 ****       130.7500 251.7500 362.2500 Du        
   8352 ****       130.7500 251.7500 362.5000 Du        
   8353 ****       130.7500 251.7500 362.7500 Du        
   8354 ****       130.7500 251.7500 363.0000 Du        
   8355 ****       130.7500 251.7500 363.5000 Du        
   8356 ****       130.7500 252.0000 361.2500 Du        
   8357 ****       130.7500 252.0000 361.5000 Du        
   8358 ****       130.7500 252.0000 361.7500 Du        
   8359 ****       130.7500 252.0000 362.0000 Du        
   8360 ****       130.7500 252.0000 362.2500 Du        
   8361 ****       130.7500 252.0000 362.5000 Du        
   8362 ****       130.7500 252.0000 362.7500 Du        
   8363 ****       130.7500 252.0000 363.0000 Du        
   8364 ****       130.7500 252.0000 363.5000 Du        
   8365 ****       130.7500 252.0000 363.7500 Du        
   8366 ****       130.7500 252.2500 361.2500 Du        
   8367 ****       130.7500 252.2500 361.5000 Du        
   8368 ****       130.7500 252.2500 361.7500 Du        
   8369 ****       130.7500 252.2500 362.0000 Du        
   8370 ****       130.7500 252.2500 362.2500 Du        
   8371 ****       130.7500 252.2500 362.5000 Du        
   8372 ****       130.7500 252.5000 361.5000 Du        
   8373 ****       130.7500 252.5000 361.7500 Du        
   8374 ****       130.7500 252.5000 362.0000 Du        
   8375 ****       130.7500 252.7500 361.5000 Du        
   8376 ****       130.7500 252.7500 361.7500 Du        
   8377 ****       130.7500 252.7500 362.0000 Du        
   8378 ****       131.0000 246.5000 349.7500 Du        
   8379 ****       131.0000 246.7500 349.7500 Du        
   8380 ****       131.0000 247.0000 349.7500 Du        
   8381 ****       131.0000 248.2500 364.7500 Du        
   8382 ****       131.0000 248.2500 365.0000 Du        
   8383 ****       131.0000 248.2500 365.2500 Du        
   8384 ****       131.0000 248.5000 364.7500 Du        
   8385 ****       131.0000 248.5000 365.0000 Du        
   8386 ****       131.0000 248.5000 365.2500 Du        
   8387 ****       131.0000 248.7500 364.5000 Du        
   8388 ****       131.0000 248.7500 364.7500 Du        
   8389 ****       131.0000 248.7500 365.0000 Du        
   8390 ****       131.0000 248.7500 365.2500 Du        
   8391 ****       131.0000 249.0000 364.2500 Du        
   8392 ****       131.0000 249.0000 364.5000 Du        
   8393 ****       131.0000 249.0000 364.7500 Du        
   8394 ****       131.0000 249.0000 365.0000 Du        
   8395 ****       131.0000 249.0000 365.2500 Du        
   8396 ****       131.0000 249.2500 364.0000 Du        
   8397 ****       131.0000 249.2500 364.2500 Du        
   8398 ****       131.0000 249.2500 364.5000 Du        
   8399 ****       131.0000 249.2500 364.7500 Du        
   8400 ****       131.0000 249.2500 365.0000 Du        
   8401 ****       131.0000 249.5000 363.7500 Du        
   8402 ****       131.0000 249.5000 364.0000 Du        
   8403 ****       131.0000 249.5000 364.2500 Du        
   8404 ****       131.0000 249.5000 364.5000 Du        
   8405 ****       131.0000 249.5000 364.7500 Du        
   8406 ****       131.0000 249.7500 363.5000 Du        
   8407 ****       131.0000 249.7500 363.7500 Du        
   8408 ****       131.0000 249.7500 364.0000 Du        
   8409 ****       131.0000 249.7500 364.2500 Du        
   8410 ****       131.0000 249.7500 364.5000 Du        
   8411 ****       131.0000 249.7500 364.7500 Du        
   8412 ****       131.0000 250.0000 362.7500 Du        
   8413 ****       131.0000 250.0000 363.0000 Du        
   8414 ****       131.0000 250.0000 363.2500 Du        
   8415 ****       131.0000 250.0000 363.5000 Du        
   8416 ****       131.0000 250.0000 363.7500 Du        
   8417 ****       131.0000 250.0000 364.0000 Du        
   8418 ****       131.0000 250.0000 364.2500 Du        
   8419 ****       131.0000 250.0000 364.5000 Du        
   8420 ****       131.0000 250.2500 361.2500 Du        
   8421 ****       131.0000 250.2500 361.5000 Du        
   8422 ****       131.0000 250.2500 361.7500 Du        
   8423 ****       131.0000 250.2500 362.0000 Du        
   8424 ****       131.0000 250.2500 362.2500 Du        
   8425 ****       131.0000 250.2500 362.5000 Du        
   8426 ****       131.0000 250.2500 362.7500 Du        
   8427 ****       131.0000 250.2500 363.0000 Du        
   8428 ****       131.0000 250.2500 363.2500 Du        
   8429 ****       131.0000 250.2500 363.5000 Du        
   8430 ****       131.0000 250.2500 363.7500 Du        
   8431 ****       131.0000 250.2500 364.0000 Du        
   8432 ****       131.0000 250.2500 364.2500 Du        
   8433 ****       131.0000 250.5000 361.0000 Du        
   8434 ****       131.0000 250.5000 361.2500 Du        
   8435 ****       131.0000 250.5000 361.5000 Du        
   8436 ****       131.0000 250.5000 361.7500 Du        
   8437 ****       131.0000 250.5000 362.0000 Du        
   8438 ****       131.0000 250.5000 362.2500 Du        
   8439 ****       131.0000 250.5000 362.5000 Du        
   8440 ****       131.0000 250.5000 362.7500 Du        
   8441 ****       131.0000 250.5000 363.0000 Du        
   8442 ****       131.0000 250.5000 363.2500 Du        
   8443 ****       131.0000 250.5000 363.5000 Du        
   8444 ****       131.0000 250.5000 363.7500 Du        
   8445 ****       131.0000 250.5000 364.0000 Du        
   8446 ****       131.0000 250.7500 360.7500 Du        
   8447 ****       131.0000 250.7500 361.0000 Du        
   8448 ****       131.0000 250.7500 361.2500 Du        
   8449 ****       131.0000 250.7500 361.5000 Du        
   8450 ****       131.0000 250.7500 361.7500 Du        
   8451 ****       131.0000 250.7500 362.0000 Du        
   8452 ****       131.0000 250.7500 362.2500 Du        
   8453 ****       131.0000 250.7500 362.5000 Du        
   8454 ****       131.0000 250.7500 362.7500 Du        
   8455 ****       131.0000 250.7500 363.0000 Du        
   8456 ****       131.0000 250.7500 363.2500 Du        
   8457 ****       131.0000 250.7500 363.5000 Du        
   8458 ****       131.0000 250.7500 363.7500 Du        
   8459 ****       131.0000 251.0000 360.7500 Du        
   8460 ****       131.0000 251.0000 361.0000 Du        
   8461 ****       131.0000 251.0000 361.2500 Du        
   8462 ****       131.0000 251.0000 361.5000 Du        
   8463 ****       131.0000 251.0000 361.7500 Du        
   8464 ****       131.0000 251.0000 362.0000 Du        
   8465 ****       131.0000 251.0000 362.2500 Du        
   8466 ****       131.0000 251.0000 362.5000 Du        
   8467 ****       131.0000 251.0000 362.7500 Du        
   8468 ****       131.0000 251.0000 363.0000 Du        
   8469 ****       131.0000 251.0000 363.2500 Du        
   8470 ****       131.0000 251.0000 363.5000 Du        
   8471 ****       131.0000 251.0000 363.7500 Du        
   8472 ****       131.0000 251.2500 360.5000 Du        
   8473 ****       131.0000 251.2500 360.7500 Du        
   8474 ****       131.0000 251.2500 361.0000 Du        
   8475 ****       131.0000 251.2500 361.2500 Du        
   8476 ****       131.0000 251.2500 361.5000 Du        
   8477 ****       131.0000 251.2500 361.7500 Du        
   8478 ****       131.0000 251.2500 362.0000 Du        
   8479 ****       131.0000 251.2500 362.2500 Du        
   8480 ****       131.0000 251.2500 362.5000 Du        
   8481 ****       131.0000 251.2500 362.7500 Du        
   8482 ****       131.0000 251.2500 363.0000 Du        
   8483 ****       131.0000 251.2500 363.2500 Du        
   8484 ****       131.0000 251.2500 363.5000 Du        
   8485 ****       131.0000 251.5000 361.0000 Du        
   8486 ****       131.0000 251.5000 361.2500 Du        
   8487 ****       131.0000 251.5000 361.5000 Du        
   8488 ****       131.0000 251.5000 361.7500 Du        
   8489 ****       131.0000 251.5000 362.0000 Du        
   8490 ****       131.0000 251.5000 362.2500 Du        
   8491 ****       131.0000 251.5000 362.5000 Du        
   8492 ****       131.0000 251.5000 362.7500 Du        
   8493 ****       131.0000 251.5000 363.0000 Du        
   8494 ****       131.0000 251.5000 363.2500 Du        
   8495 ****       131.0000 251.5000 363.5000 Du        
   8496 ****       131.0000 251.7500 360.7500 Du        
   8497 ****       131.0000 251.7500 361.0000 Du        
   8498 ****       131.0000 251.7500 361.2500 Du        
   8499 ****       131.0000 251.7500 361.5000 Du        
   8500 ****       131.0000 251.7500 361.7500 Du        
   8501 ****       131.0000 251.7500 362.0000 Du        
   8502 ****       131.0000 251.7500 362.2500 Du        
   8503 ****       131.0000 251.7500 362.5000 Du        
   8504 ****       131.0000 251.7500 362.7500 Du        
   8505 ****       131.0000 251.7500 363.0000 Du        
   8506 ****       131.0000 251.7500 363.2500 Du        
   8507 ****       131.0000 251.7500 363.5000 Du        
   8508 ****       131.0000 252.0000 361.0000 Du        
   8509 ****       131.0000 252.0000 361.2500 Du        
   8510 ****       131.0000 252.0000 361.5000 Du        
   8511 ****       131.0000 252.0000 361.7500 Du        
   8512 ****       131.0000 252.0000 362.0000 Du        
   8513 ****       131.0000 252.0000 362.2500 Du        
   8514 ****       131.0000 252.0000 362.5000 Du        
   8515 ****       131.0000 252.0000 362.7500 Du        
   8516 ****       131.0000 252.0000 363.0000 Du        
   8517 ****       131.0000 252.0000 363.2500 Du        
   8518 ****       131.0000 252.0000 363.5000 Du        
   8519 ****       131.0000 252.2500 361.2500 Du        
   8520 ****       131.0000 252.2500 361.5000 Du        
   8521 ****       131.0000 252.2500 361.7500 Du        
   8522 ****       131.0000 252.2500 362.0000 Du        
   8523 ****       131.0000 252.2500 362.2500 Du        
   8524 ****       131.0000 252.2500 362.5000 Du        
   8525 ****       131.0000 252.2500 362.7500 Du        
   8526 ****       131.0000 252.2500 363.0000 Du        
   8527 ****       131.0000 252.5000 361.5000 Du        
   8528 ****       131.0000 252.5000 361.7500 Du        
   8529 ****       131.0000 252.5000 362.0000 Du        
   8530 ****       131.0000 252.5000 362.2500 Du        
   8531 ****       131.0000 252.7500 361.5000 Du        
   8532 ****       131.0000 252.7500 361.7500 Du        
   8533 ****       131.0000 252.7500 362.0000 Du        
   8534 ****       131.2500 248.2500 354.2500 Du        
   8535 ****       131.2500 248.2500 354.5000 Du        
   8536 ****       131.2500 248.5000 364.7500 Du        
   8537 ****       131.2500 248.7500 364.5000 Du        
   8538 ****       131.2500 248.7500 364.7500 Du        
   8539 ****       131.2500 248.7500 365.0000 Du        
   8540 ****       131.2500 249.0000 364.5000 Du        
   8541 ****       131.2500 249.0000 364.7500 Du        
   8542 ****       131.2500 249.2500 364.2500 Du        
   8543 ****       131.2500 249.2500 364.5000 Du        
   8544 ****       131.2500 249.5000 364.0000 Du        
   8545 ****       131.2500 249.5000 364.2500 Du        
   8546 ****       131.2500 249.7500 363.5000 Du        
   8547 ****       131.2500 249.7500 363.7500 Du        
   8548 ****       131.2500 249.7500 364.0000 Du        
   8549 ****       131.2500 250.0000 362.7500 Du        
   8550 ****       131.2500 250.0000 363.0000 Du        
   8551 ****       131.2500 250.0000 363.2500 Du        
   8552 ****       131.2500 250.0000 363.5000 Du        
   8553 ****       131.2500 250.0000 363.7500 Du        
   8554 ****       131.2500 250.0000 364.0000 Du        
   8555 ****       131.2500 250.2500 361.5000 Du        
   8556 ****       131.2500 250.2500 361.7500 Du        
   8557 ****       131.2500 250.2500 362.0000 Du        
   8558 ****       131.2500 250.2500 362.2500 Du        
   8559 ****       131.2500 250.2500 362.5000 Du        
   8560 ****       131.2500 250.2500 362.7500 Du        
   8561 ****       131.2500 250.2500 363.0000 Du        
   8562 ****       131.2500 250.2500 363.2500 Du        
   8563 ****       131.2500 250.2500 363.5000 Du        
   8564 ****       131.2500 250.2500 363.7500 Du        
   8565 ****       131.2500 250.5000 361.2500 Du        
   8566 ****       131.2500 250.5000 361.5000 Du        
   8567 ****       131.2500 250.5000 361.7500 Du        
   8568 ****       131.2500 250.5000 362.0000 Du        
   8569 ****       131.2500 250.5000 362.2500 Du        
   8570 ****       131.2500 250.5000 362.5000 Du        
   8571 ****       131.2500 250.5000 362.7500 Du        
   8572 ****       131.2500 250.5000 363.0000 Du        
   8573 ****       131.2500 250.5000 363.2500 Du        
   8574 ****       131.2500 250.5000 363.5000 Du        
   8575 ****       131.2500 250.7500 360.7500 Du        
   8576 ****       131.2500 250.7500 361.0000 Du        
   8577 ****       131.2500 250.7500 361.2500 Du        
   8578 ****       131.2500 250.7500 361.5000 Du        
   8579 ****       131.2500 250.7500 361.7500 Du        
   8580 ****       131.2500 250.7500 362.0000 Du        
   8581 ****       131.2500 250.7500 362.2500 Du        
   8582 ****       131.2500 250.7500 362.5000 Du        
   8583 ****       131.2500 250.7500 362.7500 Du        
   8584 ****       131.2500 250.7500 363.0000 Du        
   8585 ****       131.2500 250.7500 363.2500 Du        
   8586 ****       131.2500 250.7500 363.5000 Du        
   8587 ****       131.2500 251.0000 360.7500 Du        
   8588 ****       131.2500 251.0000 361.0000 Du        
   8589 ****       131.2500 251.0000 361.2500 Du        
   8590 ****       131.2500 251.0000 361.5000 Du        
   8591 ****       131.2500 251.0000 361.7500 Du        
   8592 ****       131.2500 251.0000 362.0000 Du        
   8593 ****       131.2500 251.0000 362.2500 Du        
   8594 ****       131.2500 251.0000 362.5000 Du        
   8595 ****       131.2500 251.0000 362.7500 Du        
   8596 ****       131.2500 251.0000 363.0000 Du        
   8597 ****       131.2500 251.0000 363.2500 Du        
   8598 ****       131.2500 251.2500 360.7500 Du        
   8599 ****       131.2500 251.2500 361.0000 Du        
   8600 ****       131.2500 251.2500 361.2500 Du        
   8601 ****       131.2500 251.2500 361.5000 Du        
   8602 ****       131.2500 251.2500 361.7500 Du        
   8603 ****       131.2500 251.2500 362.0000 Du        
   8604 ****       131.2500 251.2500 362.2500 Du        
   8605 ****       131.2500 251.2500 362.5000 Du        
   8606 ****       131.2500 251.2500 362.7500 Du        
   8607 ****       131.2500 251.2500 363.0000 Du        
   8608 ****       131.2500 251.2500 363.2500 Du        
   8609 ****       131.2500 251.5000 361.0000 Du        
   8610 ****       131.2500 251.5000 361.2500 Du        
   8611 ****       131.2500 251.5000 361.5000 Du        
   8612 ****       131.2500 251.5000 361.7500 Du        
   8613 ****       131.2500 251.5000 362.0000 Du        
   8614 ****       131.2500 251.5000 362.2500 Du        
   8615 ****       131.2500 251.5000 362.5000 Du        
   8616 ****       131.2500 251.5000 362.7500 Du        
   8617 ****       131.2500 251.5000 363.0000 Du        
   8618 ****       131.2500 251.7500 360.7500 Du        
   8619 ****       131.2500 251.7500 361.0000 Du        
   8620 ****       131.2500 251.7500 361.2500 Du        
   8621 ****       131.2500 251.7500 361.5000 Du        
   8622 ****       131.2500 251.7500 361.7500 Du        
   8623 ****       131.2500 251.7500 362.0000 Du        
   8624 ****       131.2500 251.7500 362.2500 Du        
   8625 ****       131.2500 251.7500 362.5000 Du        
   8626 ****       131.2500 251.7500 362.7500 Du        
   8627 ****       131.2500 251.7500 363.0000 Du        
   8628 ****       131.2500 252.0000 360.7500 Du        
   8629 ****       131.2500 252.0000 361.0000 Du        
   8630 ****       131.2500 252.0000 361.2500 Du        
   8631 ****       131.2500 252.0000 361.5000 Du        
   8632 ****       131.2500 252.0000 361.7500 Du        
   8633 ****       131.2500 252.0000 362.0000 Du        
   8634 ****       131.2500 252.0000 362.2500 Du        
   8635 ****       131.2500 252.0000 362.5000 Du        
   8636 ****       131.2500 252.0000 362.7500 Du        
   8637 ****       131.2500 252.0000 363.0000 Du        
   8638 ****       131.2500 252.2500 361.0000 Du        
   8639 ****       131.2500 252.2500 361.2500 Du        
   8640 ****       131.2500 252.2500 361.5000 Du        
   8641 ****       131.2500 252.2500 361.7500 Du        
   8642 ****       131.2500 252.2500 362.0000 Du        
   8643 ****       131.2500 252.2500 362.2500 Du        
   8644 ****       131.2500 252.2500 362.5000 Du        
   8645 ****       131.2500 252.2500 362.7500 Du        
   8646 ****       131.2500 252.5000 361.5000 Du        
   8647 ****       131.2500 252.5000 361.7500 Du        
   8648 ****       131.2500 252.5000 362.0000 Du        
   8649 ****       131.2500 252.5000 362.2500 Du        
   8650 ****       131.2500 252.7500 361.5000 Du        
   8651 ****       131.2500 252.7500 361.7500 Du        
   8652 ****       131.5000 248.2500 354.2500 Du        
   8653 ****       131.5000 250.0000 363.0000 Du        
   8654 ****       131.5000 250.2500 361.7500 Du        
   8655 ****       131.5000 250.2500 362.0000 Du        
   8656 ****       131.5000 250.2500 362.2500 Du        
   8657 ****       131.5000 250.2500 362.5000 Du        
   8658 ****       131.5000 250.2500 362.7500 Du        
   8659 ****       131.5000 250.2500 363.0000 Du        
   8660 ****       131.5000 250.2500 363.2500 Du        
   8661 ****       131.5000 250.5000 361.5000 Du        
   8662 ****       131.5000 250.5000 361.7500 Du        
   8663 ****       131.5000 250.5000 362.0000 Du        
   8664 ****       131.5000 250.5000 362.2500 Du        
   8665 ****       131.5000 250.5000 362.5000 Du        
   8666 ****       131.5000 250.5000 362.7500 Du        
   8667 ****       131.5000 250.5000 363.0000 Du        
   8668 ****       131.5000 250.7500 361.0000 Du        
   8669 ****       131.5000 250.7500 361.2500 Du        
   8670 ****       131.5000 250.7500 361.5000 Du        
   8671 ****       131.5000 250.7500 361.7500 Du        
   8672 ****       131.5000 250.7500 362.0000 Du        
   8673 ****       131.5000 250.7500 362.2500 Du        
   8674 ****       131.5000 250.7500 362.5000 Du        
   8675 ****       131.5000 250.7500 362.7500 Du        
   8676 ****       131.5000 250.7500 363.0000 Du        
   8677 ****       131.5000 251.0000 360.7500 Du        
   8678 ****       131.5000 251.0000 361.0000 Du        
   8679 ****       131.5000 251.0000 361.2500 Du        
   8680 ****       131.5000 251.0000 361.5000 Du        
   8681 ****       131.5000 251.0000 361.7500 Du        
   8682 ****       131.5000 251.0000 362.0000 Du        
   8683 ****       131.5000 251.0000 362.2500 Du        
   8684 ****       131.5000 251.0000 362.5000 Du        
   8685 ****       131.5000 251.0000 362.7500 Du        
   8686 ****       131.5000 251.0000 363.0000 Du        
   8687 ****       131.5000 251.2500 360.7500 Du        
   8688 ****       131.5000 251.2500 361.0000 Du        
   8689 ****       131.5000 251.2500 361.2500 Du        
   8690 ****       131.5000 251.2500 361.5000 Du        
   8691 ****       131.5000 251.2500 361.7500 Du        
   8692 ****       131.5000 251.2500 362.0000 Du        
   8693 ****       131.5000 251.2500 362.2500 Du        
   8694 ****       131.5000 251.2500 362.5000 Du        
   8695 ****       131.5000 251.2500 362.7500 Du        
   8696 ****       131.5000 251.5000 360.7500 Du        
   8697 ****       131.5000 251.5000 361.0000 Du        
   8698 ****       131.5000 251.5000 361.2500 Du        
   8699 ****       131.5000 251.5000 361.5000 Du        
   8700 ****       131.5000 251.5000 361.7500 Du        
   8701 ****       131.5000 251.5000 362.0000 Du        
   8702 ****       131.5000 251.5000 362.2500 Du        
   8703 ****       131.5000 251.5000 362.5000 Du        
   8704 ****       131.5000 251.5000 362.7500 Du        
   8705 ****       131.5000 251.7500 360.7500 Du        
   8706 ****       131.5000 251.7500 361.0000 Du        
   8707 ****       131.5000 251.7500 361.2500 Du        
   8708 ****       131.5000 251.7500 361.5000 Du        
   8709 ****       131.5000 251.7500 361.7500 Du        
   8710 ****       131.5000 251.7500 362.0000 Du        
   8711 ****       131.5000 251.7500 362.2500 Du        
   8712 ****       131.5000 251.7500 362.5000 Du        
   8713 ****       131.5000 251.7500 362.7500 Du        
   8714 ****       131.5000 252.0000 360.7500 Du        
   8715 ****       131.5000 252.0000 361.0000 Du        
   8716 ****       131.5000 252.0000 361.2500 Du        
   8717 ****       131.5000 252.0000 361.5000 Du        
   8718 ****       131.5000 252.0000 361.7500 Du        
   8719 ****       131.5000 252.0000 362.0000 Du        
   8720 ****       131.5000 252.0000 362.2500 Du        
   8721 ****       131.5000 252.0000 362.5000 Du        
   8722 ****       131.5000 252.0000 362.7500 Du        
   8723 ****       131.5000 252.2500 361.0000 Du        
   8724 ****       131.5000 252.2500 361.2500 Du        
   8725 ****       131.5000 252.2500 361.5000 Du        
   8726 ****       131.5000 252.2500 361.7500 Du        
   8727 ****       131.5000 252.2500 362.0000 Du        
   8728 ****       131.5000 252.2500 362.2500 Du        
   8729 ****       131.5000 252.2500 362.5000 Du        
   8730 ****       131.5000 252.2500 362.7500 Du        
   8731 ****       131.5000 252.5000 361.2500 Du        
   8732 ****       131.5000 252.5000 361.5000 Du        
   8733 ****       131.5000 252.5000 361.7500 Du        
   8734 ****       131.5000 252.5000 362.0000 Du        
   8735 ****       131.5000 252.7500 361.5000 Du        
   8736 ****       131.5000 252.7500 361.7500 Du        
   8737 ****       131.7500 250.2500 362.2500 Du        
   8738 ****       131.7500 250.2500 362.5000 Du        
   8739 ****       131.7500 250.2500 362.7500 Du        
   8740 ****       131.7500 250.5000 361.5000 Du        
   8741 ****       131.7500 250.5000 361.7500 Du        
   8742 ****       131.7500 250.5000 362.0000 Du        
   8743 ****       131.7500 250.5000 362.2500 Du        
   8744 ****       131.7500 250.5000 362.5000 Du        
   8745 ****       131.7500 250.5000 362.7500 Du        
   8746 ****       131.7500 250.7500 361.2500 Du        
   8747 ****       131.7500 250.7500 361.5000 Du        
   8748 ****       131.7500 250.7500 361.7500 Du        
   8749 ****       131.7500 250.7500 362.0000 Du        
   8750 ****       131.7500 250.7500 362.2500 Du        
   8751 ****       131.7500 250.7500 362.5000 Du        
   8752 ****       131.7500 250.7500 362.7500 Du        
   8753 ****       131.7500 251.0000 360.7500 Du        
   8754 ****       131.7500 251.0000 361.0000 Du        
   8755 ****       131.7500 251.0000 361.2500 Du        
   8756 ****       131.7500 251.0000 361.5000 Du        
   8757 ****       131.7500 251.0000 361.7500 Du        
   8758 ****       131.7500 251.0000 362.0000 Du        
   8759 ****       131.7500 251.0000 362.2500 Du        
   8760 ****       131.7500 251.0000 362.5000 Du        
   8761 ****       131.7500 251.0000 362.7500 Du        
   8762 ****       131.7500 251.2500 360.7500 Du        
   8763 ****       131.7500 251.2500 361.0000 Du        
   8764 ****       131.7500 251.2500 361.2500 Du        
   8765 ****       131.7500 251.2500 361.5000 Du        
   8766 ****       131.7500 251.2500 361.7500 Du        
   8767 ****       131.7500 251.2500 362.0000 Du        
   8768 ****       131.7500 251.2500 362.2500 Du        
   8769 ****       131.7500 251.2500 362.5000 Du        
   8770 ****       131.7500 251.2500 362.7500 Du        
   8771 ****       131.7500 251.5000 360.7500 Du        
   8772 ****       131.7500 251.5000 361.0000 Du        
   8773 ****       131.7500 251.5000 361.2500 Du        
   8774 ****       131.7500 251.5000 361.5000 Du        
   8775 ****       131.7500 251.5000 361.7500 Du        
   8776 ****       131.7500 251.5000 362.0000 Du        
   8777 ****       131.7500 251.5000 362.2500 Du        
   8778 ****       131.7500 251.5000 362.5000 Du        
   8779 ****       131.7500 251.7500 360.5000 Du        
   8780 ****       131.7500 251.7500 360.7500 Du        
   8781 ****       131.7500 251.7500 361.0000 Du        
   8782 ****       131.7500 251.7500 361.2500 Du        
   8783 ****       131.7500 251.7500 361.5000 Du        
   8784 ****       131.7500 251.7500 361.7500 Du        
   8785 ****       131.7500 251.7500 362.0000 Du        
   8786 ****       131.7500 251.7500 362.2500 Du        
   8787 ****       131.7500 251.7500 362.5000 Du        
   8788 ****       131.7500 251.7500 362.7500 Du        
   8789 ****       131.7500 252.0000 360.5000 Du        
   8790 ****       131.7500 252.0000 360.7500 Du        
   8791 ****       131.7500 252.0000 361.0000 Du        
   8792 ****       131.7500 252.0000 361.2500 Du        
   8793 ****       131.7500 252.0000 361.5000 Du        
   8794 ****       131.7500 252.0000 361.7500 Du        
   8795 ****       131.7500 252.0000 362.0000 Du        
   8796 ****       131.7500 252.0000 362.2500 Du        
   8797 ****       131.7500 252.0000 362.5000 Du        
   8798 ****       131.7500 252.2500 360.5000 Du        
   8799 ****       131.7500 252.2500 360.7500 Du        
   8800 ****       131.7500 252.2500 361.0000 Du        
   8801 ****       131.7500 252.2500 361.2500 Du        
   8802 ****       131.7500 252.2500 361.5000 Du        
   8803 ****       131.7500 252.2500 361.7500 Du        
   8804 ****       131.7500 252.2500 362.0000 Du        
   8805 ****       131.7500 252.2500 362.2500 Du        
   8806 ****       131.7500 252.2500 362.5000 Du        
   8807 ****       131.7500 252.5000 361.0000 Du        
   8808 ****       131.7500 252.5000 361.2500 Du        
   8809 ****       131.7500 252.5000 361.5000 Du        
   8810 ****       131.7500 252.5000 361.7500 Du        
   8811 ****       131.7500 252.5000 362.0000 Du        
   8812 ****       131.7500 252.7500 361.0000 Du        
   8813 ****       131.7500 252.7500 361.2500 Du        
   8814 ****       131.7500 252.7500 361.5000 Du        
   8815 ****       131.7500 252.7500 361.7500 Du        
   8816 ****       131.7500 253.0000 361.0000 Du        
   8817 ****       131.7500 253.0000 361.2500 Du        
   8818 ****       131.7500 253.0000 361.5000 Du        
   8819 ****       132.0000 250.5000 362.0000 Du        
   8820 ****       132.0000 250.5000 362.2500 Du        
   8821 ****       132.0000 250.5000 362.5000 Du        
   8822 ****       132.0000 250.7500 361.5000 Du        
   8823 ****       132.0000 250.7500 361.7500 Du        
   8824 ****       132.0000 250.7500 362.0000 Du        
   8825 ****       132.0000 250.7500 362.2500 Du        
   8826 ****       132.0000 250.7500 362.5000 Du        
   8827 ****       132.0000 251.0000 361.0000 Du        
   8828 ****       132.0000 251.0000 361.2500 Du        
   8829 ****       132.0000 251.0000 361.5000 Du        
   8830 ****       132.0000 251.0000 361.7500 Du        
   8831 ****       132.0000 251.0000 362.0000 Du        
   8832 ****       132.0000 251.0000 362.2500 Du        
   8833 ****       132.0000 251.0000 362.5000 Du        
   8834 ****       132.0000 251.2500 360.7500 Du        
   8835 ****       132.0000 251.2500 361.0000 Du        
   8836 ****       132.0000 251.2500 361.2500 Du        
   8837 ****       132.0000 251.2500 361.5000 Du        
   8838 ****       132.0000 251.2500 361.7500 Du        
   8839 ****       132.0000 251.2500 362.0000 Du        
   8840 ****       132.0000 251.2500 362.2500 Du        
   8841 ****       132.0000 251.2500 362.5000 Du        
   8842 ****       132.0000 251.5000 360.5000 Du        
   8843 ****       132.0000 251.5000 360.7500 Du        
   8844 ****       132.0000 251.5000 361.0000 Du        
   8845 ****       132.0000 251.5000 361.2500 Du        
   8846 ****       132.0000 251.5000 361.5000 Du        
   8847 ****       132.0000 251.5000 361.7500 Du        
   8848 ****       132.0000 251.5000 362.0000 Du        
   8849 ****       132.0000 251.5000 362.2500 Du        
   8850 ****       132.0000 251.5000 362.5000 Du        
   8851 ****       132.0000 251.7500 360.5000 Du        
   8852 ****       132.0000 251.7500 360.7500 Du        
   8853 ****       132.0000 251.7500 361.0000 Du        
   8854 ****       132.0000 251.7500 361.2500 Du        
   8855 ****       132.0000 251.7500 361.5000 Du        
   8856 ****       132.0000 251.7500 361.7500 Du        
   8857 ****       132.0000 251.7500 362.0000 Du        
   8858 ****       132.0000 251.7500 362.2500 Du        
   8859 ****       132.0000 251.7500 362.5000 Du        
   8860 ****       132.0000 252.0000 360.2500 Du        
   8861 ****       132.0000 252.0000 360.5000 Du        
   8862 ****       132.0000 252.0000 360.7500 Du        
   8863 ****       132.0000 252.0000 361.0000 Du        
   8864 ****       132.0000 252.0000 361.2500 Du        
   8865 ****       132.0000 252.0000 361.5000 Du        
   8866 ****       132.0000 252.0000 361.7500 Du        
   8867 ****       132.0000 252.0000 362.0000 Du        
   8868 ****       132.0000 252.0000 362.2500 Du        
   8869 ****       132.0000 252.0000 362.5000 Du        
   8870 ****       132.0000 252.2500 360.5000 Du        
   8871 ****       132.0000 252.2500 360.7500 Du        
   8872 ****       132.0000 252.2500 361.0000 Du        
   8873 ****       132.0000 252.2500 361.2500 Du        
   8874 ****       132.0000 252.2500 361.5000 Du        
   8875 ****       132.0000 252.2500 361.7500 Du        
   8876 ****       132.0000 252.2500 362.0000 Du        
   8877 ****       132.0000 252.2500 362.2500 Du        
   8878 ****       132.0000 252.2500 362.5000 Du        
   8879 ****       132.0000 252.5000 360.7500 Du        
   8880 ****       132.0000 252.5000 361.0000 Du        
   8881 ****       132.0000 252.5000 361.2500 Du        
   8882 ****       132.0000 252.5000 361.5000 Du        
   8883 ****       132.0000 252.5000 361.7500 Du        
   8884 ****       132.0000 252.5000 362.0000 Du        
   8885 ****       132.0000 252.7500 360.7500 Du        
   8886 ****       132.0000 252.7500 361.0000 Du        
   8887 ****       132.0000 252.7500 361.2500 Du        
   8888 ****       132.0000 252.7500 361.5000 Du        
   8889 ****       132.0000 252.7500 361.7500 Du        
   8890 ****       132.0000 253.0000 361.0000 Du        
   8891 ****       132.0000 253.0000 361.2500 Du        
   8892 ****       132.0000 253.0000 361.5000 Du        
   8893 ****       132.0000 253.2500 361.0000 Du        
   8894 ****       132.2500 250.7500 361.5000 Du        
   8895 ****       132.2500 250.7500 361.7500 Du        
   8896 ****       132.2500 250.7500 362.0000 Du        
   8897 ****       132.2500 250.7500 362.2500 Du        
   8898 ****       132.2500 251.0000 361.0000 Du        
   8899 ****       132.2500 251.0000 361.2500 Du        
   8900 ****       132.2500 251.0000 361.5000 Du        
   8901 ****       132.2500 251.0000 361.7500 Du        
   8902 ****       132.2500 251.0000 362.0000 Du        
   8903 ****       132.2500 251.0000 362.2500 Du        
   8904 ****       132.2500 251.2500 360.7500 Du        
   8905 ****       132.2500 251.2500 361.0000 Du        
   8906 ****       132.2500 251.2500 361.2500 Du        
   8907 ****       132.2500 251.2500 361.5000 Du        
   8908 ****       132.2500 251.2500 361.7500 Du        
   8909 ****       132.2500 251.2500 362.0000 Du        
   8910 ****       132.2500 251.2500 362.2500 Du        
   8911 ****       132.2500 251.5000 360.7500 Du        
   8912 ****       132.2500 251.5000 361.0000 Du        
   8913 ****       132.2500 251.5000 361.2500 Du        
   8914 ****       132.2500 251.5000 361.5000 Du        
   8915 ****       132.2500 251.5000 361.7500 Du        
   8916 ****       132.2500 251.5000 362.0000 Du        
   8917 ****       132.2500 251.5000 362.2500 Du        
   8918 ****       132.2500 251.7500 360.5000 Du        
   8919 ****       132.2500 251.7500 360.7500 Du        
   8920 ****       132.2500 251.7500 361.0000 Du        
   8921 ****       132.2500 251.7500 361.2500 Du        
   8922 ****       132.2500 251.7500 361.5000 Du        
   8923 ****       132.2500 251.7500 361.7500 Du        
   8924 ****       132.2500 251.7500 362.0000 Du        
   8925 ****       132.2500 251.7500 362.2500 Du        
   8926 ****       132.2500 252.0000 360.2500 Du        
   8927 ****       132.2500 252.0000 360.5000 Du        
   8928 ****       132.2500 252.0000 360.7500 Du        
   8929 ****       132.2500 252.0000 361.0000 Du        
   8930 ****       132.2500 252.0000 361.2500 Du        
   8931 ****       132.2500 252.0000 361.5000 Du        
   8932 ****       132.2500 252.0000 361.7500 Du        
   8933 ****       132.2500 252.0000 362.0000 Du        
   8934 ****       132.2500 252.0000 362.2500 Du        
   8935 ****       132.2500 252.2500 360.2500 Du        
   8936 ****       132.2500 252.2500 360.5000 Du        
   8937 ****       132.2500 252.2500 360.7500 Du        
   8938 ****       132.2500 252.2500 361.0000 Du        
   8939 ****       132.2500 252.2500 361.2500 Du        
   8940 ****       132.2500 252.2500 361.5000 Du        
   8941 ****       132.2500 252.2500 361.7500 Du        
   8942 ****       132.2500 252.2500 362.0000 Du        
   8943 ****       132.2500 252.2500 362.2500 Du        
   8944 ****       132.2500 252.5000 360.5000 Du        
   8945 ****       132.2500 252.5000 360.7500 Du        
   8946 ****       132.2500 252.5000 361.0000 Du        
   8947 ****       132.2500 252.5000 361.2500 Du        
   8948 ****       132.2500 252.5000 361.5000 Du        
   8949 ****       132.2500 252.5000 361.7500 Du        
   8950 ****       132.2500 252.5000 362.0000 Du        
   8951 ****       132.2500 252.7500 360.5000 Du        
   8952 ****       132.2500 252.7500 360.7500 Du        
   8953 ****       132.2500 252.7500 361.0000 Du        
   8954 ****       132.2500 252.7500 361.2500 Du        
   8955 ****       132.2500 252.7500 361.5000 Du        
   8956 ****       132.2500 252.7500 361.7500 Du        
   8957 ****       132.2500 252.7500 362.0000 Du        
   8958 ****       132.2500 253.0000 360.7500 Du        
   8959 ****       132.2500 253.0000 361.0000 Du        
   8960 ****       132.2500 253.0000 361.2500 Du        
   8961 ****       132.2500 253.0000 361.5000 Du        
   8962 ****       132.2500 253.0000 361.7500 Du        
   8963 ****       132.2500 253.2500 360.7500 Du        
   8964 ****       132.2500 253.2500 361.0000 Du        
   8965 ****       132.2500 253.2500 361.2500 Du        
   8966 ****       132.5000 251.0000 361.2500 Du        
   8967 ****       132.5000 251.0000 361.5000 Du        
   8968 ****       132.5000 251.0000 361.7500 Du        
   8969 ****       132.5000 251.0000 362.0000 Du        
   8970 ****       132.5000 251.0000 362.2500 Du        
   8971 ****       132.5000 251.2500 360.7500 Du        
   8972 ****       132.5000 251.2500 361.0000 Du        
   8973 ****       132.5000 251.2500 361.2500 Du        
   8974 ****       132.5000 251.2500 361.5000 Du        
   8975 ****       132.5000 251.2500 361.7500 Du        
   8976 ****       132.5000 251.2500 362.0000 Du        
   8977 ****       132.5000 251.2500 362.2500 Du        
   8978 ****       132.5000 251.5000 360.5000 Du        
   8979 ****       132.5000 251.5000 360.7500 Du        
   8980 ****       132.5000 251.5000 361.0000 Du        
   8981 ****       132.5000 251.5000 361.2500 Du        
   8982 ****       132.5000 251.5000 361.5000 Du        
   8983 ****       132.5000 251.5000 361.7500 Du        
   8984 ****       132.5000 251.5000 362.0000 Du        
   8985 ****       132.5000 251.5000 362.2500 Du        
   8986 ****       132.5000 251.7500 360.2500 Du        
   8987 ****       132.5000 251.7500 360.5000 Du        
   8988 ****       132.5000 251.7500 360.7500 Du        
   8989 ****       132.5000 251.7500 361.0000 Du        
   8990 ****       132.5000 251.7500 361.2500 Du        
   8991 ****       132.5000 251.7500 361.5000 Du        
   8992 ****       132.5000 251.7500 361.7500 Du        
   8993 ****       132.5000 251.7500 362.0000 Du        
   8994 ****       132.5000 251.7500 362.2500 Du        
   8995 ****       132.5000 252.0000 360.2500 Du        
   8996 ****       132.5000 252.0000 360.5000 Du        
   8997 ****       132.5000 252.0000 360.7500 Du        
   8998 ****       132.5000 252.0000 361.0000 Du        
   8999 ****       132.5000 252.0000 361.2500 Du        
   9000 ****       132.5000 252.0000 361.5000 Du        
   9001 ****       132.5000 252.0000 361.7500 Du        
   9002 ****       132.5000 252.0000 362.0000 Du        
   9003 ****       132.5000 252.0000 362.2500 Du        
   9004 ****       132.5000 252.2500 360.2500 Du        
   9005 ****       132.5000 252.2500 360.5000 Du        
   9006 ****       132.5000 252.2500 360.7500 Du        
   9007 ****       132.5000 252.2500 361.0000 Du        
   9008 ****       132.5000 252.2500 361.2500 Du        
   9009 ****       132.5000 252.2500 361.5000 Du        
   9010 ****       132.5000 252.2500 361.7500 Du        
   9011 ****       132.5000 252.2500 362.0000 Du        
   9012 ****       132.5000 252.2500 362.2500 Du        
   9013 ****       132.5000 252.5000 360.5000 Du        
   9014 ****       132.5000 252.5000 360.7500 Du        
   9015 ****       132.5000 252.5000 361.0000 Du        
   9016 ****       132.5000 252.5000 361.2500 Du        
   9017 ****       132.5000 252.5000 361.5000 Du        
   9018 ****       132.5000 252.5000 361.7500 Du        
   9019 ****       132.5000 252.5000 362.0000 Du        
   9020 ****       132.5000 252.5000 362.2500 Du        
   9021 ****       132.5000 252.7500 360.5000 Du        
   9022 ****       132.5000 252.7500 360.7500 Du        
   9023 ****       132.5000 252.7500 361.0000 Du        
   9024 ****       132.5000 252.7500 361.2500 Du        
   9025 ****       132.5000 252.7500 361.5000 Du        
   9026 ****       132.5000 252.7500 361.7500 Du        
   9027 ****       132.5000 252.7500 362.0000 Du        
   9028 ****       132.5000 253.0000 360.5000 Du        
   9029 ****       132.5000 253.0000 360.7500 Du        
   9030 ****       132.5000 253.0000 361.0000 Du        
   9031 ****       132.5000 253.0000 361.2500 Du        
   9032 ****       132.5000 253.0000 361.5000 Du        
   9033 ****       132.5000 253.0000 361.7500 Du        
   9034 ****       132.5000 253.2500 360.7500 Du        
   9035 ****       132.5000 253.2500 361.0000 Du        
   9036 ****       132.5000 253.2500 361.2500 Du        
   9037 ****       132.5000 253.2500 361.5000 Du        
   9038 ****       132.7500 251.0000 361.5000 Du        
   9039 ****       132.7500 251.0000 361.7500 Du        
   9040 ****       132.7500 251.0000 362.0000 Du        
   9041 ****       132.7500 251.2500 360.7500 Du        
   9042 ****       132.7500 251.2500 361.0000 Du        
   9043 ****       132.7500 251.2500 361.2500 Du        
   9044 ****       132.7500 251.2500 361.5000 Du        
   9045 ****       132.7500 251.2500 361.7500 Du        
   9046 ****       132.7500 251.2500 362.0000 Du        
   9047 ****       132.7500 251.5000 360.5000 Du        
   9048 ****       132.7500 251.5000 360.7500 Du        
   9049 ****       132.7500 251.5000 361.0000 Du        
   9050 ****       132.7500 251.5000 361.2500 Du        
   9051 ****       132.7500 251.5000 361.5000 Du        
   9052 ****       132.7500 251.5000 361.7500 Du        
   9053 ****       132.7500 251.5000 362.0000 Du        
   9054 ****       132.7500 251.7500 360.2500 Du        
   9055 ****       132.7500 251.7500 360.5000 Du        
   9056 ****       132.7500 251.7500 360.7500 Du        
   9057 ****       132.7500 251.7500 361.0000 Du        
   9058 ****       132.7500 251.7500 361.2500 Du        
   9059 ****       132.7500 251.7500 361.5000 Du        
   9060 ****       132.7500 251.7500 361.7500 Du        
   9061 ****       132.7500 251.7500 362.0000 Du        
   9062 ****       132.7500 252.0000 360.0000 Du        
   9063 ****       132.7500 252.0000 360.2500 Du        
   9064 ****       132.7500 252.0000 360.5000 Du        
   9065 ****       132.7500 252.0000 360.7500 Du        
   9066 ****       132.7500 252.0000 361.0000 Du        
   9067 ****       132.7500 252.0000 361.2500 Du        
   9068 ****       132.7500 252.0000 361.5000 Du        
   9069 ****       132.7500 252.0000 361.7500 Du        
   9070 ****       132.7500 252.0000 362.0000 Du        
   9071 ****       132.7500 252.2500 360.2500 Du        
   9072 ****       132.7500 252.2500 360.5000 Du        
   9073 ****       132.7500 252.2500 360.7500 Du        
   9074 ****       132.7500 252.2500 361.0000 Du        
   9075 ****       132.7500 252.2500 361.2500 Du        
   9076 ****       132.7500 252.2500 361.5000 Du        
   9077 ****       132.7500 252.2500 361.7500 Du        
   9078 ****       132.7500 252.2500 362.0000 Du        
   9079 ****       132.7500 252.2500 362.2500 Du        
   9080 ****       132.7500 252.5000 360.5000 Du        
   9081 ****       132.7500 252.5000 360.7500 Du        
   9082 ****       132.7500 252.5000 361.0000 Du        
   9083 ****       132.7500 252.5000 361.2500 Du        
   9084 ****       132.7500 252.5000 361.5000 Du        
   9085 ****       132.7500 252.5000 361.7500 Du        
   9086 ****       132.7500 252.5000 362.0000 Du        
   9087 ****       132.7500 252.7500 360.5000 Du        
   9088 ****       132.7500 252.7500 360.7500 Du        
   9089 ****       132.7500 252.7500 361.0000 Du        
   9090 ****       132.7500 252.7500 361.2500 Du        
   9091 ****       132.7500 252.7500 361.5000 Du        
   9092 ****       132.7500 252.7500 361.7500 Du        
   9093 ****       132.7500 252.7500 362.0000 Du        
   9094 ****       132.7500 253.0000 360.5000 Du        
   9095 ****       132.7500 253.0000 360.7500 Du        
   9096 ****       132.7500 253.0000 361.0000 Du        
   9097 ****       132.7500 253.0000 361.2500 Du        
   9098 ****       132.7500 253.0000 361.5000 Du        
   9099 ****       132.7500 253.0000 361.7500 Du        
   9100 ****       132.7500 253.2500 360.5000 Du        
   9101 ****       132.7500 253.2500 360.7500 Du        
   9102 ****       132.7500 253.2500 361.0000 Du        
   9103 ****       132.7500 253.2500 361.2500 Du        
   9104 ****       132.7500 253.2500 361.5000 Du        
   9105 ****       132.7500 253.5000 360.7500 Du        
   9106 ****       133.0000 251.0000 361.5000 Du        
   9107 ****       133.0000 251.0000 361.7500 Du        
   9108 ****       133.0000 251.2500 360.7500 Du        
   9109 ****       133.0000 251.2500 361.0000 Du        
   9110 ****       133.0000 251.2500 361.2500 Du        
   9111 ****       133.0000 251.2500 361.5000 Du        
   9112 ****       133.0000 251.2500 361.7500 Du        
   9113 ****       133.0000 251.5000 360.5000 Du        
   9114 ****       133.0000 251.5000 360.7500 Du        
   9115 ****       133.0000 251.5000 361.0000 Du        
   9116 ****       133.0000 251.5000 361.2500 Du        
   9117 ****       133.0000 251.5000 361.5000 Du        
   9118 ****       133.0000 251.5000 361.7500 Du        
   9119 ****       133.0000 251.5000 362.0000 Du        
   9120 ****       133.0000 251.7500 360.0000 Du        
   9121 ****       133.0000 251.7500 360.2500 Du        
   9122 ****       133.0000 251.7500 360.5000 Du        
   9123 ****       133.0000 251.7500 360.7500 Du        
   9124 ****       133.0000 251.7500 361.0000 Du        
   9125 ****       133.0000 251.7500 361.2500 Du        
   9126 ****       133.0000 251.7500 361.5000 Du        
   9127 ****       133.0000 251.7500 361.7500 Du        
   9128 ****       133.0000 251.7500 362.0000 Du        
   9129 ****       133.0000 252.0000 359.7500 Du        
   9130 ****       133.0000 252.0000 360.0000 Du        
   9131 ****       133.0000 252.0000 360.2500 Du        
   9132 ****       133.0000 252.0000 360.5000 Du        
   9133 ****       133.0000 252.0000 360.7500 Du        
   9134 ****       133.0000 252.0000 361.0000 Du        
   9135 ****       133.0000 252.0000 361.2500 Du        
   9136 ****       133.0000 252.0000 361.5000 Du        
   9137 ****       133.0000 252.0000 361.7500 Du        
   9138 ****       133.0000 252.0000 362.0000 Du        
   9139 ****       133.0000 252.2500 360.0000 Du        
   9140 ****       133.0000 252.2500 360.2500 Du        
   9141 ****       133.0000 252.2500 360.5000 Du        
   9142 ****       133.0000 252.2500 360.7500 Du        
   9143 ****       133.0000 252.2500 361.0000 Du        
   9144 ****       133.0000 252.2500 361.2500 Du        
   9145 ****       133.0000 252.2500 361.5000 Du        
   9146 ****       133.0000 252.2500 361.7500 Du        
   9147 ****       133.0000 252.2500 362.0000 Du        
   9148 ****       133.0000 252.5000 360.5000 Du        
   9149 ****       133.0000 252.5000 360.7500 Du        
   9150 ****       133.0000 252.5000 361.0000 Du        
   9151 ****       133.0000 252.5000 361.2500 Du        
   9152 ****       133.0000 252.5000 361.5000 Du        
   9153 ****       133.0000 252.5000 361.7500 Du        
   9154 ****       133.0000 252.5000 362.0000 Du        
   9155 ****       133.0000 252.7500 360.5000 Du        
   9156 ****       133.0000 252.7500 360.7500 Du        
   9157 ****       133.0000 252.7500 361.0000 Du        
   9158 ****       133.0000 252.7500 361.2500 Du        
   9159 ****       133.0000 252.7500 361.5000 Du        
   9160 ****       133.0000 252.7500 361.7500 Du        
   9161 ****       133.0000 252.7500 362.0000 Du        
   9162 ****       133.0000 253.0000 360.5000 Du        
   9163 ****       133.0000 253.0000 360.7500 Du        
   9164 ****       133.0000 253.0000 361.0000 Du        
   9165 ****       133.0000 253.0000 361.2500 Du        
   9166 ****       133.0000 253.0000 361.5000 Du        
   9167 ****       133.0000 253.0000 361.7500 Du        
   9168 ****       133.0000 253.0000 362.0000 Du        
   9169 ****       133.0000 253.2500 360.5000 Du        
   9170 ****       133.0000 253.2500 360.7500 Du        
   9171 ****       133.0000 253.2500 361.0000 Du        
   9172 ****       133.0000 253.2500 361.2500 Du        
   9173 ****       133.0000 253.2500 361.5000 Du        
   9174 ****       133.2500 251.2500 361.0000 Du        
   9175 ****       133.2500 251.2500 361.2500 Du        
   9176 ****       133.2500 251.2500 361.5000 Du        
   9177 ****       133.2500 251.5000 360.5000 Du        
   9178 ****       133.2500 251.5000 360.7500 Du        
   9179 ****       133.2500 251.5000 361.0000 Du        
   9180 ****       133.2500 251.5000 361.2500 Du        
   9181 ****       133.2500 251.5000 361.5000 Du        
   9182 ****       133.2500 251.5000 361.7500 Du        
   9183 ****       133.2500 251.7500 360.0000 Du        
   9184 ****       133.2500 251.7500 360.2500 Du        
   9185 ****       133.2500 251.7500 360.5000 Du        
   9186 ****       133.2500 251.7500 360.7500 Du        
   9187 ****       133.2500 251.7500 361.0000 Du        
   9188 ****       133.2500 251.7500 361.2500 Du        
   9189 ****       133.2500 251.7500 361.5000 Du        
   9190 ****       133.2500 251.7500 361.7500 Du        
   9191 ****       133.2500 252.0000 359.7500 Du        
   9192 ****       133.2500 252.0000 360.0000 Du        
   9193 ****       133.2500 252.0000 360.2500 Du        
   9194 ****       133.2500 252.0000 360.5000 Du        
   9195 ****       133.2500 252.0000 360.7500 Du        
   9196 ****       133.2500 252.0000 361.0000 Du        
   9197 ****       133.2500 252.0000 361.2500 Du        
   9198 ****       133.2500 252.0000 361.5000 Du        
   9199 ****       133.2500 252.0000 361.7500 Du        
   9200 ****       133.2500 252.2500 360.0000 Du        
   9201 ****       133.2500 252.2500 360.2500 Du        
   9202 ****       133.2500 252.2500 360.5000 Du        
   9203 ****       133.2500 252.2500 360.7500 Du        
   9204 ****       133.2500 252.2500 361.0000 Du        
   9205 ****       133.2500 252.2500 361.2500 Du        
   9206 ****       133.2500 252.2500 361.5000 Du        
   9207 ****       133.2500 252.2500 361.7500 Du        
   9208 ****       133.2500 252.5000 360.5000 Du        
   9209 ****       133.2500 252.5000 360.7500 Du        
   9210 ****       133.2500 252.5000 361.5000 Du        
   9211 ****       133.2500 252.5000 361.7500 Du        
   9212 ****       133.2500 252.7500 361.5000 Du        
   9213 ****       133.2500 252.7500 361.7500 Du        
   9214 ****       133.2500 253.0000 361.5000 Du        
   9215 ****       133.2500 253.0000 361.7500 Du        
   9216 ****       133.5000 251.5000 360.5000 Du        
   9217 ****       133.5000 251.5000 360.7500 Du        
   9218 ****       133.5000 251.5000 361.0000 Du        
   9219 ****       133.5000 251.7500 359.7500 Du        
   9220 ****       133.5000 251.7500 360.0000 Du        
   9221 ****       133.5000 251.7500 360.2500 Du        
   9222 ****       133.5000 251.7500 360.5000 Du        
   9223 ****       133.5000 251.7500 360.7500 Du        
   9224 ****       133.5000 251.7500 361.0000 Du        
   9225 ****       133.5000 252.0000 359.5000 Du        
   9226 ****       133.5000 252.0000 359.7500 Du        
   9227 ****       133.5000 252.0000 360.0000 Du        
   9228 ****       133.5000 252.0000 360.2500 Du        
   9229 ****       133.5000 252.0000 360.5000 Du        
   9230 ****       133.5000 252.0000 360.7500 Du        
   9231 ****       133.5000 252.2500 359.7500 Du        
   9232 ****       133.5000 252.2500 360.0000 Du        
   9233 ****       133.5000 252.2500 360.2500 Du        
   9234 ****       133.7500 251.7500 359.5000 Du        
   9235 ****       133.7500 251.7500 359.7500 Du        
   9236 ****       133.7500 251.7500 360.0000 Du        
   9237 ****       133.7500 252.0000 359.5000 Du        
   9238 ****       133.7500 252.0000 359.7500 Du        
