#       Name:                CT1002167954
#       Creating user name   hitesit
#       Creation time:       Sun Apr 16 02:22:01 2023


#       File generated by GOLD software.
#

@<TRIPOS>MOLECULE
CT1002167954|ligand_prepared|mol2|1|dock2
    29    30     1
SMALL
NO_CHARGES


@<TRIPOS>ATOM
      1 C1         118.4403 246.3106 360.9880 C.3            1 RES1               0.0000
      2 C2         119.1478 247.5010 360.3090 C.ar           1 RES1               0.0000
      3 C3         118.7442 246.4253 362.4789 C.2            1 RES1               0.0000
      4 C4         116.9609 246.4403 360.6429 C.2            1 RES1               0.0000
      5 C5         118.9271 244.9290 360.4924 C.3            1 RES1               0.0000
      6 C6         118.5210 248.7403 360.2190 C.ar           1 RES1               0.0000
      7 C7         120.4261 247.3762 359.7714 C.ar           1 RES1               0.0000
      8 N8         117.7370 246.8416 363.2988 N.am           1 RES1               0.0000
      9 O9         119.8616 246.1920 362.9231 O.2            1 RES1               0.0000
     10 N10        116.0829 246.6923 361.6644 N.am           1 RES1               0.0000
     11 O11        116.5495 246.3431 359.4933 O.2            1 RES1               0.0000
     12 C12        117.8801 243.8324 360.6076 C.3            1 RES1               0.0000
     13 C13        119.1504 249.8166 359.6160 C.ar           1 RES1               0.0000
     14 C14        121.0536 248.4539 359.1686 C.ar           1 RES1               0.0000
     15 C15        116.4076 246.9293 362.9723 C.2            1 RES1               0.0000
     16 C16        120.4171 249.6744 359.0908 C.ar           1 RES1               0.0000
     17 O17        115.5660 247.2031 363.8231 O.2            1 RES1               0.0000
     18 H18        119.2314 245.0178 359.4422 H              1 RES1               0.0000
     19 H19        119.8102 244.6364 361.0737 H              1 RES1               0.0000
     20 H20        117.5232 248.8706 360.6245 H              1 RES1               0.0000
     21 H21        120.9455 246.4252 359.8201 H              1 RES1               0.0000
     22 H22        117.9963 247.1128 364.2420 H              1 RES1               0.0000
     23 H23        115.0959 246.7042 361.4279 H              1 RES1               0.0000
     24 H24        118.2731 242.8843 360.2465 H              1 RES1               0.0000
     25 H25        117.5728 243.6996 361.6428 H              1 RES1               0.0000
     26 H26        116.9974 244.0788 360.0210 H              1 RES1               0.0000
     27 H27        118.6447 250.7747 359.5562 H              1 RES1               0.0000
     28 H28        122.0503 248.3372 358.7560 H              1 RES1               0.0000
     29 H29        120.9101 250.5178 358.6189 H              1 RES1               0.0000
@<TRIPOS>BOND
    1    1    2 1     
    2    1    3 1     
    3    1    4 1     
    4    1    5 1     
    5    2    6 ar    
    6    2    7 ar    
    7    3    8 1     
    8    3    9 2     
    9    4   10 1     
   10    4   11 2     
   11    5   12 1     
   12    5   18 1     
   13    5   19 1     
   14    6   13 ar    
   15    6   20 1     
   16    7   14 ar    
   17    7   21 1     
   18    8   15 1     
   19    8   22 1     
   20   10   15 1     
   21   10   23 1     
   22   12   24 1     
   23   12   25 1     
   24   12   26 1     
   25   13   16 ar    
   26   13   27 1     
   27   14   16 ar    
   28   14   28 1     
   29   15   17 2     
   30   16   29 1     
@<TRIPOS>SUBSTRUCTURE
      1 RES1           1
@<TRIPOS>SET
DONOR_HYDROGENS      STATIC     ATOMS    <user>   **** ""
2 22 23
ATOM$RED        STATIC     ATOMS    COLORGROUP SYSTEM
2 22 23
@<TRIPOS>COMMENT
> <Gold.Version>
2022.3.0

> <Gold.Id.Protein>
unknown|5uo4_clean|pdb

> <Gold.Protein.RotatedTorsions>
[ 9154 9124 9123 9121 ] final -142.44 input   59.97 | X-H torsion
[ 9050 9034 9033 9030 ] final  143.96 input   60.01 | X-H torsion
[ 12944 12914 12913 12911 ] final  -89.94 input   59.99 | X-H torsion
[ 5594 5583 5582 5579 ] final  119.49 input   59.98 | X-H torsion
[ 9553 9538 9537 9534 ] final   96.26 input   60.01 | X-H torsion

> <Gold.Protein.ActiveResidues>
 TRP311  MET341  HIS342  TRP414  ALA417  ARG419  CYS420  VAL421  GLY422  LEU429 
 LEU460  SER462  ALA463  ILE464  ARG478  SER482  GLN483  ARG486  ALA502  GLY568 
 LEU569  PRO570  ALA571  VAL572  SER573  ASN574  MET575  LEU576  PRO588  PHE589 
 SER590  GLY591  TRP592  TYR593  MET594  GLY595  GLU597  ILE598  ARG601  ASP602 
 ASP605  SER607  ARG608  ILE653  VAL654  TRP683  PHE696  HIS697  PHE709  GLU710 
 TYR711  GLN712  ASP714  HEM801  H4B802 

> <Gold.Protein.RotatedAtoms>
  127.5839  249.3051  362.6814 H   0  0  0  0  0  0  0  0  0  0  0  0  # atno 5594 bound_to 5583
  115.9552  244.2399  369.5772 H   0  0  0  0  0  0  0  0  0  0  0  0  # atno 9050 bound_to 9034
  122.7320  242.3503  361.5956 H   0  0  0  0  0  0  0  0  0  0  0  0  # atno 9154 bound_to 9124
  132.7234  246.5345  352.6143 H   0  0  0  0  0  0  0  0  0  0  0  0  # atno 9553 bound_to 9538
  120.6629  254.2954  356.0585 H   0  0  0  0  0  0  0  0  0  0  0  0  # atno 12944 bound_to 12914
  123.5689  240.9817  361.3244 LP  0  0  0  0  0  0  0  0  0  0  0  0  # atno 13532 bound_to 9124
  122.9764  241.2987  362.8127 LP  0  0  0  0  0  0  0  0  0  0  0  0  # atno 13533 bound_to 9124
  114.8596  245.1926  368.8422 LP  0  0  0  0  0  0  0  0  0  0  0  0  # atno 13550 bound_to 9034
  115.9246  245.8344  369.9008 LP  0  0  0  0  0  0  0  0  0  0  0  0  # atno 13551 bound_to 9034
  122.2056  254.3458  355.5437 LP  0  0  0  0  0  0  0  0  0  0  0  0  # atno 13566 bound_to 12914
  121.0222  255.0368  354.6554 LP  0  0  0  0  0  0  0  0  0  0  0  0  # atno 13567 bound_to 12914
  127.8658  249.3473  364.2834 LP  0  0  0  0  0  0  0  0  0  0  0  0  # atno 13571 bound_to 5583
  128.9591  249.9699  363.2424 LP  0  0  0  0  0  0  0  0  0  0  0  0  # atno 13572 bound_to 5583
  132.3114  245.4295  351.4925 LP  0  0  0  0  0  0  0  0  0  0  0  0  # atno 13598 bound_to 9538
  132.5575  246.9845  351.0590 LP  0  0  0  0  0  0  0  0  0  0  0  0  # atno 13599 bound_to 9538

> <Gold.Score>
     Fitness  S(hb_ext) S(vdw_ext)  S(hb_int)    S(int)      intcor
     40.89       0.13      31.94       0.00      -3.15      -0.78

> <Gold.Goldscore.Fitness>
40.8927

> <Gold.Goldscore.Internal.Vdw>
-2.5495

> <Gold.Goldscore.Internal.Torsion>
-1.3809

> <Gold.Goldscore.External.Vdw>
31.9387

> <Gold.Goldscore.Internal.HBond>
0.0000

> <Gold.Goldscore.External.HBond>
0.1255

> <Gold.Goldscore.Internal.Correction>
-0.7819

> <Gold.Goldscore.Hbonds>
donor molecule, donor type, donor heavy atom, donor atom, acceptor molecule, acceptor atom, score
      L1  H     8    22       P1  8992  0.06

> <Gold.Goldscore.Internal.Vdw.Weighted>
-2.5495

> <Gold.Goldscore.Internal.Torsion.Weighted>
-1.3809

> <Gold.Goldscore.External.Vdw.Weighted>
43.9156

> <Gold.Goldscore.Internal.HBond.Weighted>
0.0000

> <Gold.Goldscore.External.HBond.Weighted>
0.1255

> <Gold.Goldscore.Internal.Correction.Weighted>
-0.7819

> <Gold.Rescore>
     Score     S(PLP)   S(hbond)     S(cho)   S(metal)  DE(clash)   DE(tors)     intcor
     54.94     -51.74       0.00       0.00       1.00       0.00       1.40       ----

> <Gold.PLP.Fitness>
54.9365

> <Gold.PLP.PLP>
-51.7391

> <Gold.PLP.part.hbond>
-2.6975

> <Gold.PLP.part.metal>
-0.8388

> <Gold.PLP.part.buried>
9.8669

> <Gold.PLP.part.nonpolar>
-64.8786

> <Gold.PLP.part.repulsive>
4.6093

> <Gold.PLP.ligand.clash>
0.0000

> <Gold.PLP.ligand.torsion>
1.4013

> <Gold.PLP.Chemscore.Hbond>
0.0000

> <Gold.PLP.Chemscore.CHOScore>
0.0000

> <Gold.PLP.Chemscore.Metal>
1.0000

> <Gold.Chemscore.Hbonds>
donor molecule, donor type, donor heavy atom, donor atom, acceptor molecule, acceptor atom, score
      P1  M 13344 13344       L1    11  0.10

> <Gold.PLP.Chemscore.Internal.Correction>
   9.000000E+99

