#       Name:                CT1002167954
#       Creating user name   hitesit
#       Creation time:       Sun Apr 16 02:22:04 2023


#       File generated by GOLD software.
#

@<TRIPOS>MOLECULE
CT1002167954|ligand_prepared|mol2|1|dock5
    29    30     1
SMALL
NO_CHARGES


@<TRIPOS>ATOM
      1 C1         123.3280 245.5605 357.3045 C.3            1 RES1               0.0000
      2 C2         122.1936 246.4152 357.9059 C.ar           1 RES1               0.0000
      3 C3         124.5483 245.7814 358.1935 C.2            1 RES1               0.0000
      4 C4         122.8189 244.1234 357.2925 C.2            1 RES1               0.0000
      5 C5         123.7002 245.9476 355.8542 C.3            1 RES1               0.0000
      6 C6         122.1899 247.7981 357.7507 C.ar           1 RES1               0.0000
      7 C7         121.1447 245.8357 358.6149 C.ar           1 RES1               0.0000
      8 N8         124.9113 244.7684 359.0312 N.am           1 RES1               0.0000
      9 O9         125.1590 246.8431 358.1881 O.2            1 RES1               0.0000
     10 N10        123.4521 243.2112 358.0956 N.am           1 RES1               0.0000
     11 O11        121.8646 243.7763 356.6075 O.2            1 RES1               0.0000
     12 C12        124.7029 245.0057 355.2064 C.3            1 RES1               0.0000
     13 C13        121.1728 248.5735 358.2824 C.ar           1 RES1               0.0000
     14 C14        120.1288 246.6130 359.1460 C.ar           1 RES1               0.0000
     15 C15        124.4556 243.4753 358.9874 C.2            1 RES1               0.0000
     16 C16        120.1415 247.9816 358.9799 C.ar           1 RES1               0.0000
     17 O17        124.9375 242.6118 359.7149 O.2            1 RES1               0.0000
     18 H18        122.7866 245.9625 355.2472 H              1 RES1               0.0000
     19 H19        124.1184 246.9617 355.8557 H              1 RES1               0.0000
     20 H20        122.9944 248.2819 357.2070 H              1 RES1               0.0000
     21 H21        121.1146 244.7610 358.7589 H              1 RES1               0.0000
     22 H22        125.5839 244.9931 359.7576 H              1 RES1               0.0000
     23 H23        123.1471 242.2459 358.0215 H              1 RES1               0.0000
     24 H24        124.9293 245.3227 354.1906 H              1 RES1               0.0000
     25 H25        125.6332 244.9855 355.7704 H              1 RES1               0.0000
     26 H26        124.3093 243.9922 355.1654 H              1 RES1               0.0000
     27 H27        121.1882 249.6503 358.1501 H              1 RES1               0.0000
     28 H28        119.3194 246.1429 359.6947 H              1 RES1               0.0000
     29 H29        119.3447 248.5892 359.3960 H              1 RES1               0.0000
@<TRIPOS>BOND
    1    1    2 1     
    2    1    3 1     
    3    1    4 1     
    4    1    5 1     
    5    2    6 ar    
    6    2    7 ar    
    7    3    8 1     
    8    3    9 2     
    9    4   10 1     
   10    4   11 2     
   11    5   12 1     
   12    5   18 1     
   13    5   19 1     
   14    6   13 ar    
   15    6   20 1     
   16    7   14 ar    
   17    7   21 1     
   18    8   15 1     
   19    8   22 1     
   20   10   15 1     
   21   10   23 1     
   22   12   24 1     
   23   12   25 1     
   24   12   26 1     
   25   13   16 ar    
   26   13   27 1     
   27   14   16 ar    
   28   14   28 1     
   29   15   17 2     
   30   16   29 1     
@<TRIPOS>SUBSTRUCTURE
      1 RES1           1
@<TRIPOS>SET
DONOR_HYDROGENS      STATIC     ATOMS    <user>   **** ""
2 22 23
ATOM$RED        STATIC     ATOMS    COLORGROUP SYSTEM
2 22 23
@<TRIPOS>COMMENT
> <Gold.Version>
2022.3.0

> <Gold.Id.Protein>
unknown|5uo4_clean|pdb

> <Gold.Protein.RotatedTorsions>
[ 9154 9124 9123 9121 ] final   93.61 input   59.97 | X-H torsion
[ 9050 9034 9033 9030 ] final -111.74 input   60.01 | X-H torsion
[ 12944 12914 12913 12911 ] final    2.35 input   59.99 | X-H torsion
[ 5594 5583 5582 5579 ] final  -83.58 input   59.98 | X-H torsion
[ 9553 9538 9537 9534 ] final  176.30 input   60.01 | X-H torsion

> <Gold.Protein.ActiveResidues>
 TRP311  MET341  HIS342  TRP414  ALA417  ARG419  CYS420  VAL421  GLY422  LEU429 
 LEU460  SER462  ALA463  ILE464  ARG478  SER482  GLN483  ARG486  ALA502  GLY568 
 LEU569  PRO570  ALA571  VAL572  SER573  ASN574  MET575  LEU576  PRO588  PHE589 
 SER590  GLY591  TRP592  TYR593  MET594  GLY595  GLU597  ILE598  ARG601  ASP602 
 ASP605  SER607  ARG608  ILE653  VAL654  TRP683  PHE696  HIS697  PHE709  GLU710 
 TYR711  GLN712  ASP714  HEM801  H4B802 

> <Gold.Protein.RotatedAtoms>
  128.8863  249.8986  363.8288 H   0  0  0  0  0  0  0  0  0  0  0  0  # atno 5594 bound_to 5583
  116.0813  245.6533  369.9930 H   0  0  0  0  0  0  0  0  0  0  0  0  # atno 9050 bound_to 9034
  123.5720  240.9444  361.3776 H   0  0  0  0  0  0  0  0  0  0  0  0  # atno 9154 bound_to 9124
  132.7043  247.2326  351.6328 H   0  0  0  0  0  0  0  0  0  0  0  0  # atno 9553 bound_to 9538
  120.6431  254.9660  354.8873 H   0  0  0  0  0  0  0  0  0  0  0  0  # atno 12944 bound_to 12914
  122.9434  241.3539  362.8213 LP  0  0  0  0  0  0  0  0  0  0  0  0  # atno 13532 bound_to 9124
  122.7555  242.3428  361.5355 LP  0  0  0  0  0  0  0  0  0  0  0  0  # atno 13533 bound_to 9124
  115.7757  244.1652  369.4097 LP  0  0  0  0  0  0  0  0  0  0  0  0  # atno 13550 bound_to 9034
  114.8815  245.4388  368.9147 LP  0  0  0  0  0  0  0  0  0  0  0  0  # atno 13551 bound_to 9034
  121.0488  254.1368  356.2272 LP  0  0  0  0  0  0  0  0  0  0  0  0  # atno 13566 bound_to 12914
  122.1989  254.5701  355.1520 LP  0  0  0  0  0  0  0  0  0  0  0  0  # atno 13567 bound_to 12914
  128.0715  249.5653  362.4603 LP  0  0  0  0  0  0  0  0  0  0  0  0  # atno 13571 bound_to 5583
  127.4416  249.1541  363.9097 LP  0  0  0  0  0  0  0  0  0  0  0  0  # atno 13572 bound_to 5583
  132.5869  245.9085  352.5720 LP  0  0  0  0  0  0  0  0  0  0  0  0  # atno 13598 bound_to 9538
  132.3012  245.8027  350.9677 LP  0  0  0  0  0  0  0  0  0  0  0  0  # atno 13599 bound_to 9538

> <Gold.Score>
     Fitness  S(hb_ext) S(vdw_ext)  S(hb_int)    S(int)      intcor
     31.57       0.28      23.70       0.00      -1.29      -0.78

> <Gold.Goldscore.Fitness>
31.5662

> <Gold.Goldscore.Internal.Vdw>
-1.6392

> <Gold.Goldscore.Internal.Torsion>
-0.4347

> <Gold.Goldscore.External.Vdw>
23.6958

> <Gold.Goldscore.Internal.HBond>
0.0000

> <Gold.Goldscore.External.HBond>
0.2764

> <Gold.Goldscore.Internal.Correction>
-0.7819

> <Gold.Goldscore.Hbonds>
donor molecule, donor type, donor heavy atom, donor atom, acceptor molecule, acceptor atom, score
      P1  H  5607  5624       L1    17  0.04
      P1  H  9565  9601       L1    17  0.03

> <Gold.Goldscore.Internal.Vdw.Weighted>
-1.6392

> <Gold.Goldscore.Internal.Torsion.Weighted>
-0.4347

> <Gold.Goldscore.External.Vdw.Weighted>
32.5818

> <Gold.Goldscore.Internal.HBond.Weighted>
0.0000

> <Gold.Goldscore.External.HBond.Weighted>
0.2764

> <Gold.Goldscore.Internal.Correction.Weighted>
-0.7819

> <Gold.Rescore>
     Score     S(PLP)   S(hbond)     S(cho)   S(metal)  DE(clash)   DE(tors)     intcor
     14.74     -16.54       0.00       0.00       0.00       1.44       0.18       ----

> <Gold.PLP.Fitness>
14.7443

> <Gold.PLP.PLP>
-16.5444

> <Gold.PLP.part.hbond>
-4.5517

> <Gold.PLP.part.metal>
0.0000

> <Gold.PLP.part.buried>
2.3664

> <Gold.PLP.part.nonpolar>
-21.4434

> <Gold.PLP.part.repulsive>
6.7978

> <Gold.PLP.ligand.clash>
1.4403

> <Gold.PLP.ligand.torsion>
0.1799

> <Gold.PLP.Chemscore.Hbond>
0.0000

> <Gold.PLP.Chemscore.CHOScore>
0.0000

> <Gold.PLP.Chemscore.Metal>
0.0000

> <Gold.PLP.Chemscore.Internal.Correction>
   9.000000E+99

