#       Name:                CT1002167954
#       Creating user name   hitesit
#       Creation time:       Sun Apr 16 02:22:07 2023


#       File generated by GOLD software.
#

@<TRIPOS>MOLECULE
CT1002167954|ligand_prepared|mol2|1|dock8
    29    30     1
SMALL
NO_CHARGES


@<TRIPOS>ATOM
      1 C1         121.8633 249.8902 358.8691 C.3            1 RES1               0.0000
      2 C2         120.7603 248.8328 359.0787 C.ar           1 RES1               0.0000
      3 C3         123.1584 249.2655 359.3799 C.2            1 RES1               0.0000
      4 C4         121.8718 250.2081 357.3779 C.2            1 RES1               0.0000
      5 C5         121.6180 251.2097 359.6374 C.3            1 RES1               0.0000
      6 C6         119.4498 249.2188 359.3439 C.ar           1 RES1               0.0000
      7 C7         121.0369 247.4701 359.0073 C.ar           1 RES1               0.0000
      8 N8         124.0727 248.8598 358.4530 N.am           1 RES1               0.0000
      9 O9         123.3572 249.0954 360.5765 O.2            1 RES1               0.0000
     10 N10        122.9838 249.8645 356.6545 N.am           1 RES1               0.0000
     11 O11        120.9190 250.7378 356.8197 O.2            1 RES1               0.0000
     12 C12        122.8232 252.1366 359.6646 C.3            1 RES1               0.0000
     13 C13        118.4514 248.2768 359.5281 C.ar           1 RES1               0.0000
     14 C14        120.0369 246.5297 359.1921 C.ar           1 RES1               0.0000
     15 C15        124.0721 249.1770 357.1184 C.2            1 RES1               0.0000
     16 C16        118.7441 246.9318 359.4520 C.ar           1 RES1               0.0000
     17 O17        125.0096 248.8565 356.3936 O.2            1 RES1               0.0000
     18 H18        120.7767 251.7380 359.1722 H              1 RES1               0.0000
     19 H19        121.3339 250.9698 360.6694 H              1 RES1               0.0000
     20 H20        119.2010 250.2728 359.4099 H              1 RES1               0.0000
     21 H21        122.0471 247.1306 358.8051 H              1 RES1               0.0000
     22 H22        124.8267 248.2654 358.7825 H              1 RES1               0.0000
     23 H23        123.0020 250.1476 355.6799 H              1 RES1               0.0000
     24 H24        122.5973 253.0470 360.2158 H              1 RES1               0.0000
     25 H25        123.6716 251.6522 360.1434 H              1 RES1               0.0000
     26 H26        123.1178 252.4159 358.6551 H              1 RES1               0.0000
     27 H27        117.4357 248.5984 359.7337 H              1 RES1               0.0000
     28 H28        120.2720 245.4721 359.1319 H              1 RES1               0.0000
     29 H29        117.9616 246.1940 359.5959 H              1 RES1               0.0000
@<TRIPOS>BOND
    1    1    2 1     
    2    1    3 1     
    3    1    4 1     
    4    1    5 1     
    5    2    6 ar    
    6    2    7 ar    
    7    3    8 1     
    8    3    9 2     
    9    4   10 1     
   10    4   11 2     
   11    5   12 1     
   12    5   18 1     
   13    5   19 1     
   14    6   13 ar    
   15    6   20 1     
   16    7   14 ar    
   17    7   21 1     
   18    8   15 1     
   19    8   22 1     
   20   10   15 1     
   21   10   23 1     
   22   12   24 1     
   23   12   25 1     
   24   12   26 1     
   25   13   16 ar    
   26   13   27 1     
   27   14   16 ar    
   28   14   28 1     
   29   15   17 2     
   30   16   29 1     
@<TRIPOS>SUBSTRUCTURE
      1 RES1           1
@<TRIPOS>SET
DONOR_HYDROGENS      STATIC     ATOMS    <user>   **** ""
2 22 23
ATOM$RED        STATIC     ATOMS    COLORGROUP SYSTEM
2 22 23
@<TRIPOS>COMMENT
> <Gold.Version>
2022.3.0

> <Gold.Id.Protein>
unknown|5uo4_clean|pdb

> <Gold.Protein.RotatedTorsions>
[ 9154 9124 9123 9121 ] final   97.27 input   59.97 | X-H torsion
[ 9050 9034 9033 9030 ] final  -73.26 input   60.01 | X-H torsion
[ 12944 12914 12913 12911 ] final  173.09 input   59.99 | X-H torsion
[ 5594 5583 5582 5579 ] final   96.73 input   59.98 | X-H torsion
[ 9553 9538 9537 9534 ] final  104.73 input   60.01 | X-H torsion

> <Gold.Protein.ActiveResidues>
 TRP311  MET341  HIS342  TRP414  ALA417  ARG419  CYS420  VAL421  GLY422  LEU429 
 LEU460  SER462  ALA463  ILE464  ARG478  SER482  GLN483  ARG486  ALA502  GLY568 
 LEU569  PRO570  ALA571  VAL572  SER573  ASN574  MET575  LEU576  PRO588  PHE589 
 SER590  GLY591  TRP592  TYR593  MET594  GLY595  GLU597  ILE598  ARG601  ASP602 
 ASP605  SER607  ARG608  ILE653  VAL654  TRP683  PHE696  HIS697  PHE709  GLU710 
 TYR711  GLN712  ASP714  HEM801  H4B802 

> <Gold.Protein.RotatedAtoms>
  127.3843  249.1855  362.9682 H   0  0  0  0  0  0  0  0  0  0  0  0  # atno 5594 bound_to 5583
  115.6538  245.9848  369.6960 H   0  0  0  0  0  0  0  0  0  0  0  0  # atno 9050 bound_to 9034
  123.5642  240.9818  361.3317 H   0  0  0  0  0  0  0  0  0  0  0  0  # atno 9154 bound_to 9124
  132.7421  246.6635  352.5680 H   0  0  0  0  0  0  0  0  0  0  0  0  # atno 9553 bound_to 9538
  122.0455  254.1988  355.8493 H   0  0  0  0  0  0  0  0  0  0  0  0  # atno 12944 bound_to 12914
  122.9740  241.3027  362.8135 LP  0  0  0  0  0  0  0  0  0  0  0  0  # atno 13532 bound_to 9124
  122.7329  242.3564  361.5895 LP  0  0  0  0  0  0  0  0  0  0  0  0  # atno 13533 bound_to 9124
  116.1648  244.4437  369.8061 LP  0  0  0  0  0  0  0  0  0  0  0  0  # atno 13550 bound_to 9034
  114.9228  244.8265  368.8173 LP  0  0  0  0  0  0  0  0  0  0  0  0  # atno 13551 bound_to 9034
  121.3933  255.0109  354.5993 LP  0  0  0  0  0  0  0  0  0  0  0  0  # atno 13566 bound_to 12914
  120.4415  254.4690  355.8105 LP  0  0  0  0  0  0  0  0  0  0  0  0  # atno 13567 bound_to 12914
  128.1946  249.5116  364.3412 LP  0  0  0  0  0  0  0  0  0  0  0  0  # atno 13571 bound_to 5583
  128.8314  249.9262  362.8957 LP  0  0  0  0  0  0  0  0  0  0  0  0  # atno 13572 bound_to 5583
  132.3279  245.4010  351.6279 LP  0  0  0  0  0  0  0  0  0  0  0  0  # atno 13598 bound_to 9538
  132.5222  246.8831  350.9703 LP  0  0  0  0  0  0  0  0  0  0  0  0  # atno 13599 bound_to 9538

> <Gold.Score>
     Fitness  S(hb_ext) S(vdw_ext)  S(hb_int)    S(int)      intcor
     29.55       0.07      21.96       0.00      -0.71      -0.78

> <Gold.Goldscore.Fitness>
29.5467

> <Gold.Goldscore.Internal.Vdw>
-0.8986

> <Gold.Goldscore.Internal.Torsion>
-0.5914

> <Gold.Goldscore.External.Vdw>
21.9597

> <Gold.Goldscore.Internal.HBond>
0.0000

> <Gold.Goldscore.External.HBond>
0.0652

> <Gold.Goldscore.Internal.Correction>
-0.7769

> <Gold.Goldscore.Hbonds>
donor molecule, donor type, donor heavy atom, donor atom, acceptor molecule, acceptor atom, score
      P1  H  5607  5625       L1     9  0.03

> <Gold.Goldscore.Internal.Vdw.Weighted>
-0.8986

> <Gold.Goldscore.Internal.Torsion.Weighted>
-0.5914

> <Gold.Goldscore.External.Vdw.Weighted>
30.1946

> <Gold.Goldscore.Internal.HBond.Weighted>
0.0000

> <Gold.Goldscore.External.HBond.Weighted>
0.0652

> <Gold.Goldscore.Internal.Correction.Weighted>
-0.7769

> <Gold.Rescore>
     Score     S(PLP)   S(hbond)     S(cho)   S(metal)  DE(clash)   DE(tors)     intcor
     31.62     -31.00       0.91       0.00       0.00       0.00       1.06       ----

> <Gold.PLP.Fitness>
31.6215

> <Gold.PLP.PLP>
-30.9995

> <Gold.PLP.part.hbond>
-2.0000

> <Gold.PLP.part.metal>
0.0000

> <Gold.PLP.part.buried>
-1.3587

> <Gold.PLP.part.nonpolar>
-30.2647

> <Gold.PLP.part.repulsive>
3.3312

> <Gold.PLP.ligand.clash>
0.0000

> <Gold.PLP.ligand.torsion>
1.0570

> <Gold.PLP.Chemscore.Hbond>
0.9120

> <Gold.PLP.Chemscore.CHOScore>
0.0000

> <Gold.PLP.Chemscore.Metal>
0.0000

> <Gold.Chemscore.Hbonds>
donor molecule, donor type, donor heavy atom, donor atom, acceptor molecule, acceptor atom, score
      P1  H  5607  5625       L1     9  0.23

> <Gold.PLP.Chemscore.Internal.Correction>
   9.000000E+99

