#       Name:                CT1002167954
#       Creating user name   hitesit
#       Creation time:       Sun Apr 16 02:22:08 2023


#       File generated by GOLD software.
#

@<TRIPOS>MOLECULE
CT1002167954|ligand_prepared|mol2|1|dock10
    29    30     1
SMALL
NO_CHARGES


@<TRIPOS>ATOM
      1 C1         124.9626 247.0436 356.2734 C.3            1 RES1               0.0000
      2 C2         123.9078 246.1106 356.9023 C.ar           1 RES1               0.0000
      3 C3         124.5321 247.2630 354.8261 C.2            1 RES1               0.0000
      4 C4         124.9691 248.3119 357.1196 C.2            1 RES1               0.0000
      5 C5         126.3946 246.4597 356.2768 C.3            1 RES1               0.0000
      6 C6         124.0883 244.7307 356.8957 C.ar           1 RES1               0.0000
      7 C7         122.7525 246.6142 357.4941 C.ar           1 RES1               0.0000
      8 N8         123.9996 248.4760 354.5023 N.am           1 RES1               0.0000
      9 O9         124.6219 246.3718 353.9906 O.2            1 RES1               0.0000
     10 N10        124.5505 249.4773 356.5329 N.am           1 RES1               0.0000
     11 O11        125.3171 248.3093 358.2940 O.2            1 RES1               0.0000
     12 C12        127.4711 247.4738 355.9235 C.3            1 RES1               0.0000
     13 C13        123.1493 243.8850 357.4628 C.ar           1 RES1               0.0000
     14 C14        121.8146 245.7667 358.0604 C.ar           1 RES1               0.0000
     15 C15        124.0370 249.6110 355.2717 C.2            1 RES1               0.0000
     16 C16        122.0122 244.4023 358.0458 C.ar           1 RES1               0.0000
     17 O17        123.6305 250.6834 354.8338 O.2            1 RES1               0.0000
     18 H18        126.6072 246.0516 357.2726 H              1 RES1               0.0000
     19 H19        126.4401 245.6318 355.5585 H              1 RES1               0.0000
     20 H20        124.9758 244.3051 356.4393 H              1 RES1               0.0000
     21 H21        122.5755 247.6841 357.5162 H              1 RES1               0.0000
     22 H22        123.5301 248.5457 353.6050 H              1 RES1               0.0000
     23 H23        124.6291 250.3237 357.0878 H              1 RES1               0.0000
     24 H24        128.4562 247.0124 355.9404 H              1 RES1               0.0000
     25 H25        127.3051 247.8818 354.9286 H              1 RES1               0.0000
     26 H26        127.4712 248.2991 356.6325 H              1 RES1               0.0000
     27 H27        123.3089 242.8119 357.4475 H              1 RES1               0.0000
     28 H28        120.9208 246.1782 358.5176 H              1 RES1               0.0000
     29 H29        121.2770 243.7397 358.4903 H              1 RES1               0.0000
@<TRIPOS>BOND
    1    1    2 1     
    2    1    3 1     
    3    1    4 1     
    4    1    5 1     
    5    2    6 ar    
    6    2    7 ar    
    7    3    8 1     
    8    3    9 2     
    9    4   10 1     
   10    4   11 2     
   11    5   12 1     
   12    5   18 1     
   13    5   19 1     
   14    6   13 ar    
   15    6   20 1     
   16    7   14 ar    
   17    7   21 1     
   18    8   15 1     
   19    8   22 1     
   20   10   15 1     
   21   10   23 1     
   22   12   24 1     
   23   12   25 1     
   24   12   26 1     
   25   13   16 ar    
   26   13   27 1     
   27   14   16 ar    
   28   14   28 1     
   29   15   17 2     
   30   16   29 1     
@<TRIPOS>SUBSTRUCTURE
      1 RES1           1
@<TRIPOS>SET
DONOR_HYDROGENS      STATIC     ATOMS    <user>   **** ""
2 22 23
ATOM$RED        STATIC     ATOMS    COLORGROUP SYSTEM
2 22 23
@<TRIPOS>COMMENT
> <Gold.Version>
2022.3.0

> <Gold.Id.Protein>
unknown|5uo4_clean|pdb

> <Gold.Protein.RotatedTorsions>
[ 9154 9124 9123 9121 ] final -178.70 input   59.97 | X-H torsion
[ 9050 9034 9033 9030 ] final   74.57 input   60.01 | X-H torsion
[ 12944 12914 12913 12911 ] final -102.32 input   59.99 | X-H torsion
[ 5594 5583 5582 5579 ] final  136.29 input   59.98 | X-H torsion
[ 9553 9538 9537 9534 ] final -150.53 input   60.01 | X-H torsion

> <Gold.Protein.ActiveResidues>
 TRP311  MET341  HIS342  TRP414  ALA417  ARG419  CYS420  VAL421  GLY422  LEU429 
 LEU460  SER462  ALA463  ILE464  ARG478  SER482  GLN483  ARG486  ALA502  GLY568 
 LEU569  PRO570  ALA571  VAL572  SER573  ASN574  MET575  LEU576  PRO588  PHE589 
 SER590  GLY591  TRP592  TYR593  MET594  GLY595  GLU597  ILE598  ARG601  ASP602 
 ASP605  SER607  ARG608  ILE653  VAL654  TRP683  PHE696  HIS697  PHE709  GLU710 
 TYR711  GLN712  ASP714  HEM801  H4B802 

> <Gold.Protein.RotatedAtoms>
  127.7886  249.4183  362.5396 H   0  0  0  0  0  0  0  0  0  0  0  0  # atno 5594 bound_to 5583
  115.1418  244.4445  368.9196 H   0  0  0  0  0  0  0  0  0  0  0  0  # atno 9050 bound_to 9034
  123.0022  242.0869  361.1520 H   0  0  0  0  0  0  0  0  0  0  0  0  # atno 9154 bound_to 9124
  132.5867  247.0501  351.1442 H   0  0  0  0  0  0  0  0  0  0  0  0  # atno 9553 bound_to 9538
  120.8230  254.2166  356.1528 H   0  0  0  0  0  0  0  0  0  0  0  0  # atno 12944 bound_to 12914
  123.5603  240.7294  361.8541 LP  0  0  0  0  0  0  0  0  0  0  0  0  # atno 13532 bound_to 9124
  122.7128  241.8163  362.7300 LP  0  0  0  0  0  0  0  0  0  0  0  0  # atno 13533 bound_to 9124
  115.3093  245.9892  369.4034 LP  0  0  0  0  0  0  0  0  0  0  0  0  # atno 13550 bound_to 9034
  116.2938  244.8319  370.0017 LP  0  0  0  0  0  0  0  0  0  0  0  0  # atno 13551 bound_to 9034
  122.2295  254.4430  355.3667 LP  0  0  0  0  0  0  0  0  0  0  0  0  # atno 13566 bound_to 12914
  120.8370  255.0190  354.7374 LP  0  0  0  0  0  0  0  0  0  0  0  0  # atno 13567 bound_to 12914
  127.6473  249.2440  364.1513 LP  0  0  0  0  0  0  0  0  0  0  0  0  # atno 13571 bound_to 5583
  128.9715  249.9591  363.5174 LP  0  0  0  0  0  0  0  0  0  0  0  0  # atno 13572 bound_to 5583
  132.7049  246.4287  352.6439 LP  0  0  0  0  0  0  0  0  0  0  0  0  # atno 13598 bound_to 9538
  132.3017  245.4662  351.3878 LP  0  0  0  0  0  0  0  0  0  0  0  0  # atno 13599 bound_to 9538

> <Gold.Score>
     Fitness  S(hb_ext) S(vdw_ext)  S(hb_int)    S(int)      intcor
     30.33       6.00      18.10       0.00      -0.56      -0.78

> <Gold.Goldscore.Fitness>
30.3319

> <Gold.Goldscore.Internal.Vdw>
-0.7611

> <Gold.Goldscore.Internal.Torsion>
-0.5779

> <Gold.Goldscore.External.Vdw>
18.1047

> <Gold.Goldscore.Internal.HBond>
0.0000

> <Gold.Goldscore.External.HBond>
6.0000

> <Gold.Goldscore.Internal.Correction>
-0.7769

> <Gold.Goldscore.Hbonds>
donor molecule, donor type, donor heavy atom, donor atom, acceptor molecule, acceptor atom, score
      L1  H     8    22       P1 13462  1.00

> <Gold.Goldscore.Internal.Vdw.Weighted>
-0.7611

> <Gold.Goldscore.Internal.Torsion.Weighted>
-0.5779

> <Gold.Goldscore.External.Vdw.Weighted>
24.8940

> <Gold.Goldscore.Internal.HBond.Weighted>
0.0000

> <Gold.Goldscore.External.HBond.Weighted>
6.0000

> <Gold.Goldscore.Internal.Correction.Weighted>
-0.7769

> <Gold.Rescore>
     Score     S(PLP)   S(hbond)     S(cho)   S(metal)  DE(clash)   DE(tors)     intcor
     26.66     -26.13       0.85       0.00       0.00       0.00       1.01       ----

> <Gold.PLP.Fitness>
26.6627

> <Gold.PLP.PLP>
-26.1287

> <Gold.PLP.part.hbond>
-4.2891

> <Gold.PLP.part.metal>
0.0000

> <Gold.PLP.part.buried>
-1.5256

> <Gold.PLP.part.nonpolar>
-23.3961

> <Gold.PLP.part.repulsive>
0.9065

> <Gold.PLP.ligand.clash>
0.0000

> <Gold.PLP.ligand.torsion>
1.0072

> <Gold.PLP.Chemscore.Hbond>
0.8494

> <Gold.PLP.Chemscore.CHOScore>
0.0000

> <Gold.PLP.Chemscore.Metal>
0.0000

> <Gold.Chemscore.Hbonds>
donor molecule, donor type, donor heavy atom, donor atom, acceptor molecule, acceptor atom, score
      L1  H     8    22       P1 13462  1.00

> <Gold.PLP.Chemscore.Internal.Correction>
   9.000000E+99

