#       Name:                CT1002167954
#       Creating user name   hitesit
#       Creation time:       Sun Apr 16 02:22:02 2023


#       File generated by GOLD software.
#

@<TRIPOS>MOLECULE
CT1002167954|ligand_prepared|mol2|1|dock3
    29    30     1
SMALL
NO_CHARGES


@<TRIPOS>ATOM
      1 C1         122.8573 245.3318 357.5848 C.3            1 RES1               0.0000
      2 C2         122.3270 246.6572 358.1685 C.ar           1 RES1               0.0000
      3 C3         124.3459 245.5434 357.3246 C.2            1 RES1               0.0000
      4 C4         122.5539 244.2568 358.6226 C.2            1 RES1               0.0000
      5 C5         122.1805 244.9186 356.2571 C.3            1 RES1               0.0000
      6 C6         120.9659 246.8365 358.3970 C.ar           1 RES1               0.0000
      7 C7         123.1852 247.7067 358.4855 C.ar           1 RES1               0.0000
      8 N8         125.2275 244.9393 358.1718 N.am           1 RES1               0.0000
      9 O9         124.7396 246.2616 356.4138 O.2            1 RES1               0.0000
     10 N10        123.6123 243.6430 359.2396 N.am           1 RES1               0.0000
     11 O11        121.4076 243.9476 358.9237 O.2            1 RES1               0.0000
     12 C12        122.8096 243.6993 355.6017 C.3            1 RES1               0.0000
     13 C13        120.4807 248.0211 358.9259 C.ar           1 RES1               0.0000
     14 C14        122.6978 248.8906 359.0141 C.ar           1 RES1               0.0000
     15 C15        124.9349 243.9571 359.0835 C.2            1 RES1               0.0000
     16 C16        121.3462 249.0486 359.2352 C.ar           1 RES1               0.0000
     17 O17        125.8263 243.3967 359.7147 O.2            1 RES1               0.0000
     18 H18        121.1215 244.7082 356.4512 H              1 RES1               0.0000
     19 H19        122.2321 245.7617 355.5572 H              1 RES1               0.0000
     20 H20        120.2694 246.0400 358.1575 H              1 RES1               0.0000
     21 H21        124.2522 247.6052 358.3190 H              1 RES1               0.0000
     22 H22        126.1938 245.2464 358.1229 H              1 RES1               0.0000
     23 H23        123.3941 242.8812 359.8740 H              1 RES1               0.0000
     24 H24        122.2972 243.4524 354.6742 H              1 RES1               0.0000
     25 H25        123.8572 243.8824 355.3717 H              1 RES1               0.0000
     26 H26        122.7532 242.8351 356.2604 H              1 RES1               0.0000
     27 H27        119.4160 248.1409 359.0968 H              1 RES1               0.0000
     28 H28        123.3826 249.6969 359.2555 H              1 RES1               0.0000
     29 H29        120.9659 249.9763 359.6499 H              1 RES1               0.0000
@<TRIPOS>BOND
    1    1    2 1     
    2    1    3 1     
    3    1    4 1     
    4    1    5 1     
    5    2    6 ar    
    6    2    7 ar    
    7    3    8 1     
    8    3    9 2     
    9    4   10 1     
   10    4   11 2     
   11    5   12 1     
   12    5   18 1     
   13    5   19 1     
   14    6   13 ar    
   15    6   20 1     
   16    7   14 ar    
   17    7   21 1     
   18    8   15 1     
   19    8   22 1     
   20   10   15 1     
   21   10   23 1     
   22   12   24 1     
   23   12   25 1     
   24   12   26 1     
   25   13   16 ar    
   26   13   27 1     
   27   14   16 ar    
   28   14   28 1     
   29   15   17 2     
   30   16   29 1     
@<TRIPOS>SUBSTRUCTURE
      1 RES1           1
@<TRIPOS>SET
DONOR_HYDROGENS      STATIC     ATOMS    <user>   **** ""
2 22 23
ATOM$RED        STATIC     ATOMS    COLORGROUP SYSTEM
2 22 23
@<TRIPOS>COMMENT
> <Gold.Version>
2022.3.0

> <Gold.Id.Protein>
unknown|5uo4_clean|pdb

> <Gold.Protein.RotatedTorsions>
[ 9154 9124 9123 9121 ] final  -27.84 input   59.97 | X-H torsion
[ 9050 9034 9033 9030 ] final  169.00 input   60.01 | X-H torsion
[ 12944 12914 12913 12911 ] final -128.86 input   59.99 | X-H torsion
[ 5594 5583 5582 5579 ] final   18.25 input   59.98 | X-H torsion
[ 9553 9538 9537 9534 ] final -161.07 input   60.01 | X-H torsion

> <Gold.Protein.ActiveResidues>
 TRP311  MET341  HIS342  TRP414  ALA417  ARG419  CYS420  VAL421  GLY422  LEU429 
 LEU460  SER462  ALA463  ILE464  ARG478  SER482  GLN483  ARG486  ALA502  GLY568 
 LEU569  PRO570  ALA571  VAL572  SER573  ASN574  MET575  LEU576  PRO588  PHE589 
 SER590  GLY591  TRP592  TYR593  MET594  GLY595  GLU597  ILE598  ARG601  ASP602 
 ASP605  SER607  ARG608  ILE653  VAL654  TRP683  PHE696  HIS697  PHE709  GLU710 
 TYR711  GLN712  ASP714  HEM801  H4B802 

> <Gold.Protein.RotatedAtoms>
  127.6268  249.2374  364.1262 H   0  0  0  0  0  0  0  0  0  0  0  0  # atno 5594 bound_to 5583
  116.1786  244.4753  369.8211 H   0  0  0  0  0  0  0  0  0  0  0  0  # atno 9050 bound_to 9034
  122.9307  241.3747  362.8161 H   0  0  0  0  0  0  0  0  0  0  0  0  # atno 9154 bound_to 9124
  132.6280  247.1387  351.2857 H   0  0  0  0  0  0  0  0  0  0  0  0  # atno 9553 bound_to 9538
  121.2295  254.1052  356.2369 H   0  0  0  0  0  0  0  0  0  0  0  0  # atno 12944 bound_to 12914
  122.7650  242.3365  361.5143 LP  0  0  0  0  0  0  0  0  0  0  0  0  # atno 13532 bound_to 9124
  123.5801  240.9267  361.3932 LP  0  0  0  0  0  0  0  0  0  0  0  0  # atno 13533 bound_to 9124
  114.9350  244.7914  368.8202 LP  0  0  0  0  0  0  0  0  0  0  0  0  # atno 13550 bound_to 9034
  115.6242  245.9986  369.6772 LP  0  0  0  0  0  0  0  0  0  0  0  0  # atno 13551 bound_to 9034
  122.1355  254.6633  355.0059 LP  0  0  0  0  0  0  0  0  0  0  0  0  # atno 13566 bound_to 12914
  120.5214  254.9109  355.0134 LP  0  0  0  0  0  0  0  0  0  0  0  0  # atno 13567 bound_to 12914
  128.9682  249.9555  363.5493 LP  0  0  0  0  0  0  0  0  0  0  0  0  # atno 13571 bound_to 5583
  127.8135  249.4299  362.5212 LP  0  0  0  0  0  0  0  0  0  0  0  0  # atno 13572 bound_to 5583
  132.6720  246.2590  352.6544 LP  0  0  0  0  0  0  0  0  0  0  0  0  # atno 13598 bound_to 9538
  132.2929  245.5467  351.2347 LP  0  0  0  0  0  0  0  0  0  0  0  0  # atno 13599 bound_to 9538

> <Gold.Score>
     Fitness  S(hb_ext) S(vdw_ext)  S(hb_int)    S(int)      intcor
     36.32       5.64      23.76       0.00      -2.00      -0.78

> <Gold.Goldscore.Fitness>
36.3179

> <Gold.Goldscore.Internal.Vdw>
-2.3404

> <Gold.Goldscore.Internal.Torsion>
-0.4391

> <Gold.Goldscore.External.Vdw>
23.7603

> <Gold.Goldscore.Internal.HBond>
0.0000

> <Gold.Goldscore.External.HBond>
5.6450

> <Gold.Goldscore.Internal.Correction>
-0.7819

> <Gold.Goldscore.Hbonds>
donor molecule, donor type, donor heavy atom, donor atom, acceptor molecule, acceptor atom, score
      P1  H  5720  5757       L1    17  0.03
      P1  H  9565  9601       L1    17  0.70
      L1  H    10    23       P1  9124  0.64

> <Gold.Goldscore.Internal.Vdw.Weighted>
-2.3404

> <Gold.Goldscore.Internal.Torsion.Weighted>
-0.4391

> <Gold.Goldscore.External.Vdw.Weighted>
32.6704

> <Gold.Goldscore.Internal.HBond.Weighted>
0.0000

> <Gold.Goldscore.External.HBond.Weighted>
5.6450

> <Gold.Goldscore.Internal.Correction.Weighted>
-0.7819

> <Gold.Rescore>
     Score     S(PLP)   S(hbond)     S(cho)   S(metal)  DE(clash)   DE(tors)     intcor
     22.37     -21.98       1.00       0.00       0.00       1.39       0.61       ----

> <Gold.PLP.Fitness>
22.3710

> <Gold.PLP.PLP>
-21.9775

> <Gold.PLP.part.hbond>
-3.0272

> <Gold.PLP.part.metal>
0.0000

> <Gold.PLP.part.buried>
2.5733

> <Gold.PLP.part.nonpolar>
-24.9404

> <Gold.PLP.part.repulsive>
2.9826

> <Gold.PLP.ligand.clash>
1.3856

> <Gold.PLP.ligand.torsion>
0.6104

> <Gold.PLP.Chemscore.Hbond>
1.0000

> <Gold.PLP.Chemscore.CHOScore>
0.0000

> <Gold.PLP.Chemscore.Metal>
0.0000

> <Gold.Chemscore.Hbonds>
donor molecule, donor type, donor heavy atom, donor atom, acceptor molecule, acceptor atom, score
      P1  H  5720  5757       L1    17  0.05
      P1  H  9565  9601       L1    17  0.08

> <Gold.PLP.Chemscore.Internal.Correction>
   9.000000E+99

