#       Name:                CT1002167954
#       Creating user name   hitesit
#       Creation time:       Sun Apr 16 02:21:42 2023


#       File generated by GOLD software.
#

@<TRIPOS>MOLECULE
CT1002167954|ligand_prepared|mol2|1|dock2
    29    30     1
SMALL
NO_CHARGES


@<TRIPOS>ATOM
      1 C1          20.3067   0.2739 -19.7866 C.3            1 RES1               0.0000
      2 C2          19.2766   1.3154 -20.2691 C.ar           1 RES1               0.0000
      3 C3          20.9626   0.8647 -18.5420 C.2            1 RES1               0.0000
      4 C4          19.5262  -1.0102 -19.5284 C.2            1 RES1               0.0000
      5 C5          21.4114  -0.0387 -20.8226 C.3            1 RES1               0.0000
      6 C6          19.6155   2.2478 -21.2450 C.ar           1 RES1               0.0000
      7 C7          17.9850   1.3545 -19.7504 C.ar           1 RES1               0.0000
      8 N8          20.6144   0.3372 -17.3335 N.am           1 RES1               0.0000
      9 O9          21.7435   1.8053 -18.6166 O.2            1 RES1               0.0000
     10 N10         19.4471  -1.4652 -18.2382 N.am           1 RES1               0.0000
     11 O11         18.9650  -1.6231 -20.4283 O.2            1 RES1               0.0000
     12 C12         22.2715  -1.2387 -20.4587 C.3            1 RES1               0.0000
     13 C13         18.6957   3.1835 -21.6886 C.ar           1 RES1               0.0000
     14 C14         17.0668   2.2912 -20.1953 C.ar           1 RES1               0.0000
     15 C15         19.9299  -0.8331 -17.1249 C.2            1 RES1               0.0000
     16 C16         17.4208   3.2056 -21.1645 C.ar           1 RES1               0.0000
     17 O17         19.7718  -1.2778 -15.9916 O.2            1 RES1               0.0000
     18 H18         20.9406  -0.2239 -21.7959 H              1 RES1               0.0000
     19 H19         22.0585   0.8413 -20.9252 H              1 RES1               0.0000
     20 H20         20.6148   2.2473 -21.6673 H              1 RES1               0.0000
     21 H21         17.6847   0.6455 -18.9864 H              1 RES1               0.0000
     22 H22         20.8882   0.8615 -16.5086 H              1 RES1               0.0000
     23 H23         18.9856  -2.3578 -18.0945 H              1 RES1               0.0000
     24 H24         23.0303  -1.4140 -21.2185 H              1 RES1               0.0000
     25 H25         22.7750  -1.0783 -19.5076 H              1 RES1               0.0000
     26 H26         21.6637  -2.1371 -20.3732 H              1 RES1               0.0000
     27 H27         18.9797   3.9019 -22.4506 H              1 RES1               0.0000
     28 H28         16.0647   2.3053 -19.7796 H              1 RES1               0.0000
     29 H29         16.7004   3.9385 -21.5125 H              1 RES1               0.0000
@<TRIPOS>BOND
    1    1    2 1     
    2    1    3 1     
    3    1    4 1     
    4    1    5 1     
    5    2    6 ar    
    6    2    7 ar    
    7    3    8 1     
    8    3    9 2     
    9    4   10 1     
   10    4   11 2     
   11    5   12 1     
   12    5   18 1     
   13    5   19 1     
   14    6   13 ar    
   15    6   20 1     
   16    7   14 ar    
   17    7   21 1     
   18    8   15 1     
   19    8   22 1     
   20   10   15 1     
   21   10   23 1     
   22   12   24 1     
   23   12   25 1     
   24   12   26 1     
   25   13   16 ar    
   26   13   27 1     
   27   14   16 ar    
   28   14   28 1     
   29   15   17 2     
   30   16   29 1     
@<TRIPOS>SUBSTRUCTURE
      1 RES1           1
@<TRIPOS>SET
DONOR_HYDROGENS      STATIC     ATOMS    <user>   **** ""
2 22 23
ATOM$RED        STATIC     ATOMS    COLORGROUP SYSTEM
2 22 23
@<TRIPOS>COMMENT
> <Gold.Version>
2022.3.0

> <Gold.Id.Protein>
unknown|3iw5_clean|pdb

> <Gold.Protein.RotatedTorsions>
[  748  745  744  743 ] final  -80.05 input   59.98 | X-H torsion
[ 1667 1661 1659 1656 ] final -169.28 input   59.98 | X-H torsion
[ 2625 2618 2617 2616 ] final  119.31 input   60.00 | X-H torsion
[  493  476  477  478 ] final  135.35 input   60.03 | X-H torsion
[  472  469  468  465 ] final -110.76 input   60.00 | X-H torsion

> <Gold.Protein.ActiveResidues>
 TRP18   SER28   PRO29   VAL30   GLY31   SER32   TYR35   GLY36   SER37   VAL38  
 CYS39   ALA40   ALA41   ARG49   VAL50   ALA51   VAL52   LYS53   LYS54   LEU55  
 GLU71   LEU72   LEU74   LEU75   MET78   ILE84   GLY85   LEU86   LEU87   ASP88  
 VAL89   VAL102  TYR103  LEU104  VAL105  THR106  HIS107  LEU108  MET109  GLY110 
 ALA111  ASP112  LEU113  ASN114  ASN115  PRO153  SER154  ASN155  LEU156  ALA157 
 VAL158  ASN159  LYS165  ILE166  LEU167  ASP168  PHE169  GLY170  LEU171 

> <Gold.Protein.RotatedAtoms>
   22.5886    9.2671  -14.3437 H   0  0  0  0  0  0  0  0  0  0  0  0  # atno 472  bound_to 469 
   23.1192   -1.9706  -12.0932 H   0  0  0  0  0  0  0  0  0  0  0  0  # atno 493  bound_to 476 
   22.5878   -0.8618  -10.9818 H   0  0  0  0  0  0  0  0  0  0  0  0  # atno 494  bound_to 476 
   22.2374   -1.2952  -15.8224 H   0  0  0  0  0  0  0  0  0  0  0  0  # atno 748  bound_to 745 
   23.0176   -2.6992  -15.4139 H   0  0  0  0  0  0  0  0  0  0  0  0  # atno 749  bound_to 745 
   22.6920   -1.5637  -14.2514 H   0  0  0  0  0  0  0  0  0  0  0  0  # atno 750  bound_to 745 
   20.9687   -4.9589  -24.7871 H   0  0  0  0  0  0  0  0  0  0  0  0  # atno 1667 bound_to 1661
   18.7304   -6.7705  -28.7330 H   0  0  0  0  0  0  0  0  0  0  0  0  # atno 2625 bound_to 2618
   18.8863   -5.2567  -29.3907 H   0  0  0  0  0  0  0  0  0  0  0  0  # atno 2626 bound_to 2618
   18.7794   -5.4400  -27.7466 H   0  0  0  0  0  0  0  0  0  0  0  0  # atno 2627 bound_to 2618
   21.7320   -6.2699  -25.3766 LP  0  0  0  0  0  0  0  0  0  0  0  0  # atno 5460 bound_to 1661
   21.6691   -4.8947  -26.2549 LP  0  0  0  0  0  0  0  0  0  0  0  0  # atno 5461 bound_to 1661

> <Gold.Score>
     Fitness  S(hb_ext) S(vdw_ext)  S(hb_int)    S(int)      intcor
     36.38       4.59      23.54       0.00      -0.58      -0.76

> <Gold.Goldscore.Fitness>
36.3796

> <Gold.Goldscore.Internal.Vdw>
-0.8024

> <Gold.Goldscore.Internal.Torsion>
-0.5402

> <Gold.Goldscore.External.Vdw>
23.5392

> <Gold.Goldscore.Internal.HBond>
0.0000

> <Gold.Goldscore.External.HBond>
4.5909

> <Gold.Goldscore.Internal.Correction>
-0.7650

> <Gold.Goldscore.Hbonds>
donor molecule, donor type, donor heavy atom, donor atom, acceptor molecule, acceptor atom, score
      P1  H   745   748       L1    17  0.01
      L1  H    10    23       P1  2677  0.75

> <Gold.Goldscore.Internal.Vdw.Weighted>
-0.8024

> <Gold.Goldscore.Internal.Torsion.Weighted>
-0.5402

> <Gold.Goldscore.External.Vdw.Weighted>
32.3664

> <Gold.Goldscore.Internal.HBond.Weighted>
0.0000

> <Gold.Goldscore.External.HBond.Weighted>
4.5909

> <Gold.Goldscore.Internal.Correction.Weighted>
-0.7650

> <Gold.Rescore>
     Score     S(PLP)   S(hbond)     S(cho)   S(metal)  DE(clash)   DE(tors)     intcor
     34.82     -31.68       1.08       0.00       0.00       0.00       0.06       ----

> <Gold.PLP.Fitness>
34.8212

> <Gold.PLP.PLP>
-31.6819

> <Gold.PLP.part.hbond>
-1.9800

> <Gold.PLP.part.metal>
0.0000

> <Gold.PLP.part.buried>
-3.9602

> <Gold.PLP.part.nonpolar>
-27.6177

> <Gold.PLP.part.repulsive>
0.3466

> <Gold.PLP.ligand.clash>
0.0000

> <Gold.PLP.ligand.torsion>
0.0567

> <Gold.PLP.Chemscore.Hbond>
1.0842

> <Gold.PLP.Chemscore.CHOScore>
0.0000

> <Gold.PLP.Chemscore.Metal>
0.0000

> <Gold.Chemscore.Hbonds>
donor molecule, donor type, donor heavy atom, donor atom, acceptor molecule, acceptor atom, score
      L1  H    10    23       P1  2677  0.55
      P1  H   745   748       L1    17  0.01

> <Gold.PLP.Chemscore.Internal.Correction>
   9.000000E+99

