#       Name:                CT1002167954
#       Creating user name   hitesit
#       Creation time:       Sun Apr 16 02:21:41 2023


#       File generated by GOLD software.
#

@<TRIPOS>MOLECULE
CT1002167954|ligand_prepared|mol2|1|dock1
    29    30     1
SMALL
NO_CHARGES


@<TRIPOS>ATOM
      1 C1          21.2061  -0.8713 -19.6850 C.3            1 RES1               0.0000
      2 C2          21.7081  -2.3296 -19.6795 C.ar           1 RES1               0.0000
      3 C3          19.7800  -0.9071 -19.1434 C.2            1 RES1               0.0000
      4 C4          22.1809  -0.0813 -18.8189 C.2            1 RES1               0.0000
      5 C5          21.1821  -0.2241 -21.0893 C.3            1 RES1               0.0000
      6 C6          21.2951  -3.2175 -18.6907 C.ar           1 RES1               0.0000
      7 C7          22.5808  -2.8015 -20.6564 C.ar           1 RES1               0.0000
      8 N8          19.5730  -0.4430 -17.8778 N.am           1 RES1               0.0000
      9 O9          18.8578  -1.3720 -19.8020 O.2            1 RES1               0.0000
     10 N10         21.7102   0.4570 -17.6499 N.am           1 RES1               0.0000
     11 O11         23.3564   0.0659 -19.1299 O.2            1 RES1               0.0000
     12 C12         20.4898   1.1292 -21.1290 C.3            1 RES1               0.0000
     13 C13         21.7361  -4.5304 -18.6804 C.ar           1 RES1               0.0000
     14 C14         23.0209  -4.1148 -20.6441 C.ar           1 RES1               0.0000
     15 C15         20.4582   0.2859 -17.1251 C.2            1 RES1               0.0000
     16 C16         22.5988  -4.9801 -19.6572 C.ar           1 RES1               0.0000
     17 O17         20.1260   0.7566 -16.0410 O.2            1 RES1               0.0000
     18 H18         22.2144  -0.1030 -21.4400 H              1 RES1               0.0000
     19 H19         20.6700  -0.9030 -21.7823 H              1 RES1               0.0000
     20 H20         20.6183  -2.8811 -17.9124 H              1 RES1               0.0000
     21 H21         22.9269  -2.1384 -21.4419 H              1 RES1               0.0000
     22 H22         18.6771  -0.6579 -17.4517 H              1 RES1               0.0000
     23 H23         22.3527   1.0392 -17.1221 H              1 RES1               0.0000
     24 H24         20.5010   1.5388 -22.1368 H              1 RES1               0.0000
     25 H25         19.4532   1.0417 -20.8102 H              1 RES1               0.0000
     26 H26         20.9885   1.8369 -20.4699 H              1 RES1               0.0000
     27 H27         21.4021  -5.2070 -17.9008 H              1 RES1               0.0000
     28 H28         23.7003  -4.4642 -21.4145 H              1 RES1               0.0000
     29 H29         22.9439  -6.0087 -19.6492 H              1 RES1               0.0000
@<TRIPOS>BOND
    1    1    2 1     
    2    1    3 1     
    3    1    4 1     
    4    1    5 1     
    5    2    6 ar    
    6    2    7 ar    
    7    3    8 1     
    8    3    9 2     
    9    4   10 1     
   10    4   11 2     
   11    5   12 1     
   12    5   18 1     
   13    5   19 1     
   14    6   13 ar    
   15    6   20 1     
   16    7   14 ar    
   17    7   21 1     
   18    8   15 1     
   19    8   22 1     
   20   10   15 1     
   21   10   23 1     
   22   12   24 1     
   23   12   25 1     
   24   12   26 1     
   25   13   16 ar    
   26   13   27 1     
   27   14   16 ar    
   28   14   28 1     
   29   15   17 2     
   30   16   29 1     
@<TRIPOS>SUBSTRUCTURE
      1 RES1           1
@<TRIPOS>SET
DONOR_HYDROGENS      STATIC     ATOMS    <user>   **** ""
2 22 23
ATOM$RED        STATIC     ATOMS    COLORGROUP SYSTEM
2 22 23
@<TRIPOS>COMMENT
> <Gold.Version>
2022.3.0

> <Gold.Id.Protein>
unknown|3iw5_clean|pdb

> <Gold.Protein.RotatedTorsions>
[  748  745  744  743 ] final  128.25 input   59.98 | X-H torsion
[ 1667 1661 1659 1656 ] final -151.83 input   59.98 | X-H torsion
[ 2625 2618 2617 2616 ] final  -15.27 input   60.00 | X-H torsion
[  493  476  477  478 ] final -131.66 input   60.03 | X-H torsion
[  472  469  468  465 ] final  -83.40 input   60.00 | X-H torsion

> <Gold.Protein.ActiveResidues>
 TRP18   SER28   PRO29   VAL30   GLY31   SER32   TYR35   GLY36   SER37   VAL38  
 CYS39   ALA40   ALA41   ARG49   VAL50   ALA51   VAL52   LYS53   LYS54   LEU55  
 GLU71   LEU72   LEU74   LEU75   MET78   ILE84   GLY85   LEU86   LEU87   ASP88  
 VAL89   VAL102  TYR103  LEU104  VAL105  THR106  HIS107  LEU108  MET109  GLY110 
 ALA111  ASP112  LEU113  ASN114  ASN115  PRO153  SER154  ASN155  LEU156  ALA157 
 VAL158  ASN159  LYS165  ILE166  LEU167  ASP168  PHE169  GLY170  LEU171 

> <Gold.Protein.RotatedAtoms>
   22.9044    9.1738  -14.6401 H   0  0  0  0  0  0  0  0  0  0  0  0  # atno 472  bound_to 469 
   22.6579   -1.3030  -10.9670 H   0  0  0  0  0  0  0  0  0  0  0  0  # atno 493  bound_to 476 
   22.8321   -0.1592  -12.1538 H   0  0  0  0  0  0  0  0  0  0  0  0  # atno 494  bound_to 476 
   22.9233   -2.0329  -14.2641 H   0  0  0  0  0  0  0  0  0  0  0  0  # atno 748  bound_to 745 
   22.1996   -1.0348  -15.3716 H   0  0  0  0  0  0  0  0  0  0  0  0  # atno 749  bound_to 745 
   22.8247   -2.4922  -15.8535 H   0  0  0  0  0  0  0  0  0  0  0  0  # atno 750  bound_to 745 
   20.9803   -4.7415  -24.9696 H   0  0  0  0  0  0  0  0  0  0  0  0  # atno 1667 bound_to 1661
   18.8029   -5.2321  -27.8701 H   0  0  0  0  0  0  0  0  0  0  0  0  # atno 2625 bound_to 2618
   18.7172   -6.7672  -28.4903 H   0  0  0  0  0  0  0  0  0  0  0  0  # atno 2626 bound_to 2618
   18.8758   -5.4687  -29.5085 H   0  0  0  0  0  0  0  0  0  0  0  0  # atno 2627 bound_to 2618
   21.5971   -6.2395  -25.1263 LP  0  0  0  0  0  0  0  0  0  0  0  0  # atno 5460 bound_to 1661
   21.7923   -5.1440  -26.3215 LP  0  0  0  0  0  0  0  0  0  0  0  0  # atno 5461 bound_to 1661

> <Gold.Score>
     Fitness  S(hb_ext) S(vdw_ext)  S(hb_int)    S(int)      intcor
     34.75       1.91      24.24       0.00      -0.49      -0.76

> <Gold.Goldscore.Fitness>
34.7497

> <Gold.Goldscore.Internal.Vdw>
-0.7604

> <Gold.Goldscore.Internal.Torsion>
-0.4971

> <Gold.Goldscore.External.Vdw>
24.2409

> <Gold.Goldscore.Internal.HBond>
0.0000

> <Gold.Goldscore.External.HBond>
1.9110

> <Gold.Goldscore.Internal.Correction>
-0.7650

> <Gold.Goldscore.Hbonds>
donor molecule, donor type, donor heavy atom, donor atom, acceptor molecule, acceptor atom, score
      P1  H   745   749       L1    17  0.10
      L1  H     8    22       P1  2685  0.65

> <Gold.Goldscore.Internal.Vdw.Weighted>
-0.7604

> <Gold.Goldscore.Internal.Torsion.Weighted>
-0.4971

> <Gold.Goldscore.External.Vdw.Weighted>
33.3313

> <Gold.Goldscore.Internal.HBond.Weighted>
0.0000

> <Gold.Goldscore.External.HBond.Weighted>
1.9110

> <Gold.Goldscore.Internal.Correction.Weighted>
-0.7650

> <Gold.Rescore>
     Score     S(PLP)   S(hbond)     S(cho)   S(metal)  DE(clash)   DE(tors)     intcor
     33.73     -32.86       1.00       0.00       0.00       0.05       1.04       ----

> <Gold.PLP.Fitness>
33.7276

> <Gold.PLP.PLP>
-32.8604

> <Gold.PLP.part.hbond>
-1.0000

> <Gold.PLP.part.metal>
0.0000

> <Gold.PLP.part.buried>
-3.1431

> <Gold.PLP.part.nonpolar>
-29.8209

> <Gold.PLP.part.repulsive>
0.6860

> <Gold.PLP.ligand.clash>
0.0467

> <Gold.PLP.ligand.torsion>
1.0431

> <Gold.PLP.Chemscore.Hbond>
1.0000

> <Gold.PLP.Chemscore.CHOScore>
0.0000

> <Gold.PLP.Chemscore.Metal>
0.0000

> <Gold.Chemscore.Hbonds>
donor molecule, donor type, donor heavy atom, donor atom, acceptor molecule, acceptor atom, score
      L1  H     8    22       P1  2685  0.73

> <Gold.PLP.Chemscore.Internal.Correction>
   9.000000E+99

