#       Name:                CT1002167954
#       Creating user name   hitesit
#       Creation time:       Sun Apr 16 02:21:51 2023


#       File generated by GOLD software.
#

@<TRIPOS>MOLECULE
CT1002167954|ligand_prepared|mol2|1|dock10
    29    30     1
SMALL
NO_CHARGES


@<TRIPOS>ATOM
      1 C1          19.0581   1.4808 -22.7758 C.3            1 RES1               0.0000
      2 C2          19.4929   0.9086 -21.4112 C.ar           1 RES1               0.0000
      3 C3          20.1331   2.4849 -23.1815 C.2            1 RES1               0.0000
      4 C4          18.9330   0.2887 -23.7180 C.2            1 RES1               0.0000
      5 C5          17.6939   2.2085 -22.7422 C.3            1 RES1               0.0000
      6 C6          18.9361   1.3911 -20.2305 C.ar           1 RES1               0.0000
      7 C7          20.4462  -0.1019 -21.3172 C.ar           1 RES1               0.0000
      8 N8          20.9939   2.1219 -24.1751 N.am           1 RES1               0.0000
      9 O9          20.2485   3.5628 -22.6114 O.2            1 RES1               0.0000
     10 N10         19.8044   0.2094 -24.7725 N.am           1 RES1               0.0000
     11 O11         18.0984  -0.5914 -23.5471 O.2            1 RES1               0.0000
     12 C12         17.1543   2.5636 -24.1187 C.3            1 RES1               0.0000
     13 C13         19.3161   0.8798 -19.0007 C.ar           1 RES1               0.0000
     14 C14         20.8250  -0.6116 -20.0863 C.ar           1 RES1               0.0000
     15 C15         20.8490   1.0559 -25.0261 C.2            1 RES1               0.0000
     16 C16         20.2603  -0.1220 -18.9277 C.ar           1 RES1               0.0000
     17 O17         21.6232   0.8880 -25.9640 O.2            1 RES1               0.0000
     18 H18         16.9645   1.5678 -22.2315 H              1 RES1               0.0000
     19 H19         17.7995   3.1297 -22.1560 H              1 RES1               0.0000
     20 H20         18.1933   2.1810 -20.2681 H              1 RES1               0.0000
     21 H21         20.9045  -0.5016 -22.2154 H              1 RES1               0.0000
     22 H22         21.8221   2.6962 -24.2964 H              1 RES1               0.0000
     23 H23         19.6610  -0.5510 -25.4294 H              1 RES1               0.0000
     24 H24         16.1959   3.0720 -24.0379 H              1 RES1               0.0000
     25 H25         17.8432   3.2207 -24.6454 H              1 RES1               0.0000
     26 H26         17.0133   1.6681 -24.7205 H              1 RES1               0.0000
     27 H27         18.8697   1.2695 -18.0918 H              1 RES1               0.0000
     28 H28         21.5689  -1.3996 -20.0335 H              1 RES1               0.0000
     29 H29         20.5576  -0.5226 -17.9642 H              1 RES1               0.0000
@<TRIPOS>BOND
    1    1    2 1     
    2    1    3 1     
    3    1    4 1     
    4    1    5 1     
    5    2    6 ar    
    6    2    7 ar    
    7    3    8 1     
    8    3    9 2     
    9    4   10 1     
   10    4   11 2     
   11    5   12 1     
   12    5   18 1     
   13    5   19 1     
   14    6   13 ar    
   15    6   20 1     
   16    7   14 ar    
   17    7   21 1     
   18    8   15 1     
   19    8   22 1     
   20   10   15 1     
   21   10   23 1     
   22   12   24 1     
   23   12   25 1     
   24   12   26 1     
   25   13   16 ar    
   26   13   27 1     
   27   14   16 ar    
   28   14   28 1     
   29   15   17 2     
   30   16   29 1     
@<TRIPOS>SUBSTRUCTURE
      1 RES1           1
@<TRIPOS>SET
DONOR_HYDROGENS      STATIC     ATOMS    <user>   **** ""
2 22 23
ATOM$RED        STATIC     ATOMS    COLORGROUP SYSTEM
2 22 23
@<TRIPOS>COMMENT
> <Gold.Version>
2022.3.0

> <Gold.Id.Protein>
unknown|3iw5_clean|pdb

> <Gold.Protein.RotatedTorsions>
[  748  745  744  743 ] final  163.73 input   59.98 | X-H torsion
[ 1667 1661 1659 1656 ] final   14.27 input   59.98 | X-H torsion
[ 2625 2618 2617 2616 ] final  118.79 input   60.00 | X-H torsion
[  493  476  477  478 ] final   29.20 input   60.03 | X-H torsion
[  472  469  468  465 ] final  -54.96 input   60.00 | X-H torsion

> <Gold.Protein.ActiveResidues>
 TRP18   SER28   PRO29   VAL30   GLY31   SER32   TYR35   GLY36   SER37   VAL38  
 CYS39   ALA40   ALA41   ARG49   VAL50   ALA51   VAL52   LYS53   LYS54   LEU55  
 GLU71   LEU72   LEU74   LEU75   MET78   ILE84   GLY85   LEU86   LEU87   ASP88  
 VAL89   VAL102  TYR103  LEU104  VAL105  THR106  HIS107  LEU108  MET109  GLY110 
 ALA111  ASP112  LEU113  ASN114  ASN115  PRO153  SER154  ASN155  LEU156  ALA157 
 VAL158  ASN159  LYS165  ILE166  LEU167  ASP168  PHE169  GLY170  LEU171 

> <Gold.Protein.RotatedAtoms>
   23.0442    9.0182  -15.0497 H   0  0  0  0  0  0  0  0  0  0  0  0  # atno 472  bound_to 469 
   23.0518   -0.5475  -12.6510 H   0  0  0  0  0  0  0  0  0  0  0  0  # atno 493  bound_to 476 
   23.0582   -2.0118  -11.8746 H   0  0  0  0  0  0  0  0  0  0  0  0  # atno 494  bound_to 476 
   22.6632   -1.5112  -14.2693 H   0  0  0  0  0  0  0  0  0  0  0  0  # atno 748  bound_to 745 
   22.2503   -1.3405  -15.8652 H   0  0  0  0  0  0  0  0  0  0  0  0  # atno 749  bound_to 745 
   23.0344   -2.7082  -15.3539 H   0  0  0  0  0  0  0  0  0  0  0  0  # atno 750  bound_to 745 
   21.9466   -5.8352  -26.1217 H   0  0  0  0  0  0  0  0  0  0  0  0  # atno 1667 bound_to 1661
   18.7298   -6.7715  -28.7244 H   0  0  0  0  0  0  0  0  0  0  0  0  # atno 2625 bound_to 2618
   18.8860   -5.2637  -29.3958 H   0  0  0  0  0  0  0  0  0  0  0  0  # atno 2626 bound_to 2618
   18.7802   -5.4320  -27.7501 H   0  0  0  0  0  0  0  0  0  0  0  0  # atno 2627 bound_to 2618
   21.2033   -4.4773  -25.6192 LP  0  0  0  0  0  0  0  0  0  0  0  0  # atno 5460 bound_to 1661
   21.2134   -5.8052  -24.6689 LP  0  0  0  0  0  0  0  0  0  0  0  0  # atno 5461 bound_to 1661

> <Gold.Score>
     Fitness  S(hb_ext) S(vdw_ext)  S(hb_int)    S(int)      intcor
     30.61       0.88      22.04       0.00      -0.56      -0.76

> <Gold.Goldscore.Fitness>
30.6141

> <Gold.Goldscore.Internal.Vdw>
-0.8117

> <Gold.Goldscore.Internal.Torsion>
-0.5151

> <Gold.Goldscore.External.Vdw>
22.0350

> <Gold.Goldscore.Internal.HBond>
0.0000

> <Gold.Goldscore.External.HBond>
0.8778

> <Gold.Goldscore.Internal.Correction>
-0.7650

> <Gold.Goldscore.Hbonds>
donor molecule, donor type, donor heavy atom, donor atom, acceptor molecule, acceptor atom, score
      P1  H  1705  1713       L1    17  0.44

> <Gold.Goldscore.Internal.Vdw.Weighted>
-0.8117

> <Gold.Goldscore.Internal.Torsion.Weighted>
-0.5151

> <Gold.Goldscore.External.Vdw.Weighted>
30.2982

> <Gold.Goldscore.Internal.HBond.Weighted>
0.0000

> <Gold.Goldscore.External.HBond.Weighted>
0.8778

> <Gold.Goldscore.Internal.Correction.Weighted>
-0.7650

> <Gold.Rescore>
     Score     S(PLP)   S(hbond)     S(cho)   S(metal)  DE(clash)   DE(tors)     intcor
     39.16     -33.82       2.00       0.00       0.00       0.00       0.33       ----

> <Gold.PLP.Fitness>
39.1623

> <Gold.PLP.PLP>
-33.8174

> <Gold.PLP.part.hbond>
-2.0000

> <Gold.PLP.part.metal>
0.0000

> <Gold.PLP.part.buried>
-5.2671

> <Gold.PLP.part.nonpolar>
-27.3046

> <Gold.PLP.part.repulsive>
0.1855

> <Gold.PLP.ligand.clash>
0.0000

> <Gold.PLP.ligand.torsion>
0.3275

> <Gold.PLP.Chemscore.Hbond>
2.0000

> <Gold.PLP.Chemscore.CHOScore>
0.0000

> <Gold.PLP.Chemscore.Metal>
0.0000

> <Gold.Chemscore.Hbonds>
donor molecule, donor type, donor heavy atom, donor atom, acceptor molecule, acceptor atom, score
      P1  H  1705  1713       L1    17  1.00

> <Gold.PLP.Chemscore.Internal.Correction>
   9.000000E+99

