#       Name:                CT1002167954
#       Creating user name   hitesit
#       Creation time:       Sun Apr 16 02:21:48 2023


#       File generated by GOLD software.
#

@<TRIPOS>MOLECULE
CT1002167954|ligand_prepared|mol2|1|dock7
    29    30     1
SMALL
NO_CHARGES


@<TRIPOS>ATOM
      1 C1          20.4131   0.7291 -23.7609 C.3            1 RES1               0.0000
      2 C2          19.7012   2.0669 -24.0473 C.ar           1 RES1               0.0000
      3 C3          19.3959  -0.1523 -23.0421 C.2            1 RES1               0.0000
      4 C4          20.8611   0.1861 -25.1134 C.2            1 RES1               0.0000
      5 C5          21.6648   0.8670 -22.8631 C.3            1 RES1               0.0000
      6 C6          20.4280   3.1859 -24.4429 C.ar           1 RES1               0.0000
      7 C7          18.3205   2.1967 -23.9230 C.ar           1 RES1               0.0000
      8 N8          18.8387  -1.1781 -23.7472 N.am           1 RES1               0.0000
      9 O9          19.0583   0.0734 -21.8865 O.2            1 RES1               0.0000
     10 N10         20.2863  -0.9742 -25.5617 N.am           1 RES1               0.0000
     11 O11         21.6944   0.7615 -25.8023 O.2            1 RES1               0.0000
     12 C12         22.2493  -0.4641 -22.4174 C.3            1 RES1               0.0000
     13 C13         19.7971   4.3901 -24.7076 C.ar           1 RES1               0.0000
     14 C14         17.6916   3.4020 -24.1879 C.ar           1 RES1               0.0000
     15 C15         19.2732  -1.6645 -24.9540 C.2            1 RES1               0.0000
     16 C16         18.4287   4.4989 -24.5808 C.ar           1 RES1               0.0000
     17 O17         18.7706  -2.6705 -25.4463 O.2            1 RES1               0.0000
     18 H18         22.4337   1.4240 -23.4125 H              1 RES1               0.0000
     19 H19         21.3987   1.4512 -21.9736 H              1 RES1               0.0000
     20 H20         21.5060   3.1200 -24.5458 H              1 RES1               0.0000
     21 H21         17.7206   1.3473 -23.6143 H              1 RES1               0.0000
     22 H22         18.0235  -1.6248 -23.3396 H              1 RES1               0.0000
     23 H23         20.6473  -1.3592 -26.4288 H              1 RES1               0.0000
     24 H24         23.1250  -0.3102 -21.7904 H              1 RES1               0.0000
     25 H25         21.5194  -1.0340 -21.8462 H              1 RES1               0.0000
     26 H26         22.5483  -1.0611 -23.2765 H              1 RES1               0.0000
     27 H27         20.3818   5.2508 -25.0151 H              1 RES1               0.0000
     28 H28         16.6145   3.4832 -24.0862 H              1 RES1               0.0000
     29 H29         17.9346   5.4423 -24.7886 H              1 RES1               0.0000
@<TRIPOS>BOND
    1    1    2 1     
    2    1    3 1     
    3    1    4 1     
    4    1    5 1     
    5    2    6 ar    
    6    2    7 ar    
    7    3    8 1     
    8    3    9 2     
    9    4   10 1     
   10    4   11 2     
   11    5   12 1     
   12    5   18 1     
   13    5   19 1     
   14    6   13 ar    
   15    6   20 1     
   16    7   14 ar    
   17    7   21 1     
   18    8   15 1     
   19    8   22 1     
   20   10   15 1     
   21   10   23 1     
   22   12   24 1     
   23   12   25 1     
   24   12   26 1     
   25   13   16 ar    
   26   13   27 1     
   27   14   16 ar    
   28   14   28 1     
   29   15   17 2     
   30   16   29 1     
@<TRIPOS>SUBSTRUCTURE
      1 RES1           1
@<TRIPOS>SET
DONOR_HYDROGENS      STATIC     ATOMS    <user>   **** ""
2 22 23
ATOM$RED        STATIC     ATOMS    COLORGROUP SYSTEM
2 22 23
@<TRIPOS>COMMENT
> <Gold.Version>
2022.3.0

> <Gold.Id.Protein>
unknown|3iw5_clean|pdb

> <Gold.Protein.RotatedTorsions>
[  748  745  744  743 ] final  -46.76 input   59.98 | X-H torsion
[ 1667 1661 1659 1656 ] final -132.64 input   59.98 | X-H torsion
[ 2625 2618 2617 2616 ] final   88.38 input   60.00 | X-H torsion
[  493  476  477  478 ] final   84.91 input   60.03 | X-H torsion
[  472  469  468  465 ] final   64.95 input   60.00 | X-H torsion

> <Gold.Protein.ActiveResidues>
 TRP18   SER28   PRO29   VAL30   GLY31   SER32   TYR35   GLY36   SER37   VAL38  
 CYS39   ALA40   ALA41   ARG49   VAL50   ALA51   VAL52   LYS53   LYS54   LEU55  
 GLU71   LEU72   LEU74   LEU75   MET78   ILE84   GLY85   LEU86   LEU87   ASP88  
 VAL89   VAL102  TYR103  LEU104  VAL105  THR106  HIS107  LEU108  MET109  GLY110 
 ALA111  ASP112  LEU113  ASN114  ASN115  PRO153  SER154  ASN155  LEU156  ALA157 
 VAL158  ASN159  LYS165  ILE166  LEU167  ASP168  PHE169  GLY170  LEU171 

> <Gold.Protein.RotatedAtoms>
   21.6983    8.5748  -15.8374 H   0  0  0  0  0  0  0  0  0  0  0  0  # atno 472  bound_to 469 
   23.2130   -1.4261  -12.6930 H   0  0  0  0  0  0  0  0  0  0  0  0  # atno 493  bound_to 476 
   22.7612   -1.6476  -11.1138 H   0  0  0  0  0  0  0  0  0  0  0  0  # atno 494  bound_to 476 
   22.4081   -1.7464  -16.0828 H   0  0  0  0  0  0  0  0  0  0  0  0  # atno 748  bound_to 745 
   23.1012   -2.6452  -14.8751 H   0  0  0  0  0  0  0  0  0  0  0  0  # atno 749  bound_to 745 
   22.4374   -1.1662  -14.5305 H   0  0  0  0  0  0  0  0  0  0  0  0  # atno 750  bound_to 745 
   21.0437   -4.5700  -25.2228 H   0  0  0  0  0  0  0  0  0  0  0  0  # atno 1667 bound_to 1661
   18.7085   -6.6900  -28.2296 H   0  0  0  0  0  0  0  0  0  0  0  0  # atno 2625 bound_to 2618
   18.8592   -5.7323  -29.5745 H   0  0  0  0  0  0  0  0  0  0  0  0  # atno 2626 bound_to 2618
   18.8283   -5.0454  -28.0662 H   0  0  0  0  0  0  0  0  0  0  0  0  # atno 2627 bound_to 2618
   21.4340   -6.1143  -24.8884 LP  0  0  0  0  0  0  0  0  0  0  0  0  # atno 5460 bound_to 1661
   21.8916   -5.4418  -26.3044 LP  0  0  0  0  0  0  0  0  0  0  0  0  # atno 5461 bound_to 1661

> <Gold.Score>
     Fitness  S(hb_ext) S(vdw_ext)  S(hb_int)    S(int)      intcor
     38.42       2.94      26.79       0.00      -1.35      -0.76

> <Gold.Goldscore.Fitness>
38.4238

> <Gold.Goldscore.Internal.Vdw>
-1.6336

> <Gold.Goldscore.Internal.Torsion>
-0.4812

> <Gold.Goldscore.External.Vdw>
26.7915

> <Gold.Goldscore.Internal.HBond>
0.0000

> <Gold.Goldscore.External.HBond>
2.9352

> <Gold.Goldscore.Internal.Correction>
-0.7650

> <Gold.Goldscore.Hbonds>
donor molecule, donor type, donor heavy atom, donor atom, acceptor molecule, acceptor atom, score
      P1  H  1661  1667       L1    17  0.08
      P1  H  1705  1713       L1    11  0.41
      L1  H    10    23       P1  1672  0.98

> <Gold.Goldscore.Internal.Vdw.Weighted>
-1.6336

> <Gold.Goldscore.Internal.Torsion.Weighted>
-0.4812

> <Gold.Goldscore.External.Vdw.Weighted>
36.8383

> <Gold.Goldscore.Internal.HBond.Weighted>
0.0000

> <Gold.Goldscore.External.HBond.Weighted>
2.9352

> <Gold.Goldscore.Internal.Correction.Weighted>
-0.7650

> <Gold.Rescore>
     Score     S(PLP)   S(hbond)     S(cho)   S(metal)  DE(clash)   DE(tors)     intcor
     33.54     -29.23       2.00       0.00       0.00       0.76       0.46       ----

> <Gold.PLP.Fitness>
33.5385

> <Gold.PLP.PLP>
-29.2256

> <Gold.PLP.part.hbond>
-2.0000

> <Gold.PLP.part.metal>
0.0000

> <Gold.PLP.part.buried>
-2.1745

> <Gold.PLP.part.nonpolar>
-24.3163

> <Gold.PLP.part.repulsive>
0.2389

> <Gold.PLP.ligand.clash>
0.7646

> <Gold.PLP.ligand.torsion>
0.4612

> <Gold.PLP.Chemscore.Hbond>
2.0000

> <Gold.PLP.Chemscore.CHOScore>
0.0000

> <Gold.PLP.Chemscore.Metal>
0.0000

> <Gold.Chemscore.Hbonds>
donor molecule, donor type, donor heavy atom, donor atom, acceptor molecule, acceptor atom, score
      L1  H    10    23       P1  1672  1.00
      P1  H  1705  1713       L1    11  0.62

> <Gold.PLP.Chemscore.Internal.Correction>
   9.000000E+99

