#       Name:                CT1002167954
#       Creating user name   hitesit
#       Creation time:       Sun Apr 16 02:21:43 2023


#       File generated by GOLD software.
#

@<TRIPOS>MOLECULE
CT1002167954|ligand_prepared|mol2|1|dock3
    29    30     1
SMALL
NO_CHARGES


@<TRIPOS>ATOM
      1 C1          19.3505   2.1103 -23.8415 C.3            1 RES1               0.0000
      2 C2          19.6982   0.7399 -24.4578 C.ar           1 RES1               0.0000
      3 C3          19.6156   1.9862 -22.3440 C.2            1 RES1               0.0000
      4 C4          20.2348   3.1322 -24.5473 C.2            1 RES1               0.0000
      5 C5          17.8766   2.5315 -24.0461 C.3            1 RES1               0.0000
      6 C6          20.9165   0.5405 -25.1004 C.ar           1 RES1               0.0000
      7 C7          18.8137  -0.3333 -24.3895 C.ar           1 RES1               0.0000
      8 N8          20.7224   2.6072 -21.8447 N.am           1 RES1               0.0000
      9 O9          18.8864   1.3209 -21.6189 O.2            1 RES1               0.0000
     10 N10         21.1865   3.7800 -23.8040 N.am           1 RES1               0.0000
     11 O11         20.1272   3.3703 -25.7440 O.2            1 RES1               0.0000
     12 C12         17.6263   4.0147 -23.8236 C.3            1 RES1               0.0000
     13 C13         21.2401  -0.6880 -25.6521 C.ar           1 RES1               0.0000
     14 C14         19.1393  -1.5609 -24.9422 C.ar           1 RES1               0.0000
     15 C15         21.4909   3.5415 -22.4915 C.2            1 RES1               0.0000
     16 C16         20.3520  -1.7395 -25.5731 C.ar           1 RES1               0.0000
     17 O17         22.3977   4.1266 -21.9064 O.2            1 RES1               0.0000
     18 H18         17.5738   2.2717 -25.0680 H              1 RES1               0.0000
     19 H19         17.2465   1.9594 -23.3540 H              1 RES1               0.0000
     20 H20         21.6270   1.3570 -25.1746 H              1 RES1               0.0000
     21 H21         17.8535  -0.2155 -23.8990 H              1 RES1               0.0000
     22 H22         21.0050   2.3534 -20.9034 H              1 RES1               0.0000
     23 H23         21.7172   4.5075 -24.2726 H              1 RES1               0.0000
     24 H24         16.5771   4.2565 -23.9799 H              1 RES1               0.0000
     25 H25         17.8930   4.3030 -22.8089 H              1 RES1               0.0000
     26 H26         18.2184   4.6134 -24.5127 H              1 RES1               0.0000
     27 H27         22.1953  -0.8230 -26.1488 H              1 RES1               0.0000
     28 H28         18.4370  -2.3855 -24.8782 H              1 RES1               0.0000
     29 H29         20.6059  -2.7019 -26.0050 H              1 RES1               0.0000
@<TRIPOS>BOND
    1    1    2 1     
    2    1    3 1     
    3    1    4 1     
    4    1    5 1     
    5    2    6 ar    
    6    2    7 ar    
    7    3    8 1     
    8    3    9 2     
    9    4   10 1     
   10    4   11 2     
   11    5   12 1     
   12    5   18 1     
   13    5   19 1     
   14    6   13 ar    
   15    6   20 1     
   16    7   14 ar    
   17    7   21 1     
   18    8   15 1     
   19    8   22 1     
   20   10   15 1     
   21   10   23 1     
   22   12   24 1     
   23   12   25 1     
   24   12   26 1     
   25   13   16 ar    
   26   13   27 1     
   27   14   16 ar    
   28   14   28 1     
   29   15   17 2     
   30   16   29 1     
@<TRIPOS>SUBSTRUCTURE
      1 RES1           1
@<TRIPOS>SET
DONOR_HYDROGENS      STATIC     ATOMS    <user>   **** ""
2 22 23
ATOM$RED        STATIC     ATOMS    COLORGROUP SYSTEM
2 22 23
@<TRIPOS>COMMENT
> <Gold.Version>
2022.3.0

> <Gold.Id.Protein>
unknown|3iw5_clean|pdb

> <Gold.Protein.RotatedTorsions>
[  748  745  744  743 ] final  170.77 input   59.98 | X-H torsion
[ 1667 1661 1659 1656 ] final -173.80 input   59.98 | X-H torsion
[ 2625 2618 2617 2616 ] final   42.91 input   60.00 | X-H torsion
[  493  476  477  478 ] final   -8.04 input   60.03 | X-H torsion
[  472  469  468  465 ] final  -48.80 input   60.00 | X-H torsion

> <Gold.Protein.ActiveResidues>
 TRP18   SER28   PRO29   VAL30   GLY31   SER32   TYR35   GLY36   SER37   VAL38  
 CYS39   ALA40   ALA41   ARG49   VAL50   ALA51   VAL52   LYS53   LYS54   LEU55  
 GLU71   LEU72   LEU74   LEU75   MET78   ILE84   GLY85   LEU86   LEU87   ASP88  
 VAL89   VAL102  TYR103  LEU104  VAL105  THR106  HIS107  LEU108  MET109  GLY110 
 ALA111  ASP112  LEU113  ASN114  ASN115  PRO153  SER154  ASN155  LEU156  ALA157 
 VAL158  ASN159  LYS165  ILE166  LEU167  ASP168  PHE169  GLY170  LEU171 

> <Gold.Protein.RotatedAtoms>
   23.0451    8.9801  -15.1429 H   0  0  0  0  0  0  0  0  0  0  0  0  # atno 472  bound_to 469 
   22.8522   -0.1770  -12.2080 H   0  0  0  0  0  0  0  0  0  0  0  0  # atno 493  bound_to 476 
   23.1907   -1.7848  -12.4261 H   0  0  0  0  0  0  0  0  0  0  0  0  # atno 494  bound_to 476 
   22.6076   -1.4170  -14.3122 H   0  0  0  0  0  0  0  0  0  0  0  0  # atno 748  bound_to 745 
   22.2796   -1.4291  -15.9366 H   0  0  0  0  0  0  0  0  0  0  0  0  # atno 749  bound_to 745 
   23.0607   -2.7139  -15.2395 H   0  0  0  0  0  0  0  0  0  0  0  0  # atno 750  bound_to 745 
   20.9731   -5.0224  -24.7495 H   0  0  0  0  0  0  0  0  0  0  0  0  # atno 1667 bound_to 1661
   18.7229   -6.1480  -27.7265 H   0  0  0  0  0  0  0  0  0  0  0  0  # atno 2625 bound_to 2618
   18.7918   -6.4367  -29.3576 H   0  0  0  0  0  0  0  0  0  0  0  0  # atno 2626 bound_to 2618
   18.8813   -4.8834  -28.7856 H   0  0  0  0  0  0  0  0  0  0  0  0  # atno 2627 bound_to 2618
   21.7633   -6.2643  -25.4439 LP  0  0  0  0  0  0  0  0  0  0  0  0  # atno 5460 bound_to 1661
   21.6334   -4.8364  -26.2254 LP  0  0  0  0  0  0  0  0  0  0  0  0  # atno 5461 bound_to 1661

> <Gold.Score>
     Fitness  S(hb_ext) S(vdw_ext)  S(hb_int)    S(int)      intcor
     37.54       0.24      28.28       0.00      -1.59      -0.76

> <Gold.Goldscore.Fitness>
37.5416

> <Gold.Goldscore.Internal.Vdw>
-1.5463

> <Gold.Goldscore.Internal.Torsion>
-0.8112

> <Gold.Goldscore.External.Vdw>
28.2837

> <Gold.Goldscore.Internal.HBond>
0.0000

> <Gold.Goldscore.External.HBond>
0.2441

> <Gold.Goldscore.Internal.Correction>
-0.7650

> <Gold.Goldscore.Hbonds>
donor molecule, donor type, donor heavy atom, donor atom, acceptor molecule, acceptor atom, score
      P1  H  1722  1726       L1    11  0.12

> <Gold.Goldscore.Internal.Vdw.Weighted>
-1.5463

> <Gold.Goldscore.Internal.Torsion.Weighted>
-0.8112

> <Gold.Goldscore.External.Vdw.Weighted>
38.8901

> <Gold.Goldscore.Internal.HBond.Weighted>
0.0000

> <Gold.Goldscore.External.HBond.Weighted>
0.2441

> <Gold.Goldscore.Internal.Correction.Weighted>
-0.7650

> <Gold.Rescore>
     Score     S(PLP)   S(hbond)     S(cho)   S(metal)  DE(clash)   DE(tors)     intcor
     31.91     -33.80       0.19       0.00       0.00       0.00       1.24       ----

> <Gold.PLP.Fitness>
31.9053

> <Gold.PLP.PLP>
-33.7979

> <Gold.PLP.part.hbond>
-2.0000

> <Gold.PLP.part.metal>
0.0000

> <Gold.PLP.part.buried>
-0.8880

> <Gold.PLP.part.nonpolar>
-30.7365

> <Gold.PLP.part.repulsive>
0.2380

> <Gold.PLP.ligand.clash>
0.0000

> <Gold.PLP.ligand.torsion>
1.2353

> <Gold.PLP.Chemscore.Hbond>
0.1927

> <Gold.PLP.Chemscore.CHOScore>
0.0000

> <Gold.PLP.Chemscore.Metal>
0.0000

> <Gold.Chemscore.Hbonds>
donor molecule, donor type, donor heavy atom, donor atom, acceptor molecule, acceptor atom, score
      P1  H  1722  1726       L1    11  0.67

> <Gold.PLP.Chemscore.Internal.Correction>
   9.000000E+99

