#       Name:                CT1002167954
#       Creating user name   hitesit
#       Creation time:       Sun Apr 16 02:21:49 2023


#       File generated by GOLD software.
#

@<TRIPOS>MOLECULE
CT1002167954|ligand_prepared|mol2|1|dock8
    29    30     1
SMALL
NO_CHARGES


@<TRIPOS>ATOM
      1 C1          20.5701   0.2588 -22.1897 C.3            1 RES1               0.0000
      2 C2          21.6710  -0.7007 -21.6935 C.ar           1 RES1               0.0000
      3 C3          21.2532   1.5990 -22.4455 C.2            1 RES1               0.0000
      4 C4          19.9745  -0.3840 -23.4374 C.2            1 RES1               0.0000
      5 C5          19.4261   0.4769 -21.1722 C.3            1 RES1               0.0000
      6 C6          23.0073  -0.4670 -22.0040 C.ar           1 RES1               0.0000
      7 C7          21.3665  -1.8200 -20.9235 C.ar           1 RES1               0.0000
      8 N8          21.4562   1.9674 -23.7428 N.am           1 RES1               0.0000
      9 O9          21.6435   2.3037 -21.5228 O.2            1 RES1               0.0000
     10 N10         20.1510   0.2561 -24.6361 N.am           1 RES1               0.0000
     11 O11         19.3684  -1.4476 -23.3957 O.2            1 RES1               0.0000
     12 C12         18.4908   1.6190 -21.5366 C.3            1 RES1               0.0000
     13 C13         24.0035  -1.3199 -21.5584 C.ar           1 RES1               0.0000
     14 C14         22.3643  -2.6717 -20.4791 C.ar           1 RES1               0.0000
     15 C15         20.8911   1.3869 -24.8498 C.2            1 RES1               0.0000
     16 C16         23.6829  -2.4224 -20.7954 C.ar           1 RES1               0.0000
     17 O17         21.0483   1.8728 -25.9662 O.2            1 RES1               0.0000
     18 H18         18.8410  -0.4478 -21.0952 H              1 RES1               0.0000
     19 H19         19.8638   0.6797 -20.1869 H              1 RES1               0.0000
     20 H20         23.2786   0.3942 -22.6054 H              1 RES1               0.0000
     21 H21         20.3360  -2.0366 -20.6633 H              1 RES1               0.0000
     22 H22         22.0864   2.7464 -23.9049 H              1 RES1               0.0000
     23 H23         19.6875  -0.1477 -25.4438 H              1 RES1               0.0000
     24 H24         17.7069   1.7288 -20.7902 H              1 RES1               0.0000
     25 H25         19.0352   2.5591 -21.5971 H              1 RES1               0.0000
     26 H26         18.0185   1.4382 -22.5000 H              1 RES1               0.0000
     27 H27         25.0396  -1.1200 -21.8112 H              1 RES1               0.0000
     28 H28         22.1073  -3.5386 -19.8794 H              1 RES1               0.0000
     29 H29         24.4635  -3.0901 -20.4461 H              1 RES1               0.0000
@<TRIPOS>BOND
    1    1    2 1     
    2    1    3 1     
    3    1    4 1     
    4    1    5 1     
    5    2    6 ar    
    6    2    7 ar    
    7    3    8 1     
    8    3    9 2     
    9    4   10 1     
   10    4   11 2     
   11    5   12 1     
   12    5   18 1     
   13    5   19 1     
   14    6   13 ar    
   15    6   20 1     
   16    7   14 ar    
   17    7   21 1     
   18    8   15 1     
   19    8   22 1     
   20   10   15 1     
   21   10   23 1     
   22   12   24 1     
   23   12   25 1     
   24   12   26 1     
   25   13   16 ar    
   26   13   27 1     
   27   14   16 ar    
   28   14   28 1     
   29   15   17 2     
   30   16   29 1     
@<TRIPOS>SUBSTRUCTURE
      1 RES1           1
@<TRIPOS>SET
DONOR_HYDROGENS      STATIC     ATOMS    <user>   **** ""
2 22 23
ATOM$RED        STATIC     ATOMS    COLORGROUP SYSTEM
2 22 23
@<TRIPOS>COMMENT
> <Gold.Version>
2022.3.0

> <Gold.Id.Protein>
unknown|3iw5_clean|pdb

> <Gold.Protein.RotatedTorsions>
[  748  745  744  743 ] final   92.78 input   59.98 | X-H torsion
[ 1667 1661 1659 1656 ] final  -41.77 input   59.98 | X-H torsion
[ 2625 2618 2617 2616 ] final   89.07 input   60.00 | X-H torsion
[  493  476  477  478 ] final -110.55 input   60.03 | X-H torsion
[  472  469  468  465 ] final   88.49 input   60.00 | X-H torsion

> <Gold.Protein.ActiveResidues>
 TRP18   SER28   PRO29   VAL30   GLY31   SER32   TYR35   GLY36   SER37   VAL38  
 CYS39   ALA40   ALA41   ARG49   VAL50   ALA51   VAL52   LYS53   LYS54   LEU55  
 GLU71   LEU72   LEU74   LEU75   MET78   ILE84   GLY85   LEU86   LEU87   ASP88  
 VAL89   VAL102  TYR103  LEU104  VAL105  THR106  HIS107  LEU108  MET109  GLY110 
 ALA111  ASP112  LEU113  ASN114  ASN115  PRO153  SER154  ASN155  LEU156  ALA157 
 VAL158  ASN159  LYS165  ILE166  LEU167  ASP168  PHE169  GLY170  LEU171 

> <Gold.Protein.RotatedAtoms>
   21.3988    8.6414  -15.6097 H   0  0  0  0  0  0  0  0  0  0  0  0  # atno 472  bound_to 469 
   22.5978   -0.9576  -10.9613 H   0  0  0  0  0  0  0  0  0  0  0  0  # atno 493  bound_to 476 
   22.9487   -0.3120  -12.4469 H   0  0  0  0  0  0  0  0  0  0  0  0  # atno 494  bound_to 476 
   23.0819   -2.4877  -14.5925 H   0  0  0  0  0  0  0  0  0  0  0  0  # atno 748  bound_to 745 
   22.3158   -1.0329  -14.8006 H   0  0  0  0  0  0  0  0  0  0  0  0  # atno 749  bound_to 745 
   22.5497   -2.0390  -16.0967 H   0  0  0  0  0  0  0  0  0  0  0  0  # atno 750  bound_to 745 
   21.7257   -4.9996  -26.2864 H   0  0  0  0  0  0  0  0  0  0  0  0  # atno 1667 bound_to 1661
   18.7087   -6.6946  -28.2400 H   0  0  0  0  0  0  0  0  0  0  0  0  # atno 2625 bound_to 2618
   18.8601   -5.7210  -29.5733 H   0  0  0  0  0  0  0  0  0  0  0  0  # atno 2626 bound_to 2618
   18.8272   -5.0520  -28.0570 H   0  0  0  0  0  0  0  0  0  0  0  0  # atno 2627 bound_to 2618
   20.9627   -4.8567  -24.8559 LP  0  0  0  0  0  0  0  0  0  0  0  0  # atno 5460 bound_to 1661
   21.6764   -6.2669  -25.2664 LP  0  0  0  0  0  0  0  0  0  0  0  0  # atno 5461 bound_to 1661

> <Gold.Score>
     Fitness  S(hb_ext) S(vdw_ext)  S(hb_int)    S(int)      intcor
     34.14       3.16      23.24       0.00      -0.97      -0.76

> <Gold.Goldscore.Fitness>
34.1448

> <Gold.Goldscore.Internal.Vdw>
-1.1570

> <Gold.Goldscore.Internal.Torsion>
-0.5751

> <Gold.Goldscore.External.Vdw>
23.2390

> <Gold.Goldscore.Internal.HBond>
0.0000

> <Gold.Goldscore.External.HBond>
3.1583

> <Gold.Goldscore.Internal.Correction>
-0.7650

> <Gold.Goldscore.Hbonds>
donor molecule, donor type, donor heavy atom, donor atom, acceptor molecule, acceptor atom, score
      P1  H  1705  1713       L1    17  0.95
      P1  H  1722  1726       L1    17  0.63

> <Gold.Goldscore.Internal.Vdw.Weighted>
-1.1570

> <Gold.Goldscore.Internal.Torsion.Weighted>
-0.5751

> <Gold.Goldscore.External.Vdw.Weighted>
31.9536

> <Gold.Goldscore.Internal.HBond.Weighted>
0.0000

> <Gold.Goldscore.External.HBond.Weighted>
3.1583

> <Gold.Goldscore.Internal.Correction.Weighted>
-0.7650

> <Gold.Rescore>
     Score     S(PLP)   S(hbond)     S(cho)   S(metal)  DE(clash)   DE(tors)     intcor
     37.27     -33.33       2.00       0.00       0.00       0.00       1.03       ----

> <Gold.PLP.Fitness>
37.2681

> <Gold.PLP.PLP>
-33.3271

> <Gold.PLP.part.hbond>
-2.0000

> <Gold.PLP.part.metal>
0.0000

> <Gold.PLP.part.buried>
-4.5955

> <Gold.PLP.part.nonpolar>
-27.0429

> <Gold.PLP.part.repulsive>
0.1021

> <Gold.PLP.ligand.clash>
0.0000

> <Gold.PLP.ligand.torsion>
1.0295

> <Gold.PLP.Chemscore.Hbond>
2.0000

> <Gold.PLP.Chemscore.CHOScore>
0.0000

> <Gold.PLP.Chemscore.Metal>
0.0000

> <Gold.Chemscore.Hbonds>
donor molecule, donor type, donor heavy atom, donor atom, acceptor molecule, acceptor atom, score
      P1  H  1705  1713       L1    17  1.00
      P1  H  1722  1726       L1    17  0.96

> <Gold.PLP.Chemscore.Internal.Correction>
   9.000000E+99

