#       Name:                GA Fitting Points
#       Creating user name   hitesit
#       Creation time:       Sun Apr 16 02:21:11 2023


#       Fitting Points Used by GA Software.
#

@<TRIPOS>MOLECULE
GA Fitting Points
  4871    0    0
SMALL
NO_CHARGES


@<TRIPOS>ATOM
      1 ****        84.0000  97.0000  18.2500 Du        
      2 ****        84.0000  97.2500  18.0000 Du        
      3 ****        84.0000  97.2500  18.2500 Du        
      4 ****        84.0000  97.2500  18.5000 Du        
      5 ****        84.2500  97.2500  18.2500 Du        
      6 ****        84.2500  97.2500  18.5000 Du        
      7 ****        84.2500  98.2500   9.5000 Du        
      8 ****        84.5000  97.2500  18.0000 Du        
      9 ****        84.5000  97.2500  18.2500 Du        
     10 ****        84.5000  97.2500  18.5000 Du        
     11 ****        84.5000  97.2500  18.7500 Du        
     12 ****        84.5000  97.7500   9.2500 Du        
     13 ****        84.5000  98.0000   9.2500 Du        
     14 ****        84.5000  98.0000   9.5000 Du        
     15 ****        84.5000  98.2500   9.0000 Du        
     16 ****        84.5000  98.2500   9.2500 Du        
     17 ****        84.5000  98.2500   9.5000 Du        
     18 ****        84.5000  98.2500   9.7500 Du        
     19 ****        84.7500  97.0000  18.5000 Du        
     20 ****        84.7500  97.0000  18.7500 Du        
     21 ****        84.7500  97.2500   8.7500 Du        
     22 ****        84.7500  97.2500   9.0000 Du        
     23 ****        84.7500  97.2500  18.2500 Du        
     24 ****        84.7500  97.2500  18.5000 Du        
     25 ****        84.7500  97.2500  18.7500 Du        
     26 ****        84.7500  97.5000   9.0000 Du        
     27 ****        84.7500  97.5000   9.2500 Du        
     28 ****        84.7500  97.7500   8.7500 Du        
     29 ****        84.7500  97.7500   9.0000 Du        
     30 ****        84.7500  97.7500   9.2500 Du        
     31 ****        84.7500  97.7500   9.5000 Du        
     32 ****        84.7500  97.7500   9.7500 Du        
     33 ****        84.7500  98.0000   8.7500 Du        
     34 ****        84.7500  98.0000   9.0000 Du        
     35 ****        84.7500  98.0000   9.2500 Du        
     36 ****        84.7500  98.0000   9.5000 Du        
     37 ****        84.7500  98.0000   9.7500 Du        
     38 ****        84.7500  98.2500   9.0000 Du        
     39 ****        84.7500  98.2500   9.2500 Du        
     40 ****        84.7500  98.2500   9.5000 Du        
     41 ****        84.7500  98.2500   9.7500 Du        
     42 ****        84.7500  98.2500  10.0000 Du        
     43 ****        85.0000  96.7500   8.5000 Du        
     44 ****        85.0000  97.0000   8.5000 Du        
     45 ****        85.0000  97.0000   8.7500 Du        
     46 ****        85.0000  97.0000   9.0000 Du        
     47 ****        85.0000  97.0000  18.7500 Du        
     48 ****        85.0000  97.2500   8.5000 Du        
     49 ****        85.0000  97.2500   8.7500 Du        
     50 ****        85.0000  97.2500   9.0000 Du        
     51 ****        85.0000  97.2500   9.2500 Du        
     52 ****        85.0000  97.2500  18.5000 Du        
     53 ****        85.0000  97.5000   8.5000 Du        
     54 ****        85.0000  97.5000   8.7500 Du        
     55 ****        85.0000  97.5000   9.0000 Du        
     56 ****        85.0000  97.5000   9.2500 Du        
     57 ****        85.0000  97.5000   9.5000 Du        
     58 ****        85.0000  97.7500   8.7500 Du        
     59 ****        85.0000  97.7500   9.0000 Du        
     60 ****        85.0000  97.7500   9.2500 Du        
     61 ****        85.0000  97.7500   9.5000 Du        
     62 ****        85.0000  97.7500   9.7500 Du        
     63 ****        85.0000  98.0000   8.7500 Du        
     64 ****        85.0000  98.0000   9.0000 Du        
     65 ****        85.0000  98.0000   9.2500 Du        
     66 ****        85.0000  98.0000   9.5000 Du        
     67 ****        85.0000  98.0000   9.7500 Du        
     68 ****        85.0000  98.0000  10.0000 Du        
     69 ****        85.0000  98.2500   9.0000 Du        
     70 ****        85.0000  98.2500   9.2500 Du        
     71 ****        85.0000  98.2500   9.5000 Du        
     72 ****        85.0000  98.2500   9.7500 Du        
     73 ****        85.0000  98.2500  10.0000 Du        
     74 ****        85.2500  96.2500   7.7500 Du        
     75 ****        85.2500  96.2500   8.0000 Du        
     76 ****        85.2500  96.5000   7.7500 Du        
     77 ****        85.2500  96.5000   8.0000 Du        
     78 ****        85.2500  96.5000   8.2500 Du        
     79 ****        85.2500  96.5000   8.5000 Du        
     80 ****        85.2500  96.7500   7.7500 Du        
     81 ****        85.2500  96.7500   8.0000 Du        
     82 ****        85.2500  96.7500   8.2500 Du        
     83 ****        85.2500  96.7500   8.5000 Du        
     84 ****        85.2500  96.7500   8.7500 Du        
     85 ****        85.2500  96.7500   9.0000 Du        
     86 ****        85.2500  97.0000   8.0000 Du        
     87 ****        85.2500  97.0000   8.2500 Du        
     88 ****        85.2500  97.0000   8.5000 Du        
     89 ****        85.2500  97.0000   8.7500 Du        
     90 ****        85.2500  97.0000   9.0000 Du        
     91 ****        85.2500  97.0000   9.2500 Du        
     92 ****        85.2500  97.2500   8.2500 Du        
     93 ****        85.2500  97.2500   8.5000 Du        
     94 ****        85.2500  97.2500   8.7500 Du        
     95 ****        85.2500  97.2500   9.0000 Du        
     96 ****        85.2500  97.2500   9.2500 Du        
     97 ****        85.2500  97.2500   9.5000 Du        
     98 ****        85.2500  97.2500   9.7500 Du        
     99 ****        85.2500  97.2500  18.0000 Du        
    100 ****        85.2500  97.5000   8.5000 Du        
    101 ****        85.2500  97.5000   8.7500 Du        
    102 ****        85.2500  97.5000   9.0000 Du        
    103 ****        85.2500  97.5000   9.2500 Du        
    104 ****        85.2500  97.5000   9.5000 Du        
    105 ****        85.2500  97.5000   9.7500 Du        
    106 ****        85.2500  97.7500   8.7500 Du        
    107 ****        85.2500  97.7500   9.0000 Du        
    108 ****        85.2500  97.7500   9.2500 Du        
    109 ****        85.2500  97.7500   9.5000 Du        
    110 ****        85.2500  97.7500   9.7500 Du        
    111 ****        85.2500  97.7500  10.0000 Du        
    112 ****        85.2500  98.0000   9.2500 Du        
    113 ****        85.2500  98.0000   9.5000 Du        
    114 ****        85.2500  98.0000   9.7500 Du        
    115 ****        85.2500  98.0000  10.0000 Du        
    116 ****        85.2500  98.2500   9.5000 Du        
    117 ****        85.2500  98.2500   9.7500 Du        
    118 ****        85.5000  96.0000   5.0000 Du        
    119 ****        85.5000  96.2500   4.7500 Du        
    120 ****        85.5000  96.2500   5.0000 Du        
    121 ****        85.5000  96.2500   5.2500 Du        
    122 ****        85.5000  96.2500   5.5000 Du        
    123 ****        85.5000  96.2500   5.7500 Du        
    124 ****        85.5000  96.2500   6.0000 Du        
    125 ****        85.5000  96.2500   6.2500 Du        
    126 ****        85.5000  96.2500   6.5000 Du        
    127 ****        85.5000  96.2500   6.7500 Du        
    128 ****        85.5000  96.2500   7.0000 Du        
    129 ****        85.5000  96.2500   7.2500 Du        
    130 ****        85.5000  96.2500   7.5000 Du        
    131 ****        85.5000  96.2500   7.7500 Du        
    132 ****        85.5000  96.2500   8.0000 Du        
    133 ****        85.5000  96.2500   8.2500 Du        
    134 ****        85.5000  96.5000   6.5000 Du        
    135 ****        85.5000  96.5000   6.7500 Du        
    136 ****        85.5000  96.5000   7.0000 Du        
    137 ****        85.5000  96.5000   7.2500 Du        
    138 ****        85.5000  96.5000   7.5000 Du        
    139 ****        85.5000  96.5000   7.7500 Du        
    140 ****        85.5000  96.5000   8.0000 Du        
    141 ****        85.5000  96.5000   8.2500 Du        
    142 ****        85.5000  96.5000   8.5000 Du        
    143 ****        85.5000  96.5000   8.7500 Du        
    144 ****        85.5000  96.7500   5.7500 Du        
    145 ****        85.5000  96.7500   6.7500 Du        
    146 ****        85.5000  96.7500   7.0000 Du        
    147 ****        85.5000  96.7500   7.2500 Du        
    148 ****        85.5000  96.7500   7.5000 Du        
    149 ****        85.5000  96.7500   7.7500 Du        
    150 ****        85.5000  96.7500   8.0000 Du        
    151 ****        85.5000  96.7500   8.2500 Du        
    152 ****        85.5000  96.7500   8.5000 Du        
    153 ****        85.5000  96.7500   8.7500 Du        
    154 ****        85.5000  96.7500   9.0000 Du        
    155 ****        85.5000  96.7500   9.2500 Du        
    156 ****        85.5000  97.0000   7.2500 Du        
    157 ****        85.5000  97.0000   7.5000 Du        
    158 ****        85.5000  97.0000   7.7500 Du        
    159 ****        85.5000  97.0000   8.0000 Du        
    160 ****        85.5000  97.0000   8.2500 Du        
    161 ****        85.5000  97.0000   8.5000 Du        
    162 ****        85.5000  97.0000   8.7500 Du        
    163 ****        85.5000  97.0000   9.0000 Du        
    164 ****        85.5000  97.0000   9.2500 Du        
    165 ****        85.5000  97.0000  18.2500 Du        
    166 ****        85.5000  97.2500   7.5000 Du        
    167 ****        85.5000  97.2500   7.7500 Du        
    168 ****        85.5000  97.2500   8.0000 Du        
    169 ****        85.5000  97.2500   8.2500 Du        
    170 ****        85.5000  97.2500   8.5000 Du        
    171 ****        85.5000  97.2500   8.7500 Du        
    172 ****        85.5000  97.2500   9.0000 Du        
    173 ****        85.5000  97.2500   9.2500 Du        
    174 ****        85.5000  97.2500   9.5000 Du        
    175 ****        85.5000  97.2500   9.7500 Du        
    176 ****        85.5000  97.2500  17.7500 Du        
    177 ****        85.5000  97.2500  18.0000 Du        
    178 ****        85.5000  97.2500  18.2500 Du        
    179 ****        85.7500  95.7500   5.0000 Du        
    180 ****        85.7500  95.7500   5.2500 Du        
    181 ****        85.7500  95.7500   5.5000 Du        
    182 ****        85.7500  95.7500   5.7500 Du        
    183 ****        85.7500  96.0000   4.7500 Du        
    184 ****        85.7500  96.0000   5.0000 Du        
    185 ****        85.7500  96.0000   5.2500 Du        
    186 ****        85.7500  96.0000   5.5000 Du        
    187 ****        85.7500  96.0000   5.7500 Du        
    188 ****        85.7500  96.0000   6.0000 Du        
    189 ****        85.7500  96.0000   6.2500 Du        
    190 ****        85.7500  96.0000   6.5000 Du        
    191 ****        85.7500  96.0000   6.7500 Du        
    192 ****        85.7500  96.0000   7.0000 Du        
    193 ****        85.7500  96.0000   7.2500 Du        
    194 ****        85.7500  96.0000   7.5000 Du        
    195 ****        85.7500  96.2500   4.7500 Du        
    196 ****        85.7500  96.2500   5.0000 Du        
    197 ****        85.7500  96.2500   5.2500 Du        
    198 ****        85.7500  96.2500   5.5000 Du        
    199 ****        85.7500  96.2500   5.7500 Du        
    200 ****        85.7500  96.2500   6.0000 Du        
    201 ****        85.7500  96.2500   6.2500 Du        
    202 ****        85.7500  96.2500   6.5000 Du        
    203 ****        85.7500  96.2500   6.7500 Du        
    204 ****        85.7500  96.2500   7.0000 Du        
    205 ****        85.7500  96.2500   7.2500 Du        
    206 ****        85.7500  96.2500   7.5000 Du        
    207 ****        85.7500  96.2500   7.7500 Du        
    208 ****        85.7500  96.2500   8.0000 Du        
    209 ****        85.7500  96.2500   8.2500 Du        
    210 ****        85.7500  96.2500   8.5000 Du        
    211 ****        85.7500  96.5000   5.2500 Du        
    212 ****        85.7500  96.5000   5.5000 Du        
    213 ****        85.7500  96.5000   5.7500 Du        
    214 ****        85.7500  96.5000   6.0000 Du        
    215 ****        85.7500  96.5000   6.2500 Du        
    216 ****        85.7500  96.5000   6.5000 Du        
    217 ****        85.7500  96.5000   6.7500 Du        
    218 ****        85.7500  96.5000   7.0000 Du        
    219 ****        85.7500  96.5000   7.2500 Du        
    220 ****        85.7500  96.5000   7.5000 Du        
    221 ****        85.7500  96.5000   7.7500 Du        
    222 ****        85.7500  96.5000   8.0000 Du        
    223 ****        85.7500  96.5000   8.2500 Du        
    224 ****        85.7500  96.5000   8.5000 Du        
    225 ****        85.7500  96.5000   8.7500 Du        
    226 ****        85.7500  96.5000   9.0000 Du        
    227 ****        85.7500  96.7500   5.2500 Du        
    228 ****        85.7500  96.7500   5.5000 Du        
    229 ****        85.7500  96.7500   5.7500 Du        
    230 ****        85.7500  96.7500   6.0000 Du        
    231 ****        85.7500  96.7500   6.2500 Du        
    232 ****        85.7500  96.7500   6.5000 Du        
    233 ****        85.7500  96.7500   6.7500 Du        
    234 ****        85.7500  96.7500   7.0000 Du        
    235 ****        85.7500  96.7500   7.2500 Du        
    236 ****        85.7500  96.7500   7.5000 Du        
    237 ****        85.7500  96.7500   7.7500 Du        
    238 ****        85.7500  96.7500   8.0000 Du        
    239 ****        85.7500  96.7500   8.2500 Du        
    240 ****        85.7500  96.7500   8.5000 Du        
    241 ****        85.7500  96.7500   8.7500 Du        
    242 ****        85.7500  96.7500   9.0000 Du        
    243 ****        85.7500  96.7500   9.2500 Du        
    244 ****        85.7500  97.0000   5.7500 Du        
    245 ****        85.7500  97.0000   6.0000 Du        
    246 ****        85.7500  97.0000   6.2500 Du        
    247 ****        85.7500  97.0000   6.5000 Du        
    248 ****        85.7500  97.0000   6.7500 Du        
    249 ****        85.7500  97.0000   7.0000 Du        
    250 ****        85.7500  97.0000   7.2500 Du        
    251 ****        85.7500  97.0000   7.5000 Du        
    252 ****        85.7500  97.0000   7.7500 Du        
    253 ****        85.7500  97.0000   8.0000 Du        
    254 ****        85.7500  97.0000   8.2500 Du        
    255 ****        85.7500  97.0000   8.5000 Du        
    256 ****        85.7500  97.0000   8.7500 Du        
    257 ****        85.7500  97.0000   9.0000 Du        
    258 ****        85.7500  97.0000   9.2500 Du        
    259 ****        85.7500  97.0000  18.2500 Du        
    260 ****        85.7500  97.2500   5.7500 Du        
    261 ****        85.7500  97.2500   6.0000 Du        
    262 ****        85.7500  97.2500   6.2500 Du        
    263 ****        85.7500  97.2500   6.5000 Du        
    264 ****        85.7500  97.2500   6.7500 Du        
    265 ****        85.7500  97.2500   7.0000 Du        
    266 ****        85.7500  97.2500   7.2500 Du        
    267 ****        85.7500  97.2500   7.5000 Du        
    268 ****        85.7500  97.2500   7.7500 Du        
    269 ****        85.7500  97.2500   8.0000 Du        
    270 ****        85.7500  97.2500  10.2500 Du        
    271 ****        85.7500  97.2500  17.7500 Du        
    272 ****        85.7500  97.2500  18.0000 Du        
    273 ****        85.7500  97.2500  18.2500 Du        
    274 ****        85.7500  97.7500  16.0000 Du        
    275 ****        85.7500  97.7500  16.2500 Du        
    276 ****        85.7500  99.0000  11.7500 Du        
    277 ****        85.7500  99.0000  13.2500 Du        
    278 ****        85.7500  99.0000  13.5000 Du        
    279 ****        86.0000  95.7500   4.7500 Du        
    280 ****        86.0000  95.7500   5.0000 Du        
    281 ****        86.0000  95.7500   5.2500 Du        
    282 ****        86.0000  95.7500   5.5000 Du        
    283 ****        86.0000  95.7500   5.7500 Du        
    284 ****        86.0000  95.7500   6.0000 Du        
    285 ****        86.0000  96.0000   4.7500 Du        
    286 ****        86.0000  96.0000   5.0000 Du        
    287 ****        86.0000  96.0000   5.2500 Du        
    288 ****        86.0000  96.0000   5.5000 Du        
    289 ****        86.0000  96.0000   5.7500 Du        
    290 ****        86.0000  96.0000   6.0000 Du        
    291 ****        86.0000  96.0000   6.2500 Du        
    292 ****        86.0000  96.0000   6.5000 Du        
    293 ****        86.0000  96.0000   6.7500 Du        
    294 ****        86.0000  96.0000   7.0000 Du        
    295 ****        86.0000  96.0000   7.2500 Du        
    296 ****        86.0000  96.0000   7.5000 Du        
    297 ****        86.0000  96.0000   7.7500 Du        
    298 ****        86.0000  96.0000   8.0000 Du        
    299 ****        86.0000  96.2500   5.0000 Du        
    300 ****        86.0000  96.2500   5.2500 Du        
    301 ****        86.0000  96.2500   5.5000 Du        
    302 ****        86.0000  96.2500   5.7500 Du        
    303 ****        86.0000  96.2500   6.0000 Du        
    304 ****        86.0000  96.2500   6.2500 Du        
    305 ****        86.0000  96.2500   6.5000 Du        
    306 ****        86.0000  96.2500   6.7500 Du        
    307 ****        86.0000  96.2500   7.0000 Du        
    308 ****        86.0000  96.2500   7.2500 Du        
    309 ****        86.0000  96.2500   7.5000 Du        
    310 ****        86.0000  96.2500   7.7500 Du        
    311 ****        86.0000  96.2500   8.0000 Du        
    312 ****        86.0000  96.2500   8.2500 Du        
    313 ****        86.0000  96.2500   8.5000 Du        
    314 ****        86.0000  96.2500   8.7500 Du        
    315 ****        86.0000  96.2500   9.0000 Du        
    316 ****        86.0000  96.5000   6.0000 Du        
    317 ****        86.0000  96.5000   6.2500 Du        
    318 ****        86.0000  96.5000   6.5000 Du        
    319 ****        86.0000  96.5000   6.7500 Du        
    320 ****        86.0000  96.5000   7.0000 Du        
    321 ****        86.0000  96.5000   7.2500 Du        
    322 ****        86.0000  96.5000   7.5000 Du        
    323 ****        86.0000  96.5000   7.7500 Du        
    324 ****        86.0000  96.5000   8.0000 Du        
    325 ****        86.0000  96.5000   8.2500 Du        
    326 ****        86.0000  96.5000   8.5000 Du        
    327 ****        86.0000  96.5000   8.7500 Du        
    328 ****        86.0000  96.5000   9.0000 Du        
    329 ****        86.0000  96.5000   9.2500 Du        
    330 ****        86.0000  96.7500   6.0000 Du        
    331 ****        86.0000  96.7500   6.2500 Du        
    332 ****        86.0000  96.7500   6.5000 Du        
    333 ****        86.0000  96.7500   6.7500 Du        
    334 ****        86.0000  96.7500   7.0000 Du        
    335 ****        86.0000  96.7500   7.2500 Du        
    336 ****        86.0000  96.7500   7.5000 Du        
    337 ****        86.0000  96.7500   7.7500 Du        
    338 ****        86.0000  96.7500   8.0000 Du        
    339 ****        86.0000  96.7500   8.2500 Du        
    340 ****        86.0000  97.0000   6.2500 Du        
    341 ****        86.0000  97.0000   6.5000 Du        
    342 ****        86.0000  97.0000   6.7500 Du        
    343 ****        86.0000  97.0000   7.0000 Du        
    344 ****        86.0000  97.0000   7.2500 Du        
    345 ****        86.0000  97.0000   7.5000 Du        
    346 ****        86.0000  97.0000   7.7500 Du        
    347 ****        86.0000  97.0000  17.7500 Du        
    348 ****        86.0000  97.0000  18.0000 Du        
    349 ****        86.0000  97.0000  18.2500 Du        
    350 ****        86.0000  97.2500   6.2500 Du        
    351 ****        86.0000  97.2500   6.5000 Du        
    352 ****        86.0000  97.2500   6.7500 Du        
    353 ****        86.0000  97.2500   7.0000 Du        
    354 ****        86.0000  97.2500   7.2500 Du        
    355 ****        86.0000  97.2500  17.5000 Du        
    356 ****        86.0000  97.2500  17.7500 Du        
    357 ****        86.0000  97.2500  18.0000 Du        
    358 ****        86.0000  97.2500  18.2500 Du        
    359 ****        86.0000  97.5000  17.7500 Du        
    360 ****        86.0000  97.5000  18.0000 Du        
    361 ****        86.0000  97.7500  16.0000 Du        
    362 ****        86.0000  98.0000  15.2500 Du        
    363 ****        86.0000  98.2500  15.2500 Du        
    364 ****        86.0000  98.7500  11.7500 Du        
    365 ****        86.0000  98.7500  12.0000 Du        
    366 ****        86.0000  98.7500  12.7500 Du        
    367 ****        86.0000  98.7500  13.0000 Du        
    368 ****        86.0000  98.7500  13.2500 Du        
    369 ****        86.0000  98.7500  13.5000 Du        
    370 ****        86.0000  99.0000  12.0000 Du        
    371 ****        86.0000  99.0000  12.2500 Du        
    372 ****        86.0000  99.0000  12.5000 Du        
    373 ****        86.0000  99.0000  12.7500 Du        
    374 ****        86.0000  99.0000  13.0000 Du        
    375 ****        86.0000  99.0000  13.2500 Du        
    376 ****        86.0000  99.0000  13.5000 Du        
    377 ****        86.0000  99.2500  12.0000 Du        
    378 ****        86.0000  99.2500  12.2500 Du        
    379 ****        86.0000  99.2500  12.5000 Du        
    380 ****        86.0000  99.2500  12.7500 Du        
    381 ****        86.0000  99.2500  13.0000 Du        
    382 ****        86.0000  99.2500  13.2500 Du        
    383 ****        86.0000  99.2500  13.5000 Du        
    384 ****        86.0000  99.5000  12.5000 Du        
    385 ****        86.0000  99.5000  12.7500 Du        
    386 ****        86.0000  99.5000  13.0000 Du        
    387 ****        86.2500  96.0000   6.2500 Du        
    388 ****        86.2500  96.0000   6.5000 Du        
    389 ****        86.2500  96.0000   6.7500 Du        
    390 ****        86.2500  96.0000   7.7500 Du        
    391 ****        86.2500  96.0000   8.0000 Du        
    392 ****        86.2500  96.2500   6.2500 Du        
    393 ****        86.2500  96.2500   6.5000 Du        
    394 ****        86.2500  96.2500   6.7500 Du        
    395 ****        86.2500  96.2500   7.0000 Du        
    396 ****        86.2500  96.2500   7.2500 Du        
    397 ****        86.2500  96.2500   7.5000 Du        
    398 ****        86.2500  96.2500   7.7500 Du        
    399 ****        86.2500  96.2500   8.0000 Du        
    400 ****        86.2500  96.2500   8.2500 Du        
    401 ****        86.2500  96.2500   8.5000 Du        
    402 ****        86.2500  96.2500   8.7500 Du        
    403 ****        86.2500  96.2500   9.0000 Du        
    404 ****        86.2500  96.2500   9.2500 Du        
    405 ****        86.2500  96.2500   9.7500 Du        
    406 ****        86.2500  96.5000   6.5000 Du        
    407 ****        86.2500  96.5000   6.7500 Du        
    408 ****        86.2500  96.5000   7.0000 Du        
    409 ****        86.2500  96.5000   7.2500 Du        
    410 ****        86.2500  96.5000   7.5000 Du        
    411 ****        86.2500  96.5000   7.7500 Du        
    412 ****        86.2500  96.5000   8.0000 Du        
    413 ****        86.2500  96.5000   8.2500 Du        
    414 ****        86.2500  96.7500   6.5000 Du        
    415 ****        86.2500  96.7500   6.7500 Du        
    416 ****        86.2500  96.7500   7.0000 Du        
    417 ****        86.2500  96.7500   7.2500 Du        
    418 ****        86.2500  96.7500   7.5000 Du        
    419 ****        86.2500  96.7500  18.2500 Du        
    420 ****        86.2500  97.0000   6.7500 Du        
    421 ****        86.2500  97.0000   7.0000 Du        
    422 ****        86.2500  97.0000   7.2500 Du        
    423 ****        86.2500  97.0000  17.7500 Du        
    424 ****        86.2500  97.0000  18.0000 Du        
    425 ****        86.2500  97.0000  18.2500 Du        
    426 ****        86.2500  97.2500  17.5000 Du        
    427 ****        86.2500  97.2500  17.7500 Du        
    428 ****        86.2500  97.2500  18.0000 Du        
    429 ****        86.2500  97.2500  18.2500 Du        
    430 ****        86.2500  97.5000  17.7500 Du        
    431 ****        86.2500  97.5000  18.0000 Du        
    432 ****        86.2500  98.0000  15.2500 Du        
    433 ****        86.2500  98.2500  15.2500 Du        
    434 ****        86.2500  98.7500  12.2500 Du        
    435 ****        86.2500  98.7500  12.5000 Du        
    436 ****        86.2500  98.7500  12.7500 Du        
    437 ****        86.2500  98.7500  13.0000 Du        
    438 ****        86.2500  98.7500  13.2500 Du        
    439 ****        86.2500  98.7500  13.5000 Du        
    440 ****        86.2500  99.0000  12.2500 Du        
    441 ****        86.2500  99.0000  12.5000 Du        
    442 ****        86.2500  99.0000  12.7500 Du        
    443 ****        86.2500  99.0000  13.0000 Du        
    444 ****        86.2500  99.0000  13.2500 Du        
    445 ****        86.2500  99.0000  13.5000 Du        
    446 ****        86.2500  99.2500  12.2500 Du        
    447 ****        86.2500  99.2500  12.5000 Du        
    448 ****        86.2500  99.2500  12.7500 Du        
    449 ****        86.2500  99.2500  13.0000 Du        
    450 ****        86.2500  99.2500  13.2500 Du        
    451 ****        86.2500  99.2500  13.5000 Du        
    452 ****        86.5000  96.0000   7.7500 Du        
    453 ****        86.5000  96.0000   8.0000 Du        
    454 ****        86.5000  96.0000   8.2500 Du        
    455 ****        86.5000  96.0000   9.7500 Du        
    456 ****        86.5000  96.0000  10.0000 Du        
    457 ****        86.5000  96.2500   7.0000 Du        
    458 ****        86.5000  96.2500   7.2500 Du        
    459 ****        86.5000  96.2500   7.5000 Du        
    460 ****        86.5000  96.2500   7.7500 Du        
    461 ****        86.5000  96.2500   8.0000 Du        
    462 ****        86.5000  96.2500   8.2500 Du        
    463 ****        86.5000  96.2500  10.0000 Du        
    464 ****        86.5000  96.5000   7.2500 Du        
    465 ****        86.5000  96.7500  18.0000 Du        
    466 ****        86.5000  96.7500  18.2500 Du        
    467 ****        86.5000  96.7500  18.5000 Du        
    468 ****        86.5000  97.0000  17.7500 Du        
    469 ****        86.5000  97.0000  18.0000 Du        
    470 ****        86.5000  97.0000  18.2500 Du        
    471 ****        86.5000  97.0000  18.5000 Du        
    472 ****        86.5000  97.2500  17.0000 Du        
    473 ****        86.5000  97.2500  17.2500 Du        
    474 ****        86.5000  97.2500  17.5000 Du        
    475 ****        86.5000  97.2500  17.7500 Du        
    476 ****        86.5000  97.2500  18.0000 Du        
    477 ****        86.5000  97.2500  18.2500 Du        
    478 ****        86.5000  98.0000  15.2500 Du        
    479 ****        86.5000  98.0000  15.5000 Du        
    480 ****        86.5000  98.0000  15.7500 Du        
    481 ****        86.5000  98.0000  16.0000 Du        
    482 ****        86.5000  98.2500  15.2500 Du        
    483 ****        86.5000  98.2500  15.5000 Du        
    484 ****        86.5000  98.2500  15.7500 Du        
    485 ****        86.5000  98.5000  15.2500 Du        
    486 ****        86.5000  98.7500  13.5000 Du        
    487 ****        86.5000  98.7500  15.2500 Du        
    488 ****        86.5000  99.0000  12.5000 Du        
    489 ****        86.5000  99.0000  12.7500 Du        
    490 ****        86.5000  99.0000  13.0000 Du        
    491 ****        86.5000  99.0000  13.2500 Du        
    492 ****        86.5000  99.0000  13.5000 Du        
    493 ****        86.5000  99.2500  12.5000 Du        
    494 ****        86.5000  99.2500  12.7500 Du        
    495 ****        86.5000  99.2500  13.0000 Du        
    496 ****        86.5000  99.2500  13.2500 Du        
    497 ****        86.5000  99.2500  13.5000 Du        
    498 ****        86.7500  95.2500  19.2500 Du        
    499 ****        86.7500  95.7500   9.7500 Du        
    500 ****        86.7500  95.7500  10.0000 Du        
    501 ****        86.7500  95.7500  10.2500 Du        
    502 ****        86.7500  96.0000   7.7500 Du        
    503 ****        86.7500  96.0000   8.0000 Du        
    504 ****        86.7500  96.0000   9.7500 Du        
    505 ****        86.7500  96.0000  10.0000 Du        
    506 ****        86.7500  96.0000  10.2500 Du        
    507 ****        86.7500  96.0000  18.7500 Du        
    508 ****        86.7500  96.2500   7.5000 Du        
    509 ****        86.7500  96.2500  10.2500 Du        
    510 ****        86.7500  96.2500  18.5000 Du        
    511 ****        86.7500  96.2500  18.7500 Du        
    512 ****        86.7500  96.5000  18.2500 Du        
    513 ****        86.7500  96.5000  18.5000 Du        
    514 ****        86.7500  96.7500  18.0000 Du        
    515 ****        86.7500  96.7500  18.2500 Du        
    516 ****        86.7500  96.7500  18.5000 Du        
    517 ****        86.7500  97.0000  17.5000 Du        
    518 ****        86.7500  97.0000  17.7500 Du        
    519 ****        86.7500  97.0000  18.0000 Du        
    520 ****        86.7500  97.0000  18.2500 Du        
    521 ****        86.7500  97.0000  18.5000 Du        
    522 ****        86.7500  97.2500  17.2500 Du        
    523 ****        86.7500  97.2500  17.5000 Du        
    524 ****        86.7500  97.2500  17.7500 Du        
    525 ****        86.7500  97.2500  18.0000 Du        
    526 ****        86.7500  97.2500  18.2500 Du        
    527 ****        86.7500  97.5000  17.2500 Du        
    528 ****        86.7500  97.5000  17.7500 Du        
    529 ****        86.7500  97.5000  18.0000 Du        
    530 ****        86.7500  97.7500  15.2500 Du        
    531 ****        86.7500  97.7500  15.5000 Du        
    532 ****        86.7500  97.7500  15.7500 Du        
    533 ****        86.7500  97.7500  16.0000 Du        
    534 ****        86.7500  97.7500  16.2500 Du        
    535 ****        86.7500  97.7500  17.0000 Du        
    536 ****        86.7500  97.7500  17.2500 Du        
    537 ****        86.7500  97.7500  17.7500 Du        
    538 ****        86.7500  98.0000  15.2500 Du        
    539 ****        86.7500  98.0000  15.5000 Du        
    540 ****        86.7500  98.0000  15.7500 Du        
    541 ****        86.7500  98.0000  16.0000 Du        
    542 ****        86.7500  98.0000  16.2500 Du        
    543 ****        86.7500  98.2500  15.2500 Du        
    544 ****        86.7500  98.2500  15.5000 Du        
    545 ****        86.7500  98.2500  15.7500 Du        
    546 ****        86.7500  98.2500  16.0000 Du        
    547 ****        86.7500  98.2500  16.2500 Du        
    548 ****        86.7500  98.5000  15.2500 Du        
    549 ****        86.7500  98.5000  15.5000 Du        
    550 ****        86.7500  98.5000  15.7500 Du        
    551 ****        86.7500  98.7500  15.2500 Du        
    552 ****        86.7500  99.0000  15.2500 Du        
    553 ****        87.0000  94.7500  19.2500 Du        
    554 ****        87.0000  94.7500  19.5000 Du        
    555 ****        87.0000  95.0000  19.0000 Du        
    556 ****        87.0000  95.0000  19.2500 Du        
    557 ****        87.0000  95.0000  19.5000 Du        
    558 ****        87.0000  95.2500  10.0000 Du        
    559 ****        87.0000  95.2500  19.0000 Du        
    560 ****        87.0000  95.2500  19.2500 Du        
    561 ****        87.0000  95.5000   9.2500 Du        
    562 ****        87.0000  95.5000   9.5000 Du        
    563 ****        87.0000  95.5000   9.7500 Du        
    564 ****        87.0000  95.5000  10.0000 Du        
    565 ****        87.0000  95.5000  10.2500 Du        
    566 ****        87.0000  95.5000  18.7500 Du        
    567 ****        87.0000  95.5000  19.0000 Du        
    568 ****        87.0000  95.5000  19.2500 Du        
    569 ****        87.0000  95.7500   9.0000 Du        
    570 ****        87.0000  95.7500   9.2500 Du        
    571 ****        87.0000  95.7500   9.5000 Du        
    572 ****        87.0000  95.7500   9.7500 Du        
    573 ****        87.0000  95.7500  10.0000 Du        
    574 ****        87.0000  95.7500  10.2500 Du        
    575 ****        87.0000  95.7500  18.7500 Du        
    576 ****        87.0000  95.7500  19.0000 Du        
    577 ****        87.0000  96.0000   9.7500 Du        
    578 ****        87.0000  96.0000  10.0000 Du        
    579 ****        87.0000  96.0000  10.2500 Du        
    580 ****        87.0000  96.0000  18.5000 Du        
    581 ****        87.0000  96.0000  18.7500 Du        
    582 ****        87.0000  96.2500  18.2500 Du        
    583 ****        87.0000  96.2500  18.5000 Du        
    584 ****        87.0000  96.2500  18.7500 Du        
    585 ****        87.0000  96.5000  18.0000 Du        
    586 ****        87.0000  96.5000  18.2500 Du        
    587 ****        87.0000  96.5000  18.5000 Du        
    588 ****        87.0000  96.7500  17.7500 Du        
    589 ****        87.0000  96.7500  18.0000 Du        
    590 ****        87.0000  96.7500  18.2500 Du        
    591 ****        87.0000  96.7500  18.5000 Du        
    592 ****        87.0000  97.0000  17.5000 Du        
    593 ****        87.0000  97.0000  17.7500 Du        
    594 ****        87.0000  97.0000  18.0000 Du        
    595 ****        87.0000  97.0000  18.2500 Du        
    596 ****        87.0000  97.0000  18.5000 Du        
    597 ****        87.0000  97.2500  17.2500 Du        
    598 ****        87.0000  97.2500  17.5000 Du        
    599 ****        87.0000  97.2500  17.7500 Du        
    600 ****        87.0000  97.2500  18.0000 Du        
    601 ****        87.0000  97.2500  18.2500 Du        
    602 ****        87.0000  97.5000  17.0000 Du        
    603 ****        87.0000  97.5000  17.2500 Du        
    604 ****        87.0000  97.5000  17.5000 Du        
    605 ****        87.0000  97.5000  17.7500 Du        
    606 ****        87.0000  97.5000  18.0000 Du        
    607 ****        87.0000  97.7500  15.0000 Du        
    608 ****        87.0000  97.7500  15.2500 Du        
    609 ****        87.0000  97.7500  15.5000 Du        
    610 ****        87.0000  97.7500  15.7500 Du        
    611 ****        87.0000  97.7500  16.0000 Du        
    612 ****        87.0000  97.7500  16.2500 Du        
    613 ****        87.0000  97.7500  16.5000 Du        
    614 ****        87.0000  97.7500  16.7500 Du        
    615 ****        87.0000  97.7500  17.0000 Du        
    616 ****        87.0000  97.7500  17.2500 Du        
    617 ****        87.0000  97.7500  17.5000 Du        
    618 ****        87.0000  97.7500  17.7500 Du        
    619 ****        87.0000  97.7500  18.0000 Du        
    620 ****        87.0000  98.0000  14.7500 Du        
    621 ****        87.0000  98.0000  15.0000 Du        
    622 ****        87.0000  98.0000  15.2500 Du        
    623 ****        87.0000  98.0000  15.5000 Du        
    624 ****        87.0000  98.0000  15.7500 Du        
    625 ****        87.0000  98.0000  16.0000 Du        
    626 ****        87.0000  98.0000  16.2500 Du        
    627 ****        87.0000  98.0000  16.5000 Du        
    628 ****        87.0000  98.0000  16.7500 Du        
    629 ****        87.0000  98.0000  17.0000 Du        
    630 ****        87.0000  98.0000  17.2500 Du        
    631 ****        87.0000  98.0000  17.5000 Du        
    632 ****        87.0000  98.0000  17.7500 Du        
    633 ****        87.0000  98.0000  18.0000 Du        
    634 ****        87.0000  98.2500  14.5000 Du        
    635 ****        87.0000  98.2500  14.7500 Du        
    636 ****        87.0000  98.2500  15.0000 Du        
    637 ****        87.0000  98.2500  15.2500 Du        
    638 ****        87.0000  98.2500  15.5000 Du        
    639 ****        87.0000  98.2500  15.7500 Du        
    640 ****        87.0000  98.2500  16.0000 Du        
    641 ****        87.0000  98.2500  16.2500 Du        
    642 ****        87.0000  98.2500  16.5000 Du        
    643 ****        87.0000  98.2500  16.7500 Du        
    644 ****        87.0000  98.2500  17.0000 Du        
    645 ****        87.0000  98.5000  14.5000 Du        
    646 ****        87.0000  98.5000  14.7500 Du        
    647 ****        87.0000  98.5000  15.0000 Du        
    648 ****        87.0000  98.5000  15.2500 Du        
    649 ****        87.0000  98.5000  15.5000 Du        
    650 ****        87.0000  98.5000  15.7500 Du        
    651 ****        87.0000  98.5000  16.0000 Du        
    652 ****        87.0000  98.5000  16.2500 Du        
    653 ****        87.0000  98.7500  14.5000 Du        
    654 ****        87.0000  98.7500  14.7500 Du        
    655 ****        87.0000  98.7500  15.0000 Du        
    656 ****        87.0000  98.7500  15.2500 Du        
    657 ****        87.0000  98.7500  15.5000 Du        
    658 ****        87.0000  98.7500  15.7500 Du        
    659 ****        87.0000  98.7500  16.0000 Du        
    660 ****        87.0000  99.0000  14.5000 Du        
    661 ****        87.0000  99.0000  14.7500 Du        
    662 ****        87.0000  99.0000  15.0000 Du        
    663 ****        87.0000  99.0000  15.2500 Du        
    664 ****        87.0000  99.0000  15.5000 Du        
    665 ****        87.0000  99.0000  15.7500 Du        
    666 ****        87.0000  99.0000  16.0000 Du        
    667 ****        87.0000  99.2500  14.7500 Du        
    668 ****        87.0000  99.2500  15.0000 Du        
    669 ****        87.2500  94.7500  19.2500 Du        
    670 ****        87.2500  94.7500  19.5000 Du        
    671 ****        87.2500  95.0000  10.0000 Du        
    672 ****        87.2500  95.0000  10.2500 Du        
    673 ****        87.2500  95.0000  19.0000 Du        
    674 ****        87.2500  95.0000  19.2500 Du        
    675 ****        87.2500  95.0000  19.5000 Du        
    676 ****        87.2500  95.2500   9.2500 Du        
    677 ****        87.2500  95.2500   9.5000 Du        
    678 ****        87.2500  95.2500   9.7500 Du        
    679 ****        87.2500  95.2500  10.0000 Du        
    680 ****        87.2500  95.2500  10.2500 Du        
    681 ****        87.2500  95.2500  10.5000 Du        
    682 ****        87.2500  95.2500  18.7500 Du        
    683 ****        87.2500  95.2500  19.0000 Du        
    684 ****        87.2500  95.2500  19.2500 Du        
    685 ****        87.2500  95.2500  19.5000 Du        
    686 ****        87.2500  95.5000   8.7500 Du        
    687 ****        87.2500  95.5000   9.0000 Du        
    688 ****        87.2500  95.5000   9.2500 Du        
    689 ****        87.2500  95.5000   9.5000 Du        
    690 ****        87.2500  95.5000   9.7500 Du        
    691 ****        87.2500  95.5000  10.0000 Du        
    692 ****        87.2500  95.5000  10.2500 Du        
    693 ****        87.2500  95.5000  10.5000 Du        
    694 ****        87.2500  95.5000  18.7500 Du        
    695 ****        87.2500  95.5000  19.0000 Du        
    696 ****        87.2500  95.5000  19.2500 Du        
    697 ****        87.2500  95.7500   9.2500 Du        
    698 ****        87.2500  95.7500   9.5000 Du        
    699 ****        87.2500  95.7500   9.7500 Du        
    700 ****        87.2500  95.7500  10.0000 Du        
    701 ****        87.2500  95.7500  10.2500 Du        
    702 ****        87.2500  95.7500  10.5000 Du        
    703 ****        87.2500  95.7500  18.5000 Du        
    704 ****        87.2500  95.7500  18.7500 Du        
    705 ****        87.2500  95.7500  19.0000 Du        
    706 ****        87.2500  96.0000  10.2500 Du        
    707 ****        87.2500  96.0000  18.2500 Du        
    708 ****        87.2500  96.0000  18.5000 Du        
    709 ****        87.2500  96.0000  18.7500 Du        
    710 ****        87.2500  96.0000  19.0000 Du        
    711 ****        87.2500  96.2500  18.2500 Du        
    712 ****        87.2500  96.2500  18.5000 Du        
    713 ****        87.2500  96.2500  18.7500 Du        
    714 ****        87.2500  96.5000  18.0000 Du        
    715 ****        87.2500  96.5000  18.2500 Du        
    716 ****        87.2500  96.5000  18.5000 Du        
    717 ****        87.2500  96.7500  17.7500 Du        
    718 ****        87.2500  96.7500  18.0000 Du        
    719 ****        87.2500  96.7500  18.2500 Du        
    720 ****        87.2500  96.7500  18.5000 Du        
    721 ****        87.2500  97.0000  17.7500 Du        
    722 ****        87.2500  97.0000  18.0000 Du        
    723 ****        87.2500  97.0000  18.2500 Du        
    724 ****        87.2500  97.0000  18.5000 Du        
    725 ****        87.2500  97.2500  17.5000 Du        
    726 ****        87.2500  97.2500  17.7500 Du        
    727 ****        87.2500  97.2500  18.0000 Du        
    728 ****        87.2500  97.2500  18.2500 Du        
    729 ****        87.2500  97.5000  17.2500 Du        
    730 ****        87.2500  97.5000  17.5000 Du        
    731 ****        87.2500  97.5000  17.7500 Du        
    732 ****        87.2500  97.5000  18.0000 Du        
    733 ****        87.2500  97.7500  15.2500 Du        
    734 ****        87.2500  97.7500  15.5000 Du        
    735 ****        87.2500  97.7500  15.7500 Du        
    736 ****        87.2500  97.7500  16.0000 Du        
    737 ****        87.2500  97.7500  16.2500 Du        
    738 ****        87.2500  97.7500  16.5000 Du        
    739 ****        87.2500  97.7500  16.7500 Du        
    740 ****        87.2500  97.7500  17.0000 Du        
    741 ****        87.2500  97.7500  17.2500 Du        
    742 ****        87.2500  97.7500  17.5000 Du        
    743 ****        87.2500  97.7500  17.7500 Du        
    744 ****        87.2500  97.7500  18.0000 Du        
    745 ****        87.2500  98.0000  15.0000 Du        
    746 ****        87.2500  98.0000  15.2500 Du        
    747 ****        87.2500  98.0000  15.5000 Du        
    748 ****        87.2500  98.0000  15.7500 Du        
    749 ****        87.2500  98.0000  16.0000 Du        
    750 ****        87.2500  98.0000  16.2500 Du        
    751 ****        87.2500  98.0000  16.5000 Du        
    752 ****        87.2500  98.0000  16.7500 Du        
    753 ****        87.2500  98.0000  17.0000 Du        
    754 ****        87.2500  98.0000  17.2500 Du        
    755 ****        87.2500  98.0000  17.5000 Du        
    756 ****        87.2500  98.0000  17.7500 Du        
    757 ****        87.2500  98.0000  18.0000 Du        
    758 ****        87.2500  98.2500  14.7500 Du        
    759 ****        87.2500  98.2500  15.0000 Du        
    760 ****        87.2500  98.2500  15.2500 Du        
    761 ****        87.2500  98.2500  15.5000 Du        
    762 ****        87.2500  98.2500  15.7500 Du        
    763 ****        87.2500  98.2500  16.0000 Du        
    764 ****        87.2500  98.2500  16.2500 Du        
    765 ****        87.2500  98.2500  16.5000 Du        
    766 ****        87.2500  98.2500  16.7500 Du        
    767 ****        87.2500  98.2500  17.0000 Du        
    768 ****        87.2500  98.2500  17.2500 Du        
    769 ****        87.2500  98.5000  14.7500 Du        
    770 ****        87.2500  98.5000  15.0000 Du        
    771 ****        87.2500  98.5000  15.2500 Du        
    772 ****        87.2500  98.5000  15.5000 Du        
    773 ****        87.2500  98.5000  15.7500 Du        
    774 ****        87.2500  98.5000  16.0000 Du        
    775 ****        87.2500  98.5000  16.2500 Du        
    776 ****        87.2500  98.7500  14.7500 Du        
    777 ****        87.2500  98.7500  15.0000 Du        
    778 ****        87.2500  98.7500  15.2500 Du        
    779 ****        87.2500  98.7500  15.5000 Du        
    780 ****        87.2500  98.7500  15.7500 Du        
    781 ****        87.2500  98.7500  16.0000 Du        
    782 ****        87.2500  98.7500  16.2500 Du        
    783 ****        87.2500  99.0000  14.7500 Du        
    784 ****        87.2500  99.0000  15.0000 Du        
    785 ****        87.2500  99.0000  15.2500 Du        
    786 ****        87.2500  99.0000  15.5000 Du        
    787 ****        87.2500  99.0000  15.7500 Du        
    788 ****        87.2500  99.0000  16.0000 Du        
    789 ****        87.2500  99.2500  15.0000 Du        
    790 ****        87.2500  99.2500  15.2500 Du        
    791 ****        87.2500  99.2500  15.5000 Du        
    792 ****        87.5000  94.7500   9.7500 Du        
    793 ****        87.5000  94.7500  10.0000 Du        
    794 ****        87.5000  94.7500  10.2500 Du        
    795 ****        87.5000  94.7500  10.5000 Du        
    796 ****        87.5000  95.0000   9.2500 Du        
    797 ****        87.5000  95.0000   9.5000 Du        
    798 ****        87.5000  95.0000   9.7500 Du        
    799 ****        87.5000  95.0000  10.0000 Du        
    800 ****        87.5000  95.0000  10.2500 Du        
    801 ****        87.5000  95.0000  10.5000 Du        
    802 ****        87.5000  95.0000  19.0000 Du        
    803 ****        87.5000  95.0000  19.2500 Du        
    804 ****        87.5000  95.0000  19.5000 Du        
    805 ****        87.5000  95.2500   9.0000 Du        
    806 ****        87.5000  95.2500   9.2500 Du        
    807 ****        87.5000  95.2500   9.5000 Du        
    808 ****        87.5000  95.2500   9.7500 Du        
    809 ****        87.5000  95.2500  10.0000 Du        
    810 ****        87.5000  95.2500  10.2500 Du        
    811 ****        87.5000  95.2500  10.5000 Du        
    812 ****        87.5000  95.2500  18.7500 Du        
    813 ****        87.5000  95.2500  19.0000 Du        
    814 ****        87.5000  95.2500  19.2500 Du        
    815 ****        87.5000  95.2500  19.5000 Du        
    816 ****        87.5000  95.5000   8.7500 Du        
    817 ****        87.5000  95.5000   9.0000 Du        
    818 ****        87.5000  95.5000   9.2500 Du        
    819 ****        87.5000  95.5000   9.5000 Du        
    820 ****        87.5000  95.5000   9.7500 Du        
    821 ****        87.5000  95.5000  10.0000 Du        
    822 ****        87.5000  95.5000  10.2500 Du        
    823 ****        87.5000  95.5000  10.5000 Du        
    824 ****        87.5000  95.5000  18.7500 Du        
    825 ****        87.5000  95.5000  19.0000 Du        
    826 ****        87.5000  95.5000  19.2500 Du        
    827 ****        87.5000  95.7500   9.7500 Du        
    828 ****        87.5000  95.7500  10.0000 Du        
    829 ****        87.5000  95.7500  10.2500 Du        
    830 ****        87.5000  95.7500  10.5000 Du        
    831 ****        87.5000  95.7500  18.5000 Du        
    832 ****        87.5000  95.7500  18.7500 Du        
    833 ****        87.5000  95.7500  19.0000 Du        
    834 ****        87.5000  96.0000  18.5000 Du        
    835 ****        87.5000  96.0000  18.7500 Du        
    836 ****        87.5000  96.0000  19.0000 Du        
    837 ****        87.5000  96.2500  18.2500 Du        
    838 ****        87.5000  96.2500  18.5000 Du        
    839 ****        87.5000  96.2500  18.7500 Du        
    840 ****        87.5000  96.5000  18.2500 Du        
    841 ****        87.5000  96.5000  18.5000 Du        
    842 ****        87.5000  96.5000  18.7500 Du        
    843 ****        87.5000  96.7500  18.0000 Du        
    844 ****        87.5000  96.7500  18.2500 Du        
    845 ****        87.5000  96.7500  18.5000 Du        
    846 ****        87.5000  97.0000  17.7500 Du        
    847 ****        87.5000  97.0000  18.0000 Du        
    848 ****        87.5000  97.0000  18.2500 Du        
    849 ****        87.5000  97.0000  18.5000 Du        
    850 ****        87.5000  97.2500  17.5000 Du        
    851 ****        87.5000  97.2500  17.7500 Du        
    852 ****        87.5000  97.2500  18.0000 Du        
    853 ****        87.5000  97.2500  18.2500 Du        
    854 ****        87.5000  97.2500  18.5000 Du        
    855 ****        87.5000  97.5000  17.5000 Du        
    856 ****        87.5000  97.5000  17.7500 Du        
    857 ****        87.5000  97.5000  18.0000 Du        
    858 ****        87.5000  97.5000  18.2500 Du        
    859 ****        87.5000  97.7500  15.2500 Du        
    860 ****        87.5000  97.7500  15.5000 Du        
    861 ****        87.5000  97.7500  15.7500 Du        
    862 ****        87.5000  97.7500  16.0000 Du        
    863 ****        87.5000  97.7500  16.2500 Du        
    864 ****        87.5000  97.7500  16.5000 Du        
    865 ****        87.5000  97.7500  16.7500 Du        
    866 ****        87.5000  97.7500  17.0000 Du        
    867 ****        87.5000  97.7500  17.2500 Du        
    868 ****        87.5000  97.7500  17.5000 Du        
    869 ****        87.5000  97.7500  17.7500 Du        
    870 ****        87.5000  97.7500  18.0000 Du        
    871 ****        87.5000  97.7500  18.2500 Du        
    872 ****        87.5000  98.0000  15.2500 Du        
    873 ****        87.5000  98.0000  15.5000 Du        
    874 ****        87.5000  98.0000  15.7500 Du        
    875 ****        87.5000  98.0000  16.0000 Du        
    876 ****        87.5000  98.0000  16.2500 Du        
    877 ****        87.5000  98.0000  16.5000 Du        
    878 ****        87.5000  98.0000  16.7500 Du        
    879 ****        87.5000  98.0000  17.0000 Du        
    880 ****        87.5000  98.0000  17.2500 Du        
    881 ****        87.5000  98.0000  17.5000 Du        
    882 ****        87.5000  98.0000  17.7500 Du        
    883 ****        87.5000  98.0000  18.0000 Du        
    884 ****        87.5000  98.0000  18.2500 Du        
    885 ****        87.5000  98.2500  15.0000 Du        
    886 ****        87.5000  98.2500  15.2500 Du        
    887 ****        87.5000  98.2500  15.5000 Du        
    888 ****        87.5000  98.2500  15.7500 Du        
    889 ****        87.5000  98.2500  16.0000 Du        
    890 ****        87.5000  98.2500  16.2500 Du        
    891 ****        87.5000  98.2500  16.5000 Du        
    892 ****        87.5000  98.2500  16.7500 Du        
    893 ****        87.5000  98.2500  17.0000 Du        
    894 ****        87.5000  98.2500  17.2500 Du        
    895 ****        87.5000  98.2500  17.5000 Du        
    896 ****        87.5000  98.2500  17.7500 Du        
    897 ****        87.5000  98.2500  18.0000 Du        
    898 ****        87.5000  98.5000  15.2500 Du        
    899 ****        87.5000  98.5000  15.5000 Du        
    900 ****        87.5000  98.5000  15.7500 Du        
    901 ****        87.5000  98.5000  16.0000 Du        
    902 ****        87.5000  98.5000  16.2500 Du        
    903 ****        87.5000  98.5000  16.5000 Du        
    904 ****        87.5000  98.7500  15.0000 Du        
    905 ****        87.5000  98.7500  15.2500 Du        
    906 ****        87.5000  98.7500  15.5000 Du        
    907 ****        87.5000  98.7500  15.7500 Du        
    908 ****        87.5000  98.7500  16.0000 Du        
    909 ****        87.5000  98.7500  16.2500 Du        
    910 ****        87.5000  99.0000  15.0000 Du        
    911 ****        87.5000  99.0000  15.2500 Du        
    912 ****        87.5000  99.0000  15.5000 Du        
    913 ****        87.5000  99.0000  15.7500 Du        
    914 ****        87.5000  99.0000  16.0000 Du        
    915 ****        87.5000  99.0000  16.2500 Du        
    916 ****        87.5000  99.2500  15.0000 Du        
    917 ****        87.5000  99.2500  15.2500 Du        
    918 ****        87.5000  99.2500  15.5000 Du        
    919 ****        87.5000  99.2500  15.7500 Du        
    920 ****        87.5000  99.2500  16.0000 Du        
    921 ****        87.5000  99.2500  16.2500 Du        
    922 ****        87.7500  94.2500  10.0000 Du        
    923 ****        87.7500  94.2500  10.2500 Du        
    924 ****        87.7500  94.2500  10.5000 Du        
    925 ****        87.7500  94.5000   9.5000 Du        
    926 ****        87.7500  94.5000   9.7500 Du        
    927 ****        87.7500  94.5000  10.0000 Du        
    928 ****        87.7500  94.5000  10.2500 Du        
    929 ****        87.7500  94.5000  10.5000 Du        
    930 ****        87.7500  94.5000  10.7500 Du        
    931 ****        87.7500  94.7500   9.2500 Du        
    932 ****        87.7500  94.7500   9.5000 Du        
    933 ****        87.7500  94.7500   9.7500 Du        
    934 ****        87.7500  94.7500  10.0000 Du        
    935 ****        87.7500  94.7500  10.2500 Du        
    936 ****        87.7500  94.7500  10.5000 Du        
    937 ****        87.7500  94.7500  10.7500 Du        
    938 ****        87.7500  95.0000   9.0000 Du        
    939 ****        87.7500  95.0000   9.2500 Du        
    940 ****        87.7500  95.0000   9.5000 Du        
    941 ****        87.7500  95.0000   9.7500 Du        
    942 ****        87.7500  95.0000  10.0000 Du        
    943 ****        87.7500  95.0000  10.2500 Du        
    944 ****        87.7500  95.0000  10.5000 Du        
    945 ****        87.7500  95.0000  10.7500 Du        
    946 ****        87.7500  95.2500   8.7500 Du        
    947 ****        87.7500  95.2500   9.0000 Du        
    948 ****        87.7500  95.2500   9.2500 Du        
    949 ****        87.7500  95.2500   9.5000 Du        
    950 ****        87.7500  95.2500   9.7500 Du        
    951 ****        87.7500  95.2500  10.0000 Du        
    952 ****        87.7500  95.2500  10.2500 Du        
    953 ****        87.7500  95.2500  10.5000 Du        
    954 ****        87.7500  95.2500  10.7500 Du        
    955 ****        87.7500  95.2500  19.0000 Du        
    956 ****        87.7500  95.2500  19.2500 Du        
    957 ****        87.7500  95.5000   8.7500 Du        
    958 ****        87.7500  95.5000   9.0000 Du        
    959 ****        87.7500  95.5000   9.2500 Du        
    960 ****        87.7500  95.5000   9.5000 Du        
    961 ****        87.7500  95.5000   9.7500 Du        
    962 ****        87.7500  95.5000  10.0000 Du        
    963 ****        87.7500  95.5000  10.2500 Du        
    964 ****        87.7500  95.5000  10.5000 Du        
    965 ****        87.7500  95.5000  10.7500 Du        
    966 ****        87.7500  95.5000  18.7500 Du        
    967 ****        87.7500  95.5000  19.0000 Du        
    968 ****        87.7500  95.5000  19.2500 Du        
    969 ****        87.7500  95.7500  10.2500 Du        
    970 ****        87.7500  95.7500  10.5000 Du        
    971 ****        87.7500  95.7500  18.5000 Du        
    972 ****        87.7500  95.7500  18.7500 Du        
    973 ****        87.7500  95.7500  19.0000 Du        
    974 ****        87.7500  96.0000  18.5000 Du        
    975 ****        87.7500  96.0000  18.7500 Du        
    976 ****        87.7500  96.0000  19.0000 Du        
    977 ****        87.7500  96.2500  18.2500 Du        
    978 ****        87.7500  96.2500  18.5000 Du        
    979 ****        87.7500  96.2500  18.7500 Du        
    980 ****        87.7500  96.5000  18.2500 Du        
    981 ****        87.7500  96.5000  18.5000 Du        
    982 ****        87.7500  96.5000  18.7500 Du        
    983 ****        87.7500  96.7500  18.0000 Du        
    984 ****        87.7500  96.7500  18.2500 Du        
    985 ****        87.7500  96.7500  18.5000 Du        
    986 ****        87.7500  96.7500  18.7500 Du        
    987 ****        87.7500  97.0000  17.7500 Du        
    988 ****        87.7500  97.0000  18.0000 Du        
    989 ****        87.7500  97.0000  18.2500 Du        
    990 ****        87.7500  97.0000  18.5000 Du        
    991 ****        87.7500  97.2500  17.5000 Du        
    992 ****        87.7500  97.2500  17.7500 Du        
    993 ****        87.7500  97.2500  18.0000 Du        
    994 ****        87.7500  97.2500  18.2500 Du        
    995 ****        87.7500  97.2500  18.5000 Du        
    996 ****        87.7500  97.5000  17.2500 Du        
    997 ****        87.7500  97.5000  17.5000 Du        
    998 ****        87.7500  97.5000  17.7500 Du        
    999 ****        87.7500  97.5000  18.0000 Du        
   1000 ****        87.7500  97.5000  18.2500 Du        
   1001 ****        87.7500  97.7500  15.7500 Du        
   1002 ****        87.7500  97.7500  16.0000 Du        
   1003 ****        87.7500  97.7500  16.2500 Du        
   1004 ****        87.7500  97.7500  16.5000 Du        
   1005 ****        87.7500  97.7500  16.7500 Du        
   1006 ****        87.7500  97.7500  17.0000 Du        
   1007 ****        87.7500  97.7500  17.2500 Du        
   1008 ****        87.7500  97.7500  17.5000 Du        
   1009 ****        87.7500  97.7500  17.7500 Du        
   1010 ****        87.7500  97.7500  18.0000 Du        
   1011 ****        87.7500  97.7500  18.2500 Du        
   1012 ****        87.7500  98.0000  15.2500 Du        
   1013 ****        87.7500  98.0000  15.5000 Du        
   1014 ****        87.7500  98.0000  15.7500 Du        
   1015 ****        87.7500  98.0000  16.0000 Du        
   1016 ****        87.7500  98.0000  16.2500 Du        
   1017 ****        87.7500  98.0000  16.5000 Du        
   1018 ****        87.7500  98.0000  16.7500 Du        
   1019 ****        87.7500  98.0000  17.0000 Du        
   1020 ****        87.7500  98.0000  17.2500 Du        
   1021 ****        87.7500  98.0000  17.5000 Du        
   1022 ****        87.7500  98.0000  17.7500 Du        
   1023 ****        87.7500  98.0000  18.0000 Du        
   1024 ****        87.7500  98.0000  18.2500 Du        
   1025 ****        87.7500  98.2500  15.2500 Du        
   1026 ****        87.7500  98.2500  15.5000 Du        
   1027 ****        87.7500  98.2500  15.7500 Du        
   1028 ****        87.7500  98.2500  16.0000 Du        
   1029 ****        87.7500  98.2500  16.2500 Du        
   1030 ****        87.7500  98.2500  16.5000 Du        
   1031 ****        87.7500  98.2500  16.7500 Du        
   1032 ****        87.7500  98.2500  17.0000 Du        
   1033 ****        87.7500  98.2500  17.2500 Du        
   1034 ****        87.7500  98.2500  17.5000 Du        
   1035 ****        87.7500  98.2500  17.7500 Du        
   1036 ****        87.7500  98.2500  18.0000 Du        
   1037 ****        87.7500  98.2500  18.2500 Du        
   1038 ****        87.7500  98.5000  15.5000 Du        
   1039 ****        87.7500  98.5000  15.7500 Du        
   1040 ****        87.7500  98.5000  16.0000 Du        
   1041 ****        87.7500  98.5000  16.2500 Du        
   1042 ****        87.7500  98.5000  16.5000 Du        
   1043 ****        87.7500  98.5000  16.7500 Du        
   1044 ****        87.7500  98.5000  17.0000 Du        
   1045 ****        87.7500  98.5000  17.2500 Du        
   1046 ****        87.7500  98.7500  15.2500 Du        
   1047 ****        87.7500  98.7500  15.5000 Du        
   1048 ****        87.7500  98.7500  15.7500 Du        
   1049 ****        87.7500  98.7500  16.0000 Du        
   1050 ****        87.7500  98.7500  16.2500 Du        
   1051 ****        87.7500  98.7500  16.5000 Du        
   1052 ****        87.7500  98.7500  16.7500 Du        
   1053 ****        87.7500  98.7500  17.0000 Du        
   1054 ****        87.7500  98.7500  17.2500 Du        
   1055 ****        87.7500  99.0000  15.2500 Du        
   1056 ****        87.7500  99.0000  15.5000 Du        
   1057 ****        87.7500  99.0000  15.7500 Du        
   1058 ****        87.7500  99.0000  16.0000 Du        
   1059 ****        87.7500  99.0000  16.2500 Du        
   1060 ****        87.7500  99.0000  16.5000 Du        
   1061 ****        87.7500  99.0000  16.7500 Du        
   1062 ****        87.7500  99.0000  17.0000 Du        
   1063 ****        87.7500  99.2500  15.2500 Du        
   1064 ****        87.7500  99.2500  15.5000 Du        
   1065 ****        87.7500  99.2500  15.7500 Du        
   1066 ****        87.7500  99.2500  16.0000 Du        
   1067 ****        87.7500  99.2500  16.2500 Du        
   1068 ****        87.7500  99.2500  16.5000 Du        
   1069 ****        88.0000  94.0000  10.0000 Du        
   1070 ****        88.0000  94.0000  10.2500 Du        
   1071 ****        88.0000  94.0000  10.5000 Du        
   1072 ****        88.0000  94.2500   9.5000 Du        
   1073 ****        88.0000  94.2500   9.7500 Du        
   1074 ****        88.0000  94.2500  10.0000 Du        
   1075 ****        88.0000  94.2500  10.2500 Du        
   1076 ****        88.0000  94.2500  10.5000 Du        
   1077 ****        88.0000  94.2500  10.7500 Du        
   1078 ****        88.0000  94.5000   9.2500 Du        
   1079 ****        88.0000  94.5000   9.5000 Du        
   1080 ****        88.0000  94.5000   9.7500 Du        
   1081 ****        88.0000  94.5000  10.0000 Du        
   1082 ****        88.0000  94.5000  10.2500 Du        
   1083 ****        88.0000  94.5000  10.5000 Du        
   1084 ****        88.0000  94.5000  10.7500 Du        
   1085 ****        88.0000  94.7500   9.0000 Du        
   1086 ****        88.0000  94.7500   9.2500 Du        
   1087 ****        88.0000  94.7500   9.5000 Du        
   1088 ****        88.0000  94.7500   9.7500 Du        
   1089 ****        88.0000  94.7500  10.0000 Du        
   1090 ****        88.0000  94.7500  10.2500 Du        
   1091 ****        88.0000  94.7500  10.5000 Du        
   1092 ****        88.0000  94.7500  10.7500 Du        
   1093 ****        88.0000  95.0000   8.7500 Du        
   1094 ****        88.0000  95.0000   9.0000 Du        
   1095 ****        88.0000  95.0000   9.2500 Du        
   1096 ****        88.0000  95.0000   9.5000 Du        
   1097 ****        88.0000  95.0000   9.7500 Du        
   1098 ****        88.0000  95.0000  10.0000 Du        
   1099 ****        88.0000  95.0000  10.2500 Du        
   1100 ****        88.0000  95.0000  10.5000 Du        
   1101 ****        88.0000  95.0000  10.7500 Du        
   1102 ****        88.0000  95.2500   8.5000 Du        
   1103 ****        88.0000  95.2500   8.7500 Du        
   1104 ****        88.0000  95.2500   9.0000 Du        
   1105 ****        88.0000  95.2500   9.2500 Du        
   1106 ****        88.0000  95.2500   9.5000 Du        
   1107 ****        88.0000  95.2500   9.7500 Du        
   1108 ****        88.0000  95.2500  10.0000 Du        
   1109 ****        88.0000  95.2500  10.2500 Du        
   1110 ****        88.0000  95.2500  10.5000 Du        
   1111 ****        88.0000  95.2500  10.7500 Du        
   1112 ****        88.0000  95.5000   9.0000 Du        
   1113 ****        88.0000  95.5000   9.2500 Du        
   1114 ****        88.0000  95.5000   9.5000 Du        
   1115 ****        88.0000  95.5000   9.7500 Du        
   1116 ****        88.0000  95.5000  10.0000 Du        
   1117 ****        88.0000  95.5000  10.2500 Du        
   1118 ****        88.0000  95.5000  10.5000 Du        
   1119 ****        88.0000  95.5000  10.7500 Du        
   1120 ****        88.0000  95.7500  18.7500 Du        
   1121 ****        88.0000  95.7500  19.0000 Du        
   1122 ****        88.0000  95.7500  19.2500 Du        
   1123 ****        88.0000  96.0000  18.5000 Du        
   1124 ****        88.0000  96.0000  18.7500 Du        
   1125 ****        88.0000  96.0000  19.0000 Du        
   1126 ****        88.0000  96.2500  18.5000 Du        
   1127 ****        88.0000  96.2500  18.7500 Du        
   1128 ****        88.0000  96.2500  19.0000 Du        
   1129 ****        88.0000  96.5000  18.2500 Du        
   1130 ****        88.0000  96.5000  18.5000 Du        
   1131 ****        88.0000  96.5000  18.7500 Du        
   1132 ****        88.0000  96.7500  18.0000 Du        
   1133 ****        88.0000  96.7500  18.2500 Du        
   1134 ****        88.0000  96.7500  18.5000 Du        
   1135 ****        88.0000  96.7500  18.7500 Du        
   1136 ****        88.0000  97.0000  18.0000 Du        
   1137 ****        88.0000  97.0000  18.2500 Du        
   1138 ****        88.0000  97.0000  18.5000 Du        
   1139 ****        88.0000  97.0000  18.7500 Du        
   1140 ****        88.0000  97.2500  17.7500 Du        
   1141 ****        88.0000  97.2500  18.0000 Du        
   1142 ****        88.0000  97.2500  18.2500 Du        
   1143 ****        88.0000  97.2500  18.5000 Du        
   1144 ****        88.0000  97.5000  17.2500 Du        
   1145 ****        88.0000  97.5000  17.5000 Du        
   1146 ****        88.0000  97.5000  17.7500 Du        
   1147 ****        88.0000  97.5000  18.0000 Du        
   1148 ****        88.0000  97.5000  18.2500 Du        
   1149 ****        88.0000  97.5000  18.5000 Du        
   1150 ****        88.0000  97.7500  16.2500 Du        
   1151 ****        88.0000  97.7500  16.5000 Du        
   1152 ****        88.0000  97.7500  16.7500 Du        
   1153 ****        88.0000  97.7500  17.0000 Du        
   1154 ****        88.0000  97.7500  17.2500 Du        
   1155 ****        88.0000  97.7500  17.5000 Du        
   1156 ****        88.0000  97.7500  17.7500 Du        
   1157 ****        88.0000  97.7500  18.0000 Du        
   1158 ****        88.0000  97.7500  18.2500 Du        
   1159 ****        88.0000  98.0000  15.5000 Du        
   1160 ****        88.0000  98.0000  15.7500 Du        
   1161 ****        88.0000  98.0000  16.0000 Du        
   1162 ****        88.0000  98.0000  16.2500 Du        
   1163 ****        88.0000  98.0000  16.5000 Du        
   1164 ****        88.0000  98.0000  16.7500 Du        
   1165 ****        88.0000  98.0000  17.0000 Du        
   1166 ****        88.0000  98.0000  17.2500 Du        
   1167 ****        88.0000  98.0000  17.5000 Du        
   1168 ****        88.0000  98.0000  17.7500 Du        
   1169 ****        88.0000  98.0000  18.0000 Du        
   1170 ****        88.0000  98.0000  18.2500 Du        
   1171 ****        88.0000  98.2500  15.5000 Du        
   1172 ****        88.0000  98.2500  15.7500 Du        
   1173 ****        88.0000  98.2500  16.0000 Du        
   1174 ****        88.0000  98.2500  16.2500 Du        
   1175 ****        88.0000  98.2500  16.5000 Du        
   1176 ****        88.0000  98.2500  16.7500 Du        
   1177 ****        88.0000  98.2500  17.0000 Du        
   1178 ****        88.0000  98.2500  17.2500 Du        
   1179 ****        88.0000  98.2500  17.5000 Du        
   1180 ****        88.0000  98.2500  17.7500 Du        
   1181 ****        88.0000  98.2500  18.0000 Du        
   1182 ****        88.0000  98.2500  18.2500 Du        
   1183 ****        88.0000  98.5000  15.5000 Du        
   1184 ****        88.0000  98.5000  15.7500 Du        
   1185 ****        88.0000  98.5000  16.0000 Du        
   1186 ****        88.0000  98.5000  16.2500 Du        
   1187 ****        88.0000  98.5000  16.5000 Du        
   1188 ****        88.0000  98.5000  16.7500 Du        
   1189 ****        88.0000  98.5000  17.0000 Du        
   1190 ****        88.0000  98.5000  17.2500 Du        
   1191 ****        88.0000  98.5000  17.5000 Du        
   1192 ****        88.0000  98.5000  17.7500 Du        
   1193 ****        88.0000  98.5000  18.0000 Du        
   1194 ****        88.0000  98.7500  15.5000 Du        
   1195 ****        88.0000  98.7500  15.7500 Du        
   1196 ****        88.0000  98.7500  16.0000 Du        
   1197 ****        88.0000  98.7500  16.2500 Du        
   1198 ****        88.0000  98.7500  16.5000 Du        
   1199 ****        88.0000  98.7500  16.7500 Du        
   1200 ****        88.0000  98.7500  17.0000 Du        
   1201 ****        88.0000  98.7500  17.2500 Du        
   1202 ****        88.0000  98.7500  17.5000 Du        
   1203 ****        88.0000  98.7500  17.7500 Du        
   1204 ****        88.0000  98.7500  18.0000 Du        
   1205 ****        88.0000  99.0000  15.5000 Du        
   1206 ****        88.0000  99.0000  15.7500 Du        
   1207 ****        88.0000  99.0000  16.0000 Du        
   1208 ****        88.0000  99.0000  16.2500 Du        
   1209 ****        88.0000  99.0000  16.5000 Du        
   1210 ****        88.0000  99.0000  16.7500 Du        
   1211 ****        88.0000  99.0000  17.0000 Du        
   1212 ****        88.0000  99.0000  17.2500 Du        
   1213 ****        88.0000  99.2500  15.5000 Du        
   1214 ****        88.0000  99.2500  15.7500 Du        
   1215 ****        88.0000  99.2500  16.0000 Du        
   1216 ****        88.0000  99.2500  16.2500 Du        
   1217 ****        88.0000  99.2500  16.5000 Du        
   1218 ****        88.0000  99.2500  16.7500 Du        
   1219 ****        88.0000  99.2500  17.0000 Du        
   1220 ****        88.0000  99.2500  17.2500 Du        
   1221 ****        88.0000  99.5000  15.7500 Du        
   1222 ****        88.0000  99.5000  16.0000 Du        
   1223 ****        88.0000  99.5000  16.2500 Du        
   1224 ****        88.0000  99.7500  16.0000 Du        
   1225 ****        88.0000  99.7500  16.2500 Du        
   1226 ****        88.2500  93.7500  10.2500 Du        
   1227 ****        88.2500  93.7500  10.5000 Du        
   1228 ****        88.2500  94.0000   9.2500 Du        
   1229 ****        88.2500  94.0000   9.5000 Du        
   1230 ****        88.2500  94.0000   9.7500 Du        
   1231 ****        88.2500  94.0000  10.0000 Du        
   1232 ****        88.2500  94.0000  10.2500 Du        
   1233 ****        88.2500  94.0000  10.5000 Du        
   1234 ****        88.2500  94.0000  10.7500 Du        
   1235 ****        88.2500  94.2500   9.0000 Du        
   1236 ****        88.2500  94.2500   9.2500 Du        
   1237 ****        88.2500  94.2500   9.5000 Du        
   1238 ****        88.2500  94.2500   9.7500 Du        
   1239 ****        88.2500  94.2500  10.0000 Du        
   1240 ****        88.2500  94.2500  10.2500 Du        
   1241 ****        88.2500  94.2500  10.5000 Du        
   1242 ****        88.2500  94.2500  10.7500 Du        
   1243 ****        88.2500  94.5000   8.7500 Du        
   1244 ****        88.2500  94.5000   9.0000 Du        
   1245 ****        88.2500  94.5000   9.2500 Du        
   1246 ****        88.2500  94.5000   9.5000 Du        
   1247 ****        88.2500  94.5000   9.7500 Du        
   1248 ****        88.2500  94.5000  10.0000 Du        
   1249 ****        88.2500  94.5000  10.2500 Du        
   1250 ****        88.2500  94.5000  10.5000 Du        
   1251 ****        88.2500  94.5000  10.7500 Du        
   1252 ****        88.2500  94.7500   8.7500 Du        
   1253 ****        88.2500  94.7500   9.0000 Du        
   1254 ****        88.2500  94.7500   9.2500 Du        
   1255 ****        88.2500  94.7500   9.5000 Du        
   1256 ****        88.2500  94.7500   9.7500 Du        
   1257 ****        88.2500  94.7500  10.0000 Du        
   1258 ****        88.2500  94.7500  10.2500 Du        
   1259 ****        88.2500  94.7500  10.5000 Du        
   1260 ****        88.2500  94.7500  10.7500 Du        
   1261 ****        88.2500  95.0000   8.5000 Du        
   1262 ****        88.2500  95.0000   8.7500 Du        
   1263 ****        88.2500  95.0000   9.0000 Du        
   1264 ****        88.2500  95.0000   9.2500 Du        
   1265 ****        88.2500  95.0000   9.5000 Du        
   1266 ****        88.2500  95.0000   9.7500 Du        
   1267 ****        88.2500  95.0000  10.0000 Du        
   1268 ****        88.2500  95.0000  10.2500 Du        
   1269 ****        88.2500  95.0000  10.5000 Du        
   1270 ****        88.2500  95.0000  10.7500 Du        
   1271 ****        88.2500  95.2500   8.7500 Du        
   1272 ****        88.2500  95.2500   9.0000 Du        
   1273 ****        88.2500  95.2500   9.2500 Du        
   1274 ****        88.2500  95.2500   9.5000 Du        
   1275 ****        88.2500  95.2500   9.7500 Du        
   1276 ****        88.2500  95.2500  10.0000 Du        
   1277 ****        88.2500  95.2500  10.2500 Du        
   1278 ****        88.2500  95.2500  10.5000 Du        
   1279 ****        88.2500  95.2500  10.7500 Du        
   1280 ****        88.2500  95.5000  10.0000 Du        
   1281 ****        88.2500  95.5000  10.2500 Du        
   1282 ****        88.2500  95.5000  10.5000 Du        
   1283 ****        88.2500  95.5000  10.7500 Du        
   1284 ****        88.2500  95.7500  19.0000 Du        
   1285 ****        88.2500  96.0000  18.7500 Du        
   1286 ****        88.2500  96.0000  19.0000 Du        
   1287 ****        88.2500  96.2500  18.5000 Du        
   1288 ****        88.2500  96.2500  18.7500 Du        
   1289 ****        88.2500  96.2500  19.0000 Du        
   1290 ****        88.2500  96.5000  18.2500 Du        
   1291 ****        88.2500  96.5000  18.5000 Du        
   1292 ****        88.2500  96.5000  18.7500 Du        
   1293 ****        88.2500  96.5000  19.0000 Du        
   1294 ****        88.2500  96.7500  18.2500 Du        
   1295 ****        88.2500  96.7500  18.5000 Du        
   1296 ****        88.2500  96.7500  18.7500 Du        
   1297 ****        88.2500  97.0000  18.0000 Du        
   1298 ****        88.2500  97.0000  18.2500 Du        
   1299 ****        88.2500  97.0000  18.5000 Du        
   1300 ****        88.2500  97.0000  18.7500 Du        
   1301 ****        88.2500  97.2500  17.7500 Du        
   1302 ****        88.2500  97.2500  18.0000 Du        
   1303 ****        88.2500  97.2500  18.2500 Du        
   1304 ****        88.2500  97.2500  18.5000 Du        
   1305 ****        88.2500  97.5000  17.5000 Du        
   1306 ****        88.2500  97.5000  17.7500 Du        
   1307 ****        88.2500  97.5000  18.0000 Du        
   1308 ****        88.2500  97.5000  18.2500 Du        
   1309 ****        88.2500  97.5000  18.5000 Du        
   1310 ****        88.2500  97.7500  16.7500 Du        
   1311 ****        88.2500  97.7500  17.0000 Du        
   1312 ****        88.2500  97.7500  17.2500 Du        
   1313 ****        88.2500  97.7500  17.5000 Du        
   1314 ****        88.2500  97.7500  17.7500 Du        
   1315 ****        88.2500  97.7500  18.0000 Du        
   1316 ****        88.2500  97.7500  18.2500 Du        
   1317 ****        88.2500  97.7500  18.5000 Du        
   1318 ****        88.2500  98.0000  15.7500 Du        
   1319 ****        88.2500  98.0000  16.0000 Du        
   1320 ****        88.2500  98.0000  16.2500 Du        
   1321 ****        88.2500  98.0000  16.5000 Du        
   1322 ****        88.2500  98.0000  16.7500 Du        
   1323 ****        88.2500  98.0000  17.0000 Du        
   1324 ****        88.2500  98.0000  17.2500 Du        
   1325 ****        88.2500  98.0000  17.5000 Du        
   1326 ****        88.2500  98.0000  17.7500 Du        
   1327 ****        88.2500  98.0000  18.0000 Du        
   1328 ****        88.2500  98.0000  18.2500 Du        
   1329 ****        88.2500  98.2500  15.7500 Du        
   1330 ****        88.2500  98.2500  16.0000 Du        
   1331 ****        88.2500  98.2500  16.2500 Du        
   1332 ****        88.2500  98.2500  16.5000 Du        
   1333 ****        88.2500  98.2500  16.7500 Du        
   1334 ****        88.2500  98.2500  17.0000 Du        
   1335 ****        88.2500  98.2500  17.2500 Du        
   1336 ****        88.2500  98.2500  17.5000 Du        
   1337 ****        88.2500  98.2500  17.7500 Du        
   1338 ****        88.2500  98.2500  18.0000 Du        
   1339 ****        88.2500  98.2500  18.2500 Du        
   1340 ****        88.2500  98.5000  15.7500 Du        
   1341 ****        88.2500  98.5000  16.0000 Du        
   1342 ****        88.2500  98.5000  16.2500 Du        
   1343 ****        88.2500  98.5000  16.5000 Du        
   1344 ****        88.2500  98.5000  16.7500 Du        
   1345 ****        88.2500  98.5000  17.0000 Du        
   1346 ****        88.2500  98.5000  17.2500 Du        
   1347 ****        88.2500  98.5000  17.5000 Du        
   1348 ****        88.2500  98.5000  17.7500 Du        
   1349 ****        88.2500  98.5000  18.0000 Du        
   1350 ****        88.2500  98.7500  15.7500 Du        
   1351 ****        88.2500  98.7500  16.0000 Du        
   1352 ****        88.2500  98.7500  16.2500 Du        
   1353 ****        88.2500  98.7500  16.5000 Du        
   1354 ****        88.2500  98.7500  16.7500 Du        
   1355 ****        88.2500  98.7500  17.0000 Du        
   1356 ****        88.2500  98.7500  17.2500 Du        
   1357 ****        88.2500  98.7500  17.5000 Du        
   1358 ****        88.2500  98.7500  17.7500 Du        
   1359 ****        88.2500  98.7500  18.0000 Du        
   1360 ****        88.2500  99.0000  15.7500 Du        
   1361 ****        88.2500  99.0000  16.0000 Du        
   1362 ****        88.2500  99.0000  16.2500 Du        
   1363 ****        88.2500  99.0000  16.5000 Du        
   1364 ****        88.2500  99.0000  16.7500 Du        
   1365 ****        88.2500  99.0000  17.0000 Du        
   1366 ****        88.2500  99.0000  17.2500 Du        
   1367 ****        88.2500  99.0000  17.5000 Du        
   1368 ****        88.2500  99.0000  17.7500 Du        
   1369 ****        88.2500  99.0000  18.0000 Du        
   1370 ****        88.2500  99.2500  15.7500 Du        
   1371 ****        88.2500  99.2500  16.0000 Du        
   1372 ****        88.2500  99.2500  16.2500 Du        
   1373 ****        88.2500  99.2500  16.5000 Du        
   1374 ****        88.2500  99.2500  16.7500 Du        
   1375 ****        88.2500  99.2500  17.0000 Du        
   1376 ****        88.2500  99.2500  17.2500 Du        
   1377 ****        88.2500  99.2500  17.7500 Du        
   1378 ****        88.2500  99.2500  18.0000 Du        
   1379 ****        88.2500  99.5000  15.7500 Du        
   1380 ****        88.2500  99.5000  16.0000 Du        
   1381 ****        88.2500  99.5000  16.2500 Du        
   1382 ****        88.2500  99.5000  16.5000 Du        
   1383 ****        88.2500  99.5000  16.7500 Du        
   1384 ****        88.2500  99.5000  17.0000 Du        
   1385 ****        88.2500  99.5000  17.2500 Du        
   1386 ****        88.2500  99.7500  16.0000 Du        
   1387 ****        88.2500  99.7500  16.2500 Du        
   1388 ****        88.2500  99.7500  16.5000 Du        
   1389 ****        88.2500  99.7500  16.7500 Du        
   1390 ****        88.2500  99.7500  17.0000 Du        
   1391 ****        88.2500  99.7500  17.2500 Du        
   1392 ****        88.2500 100.0000  16.0000 Du        
   1393 ****        88.5000  93.5000  10.0000 Du        
   1394 ****        88.5000  93.5000  10.2500 Du        
   1395 ****        88.5000  93.5000  10.5000 Du        
   1396 ****        88.5000  93.7500   9.2500 Du        
   1397 ****        88.5000  93.7500   9.5000 Du        
   1398 ****        88.5000  93.7500   9.7500 Du        
   1399 ****        88.5000  93.7500  10.0000 Du        
   1400 ****        88.5000  93.7500  10.2500 Du        
   1401 ****        88.5000  93.7500  10.5000 Du        
   1402 ****        88.5000  93.7500  10.7500 Du        
   1403 ****        88.5000  94.0000   9.0000 Du        
   1404 ****        88.5000  94.0000   9.2500 Du        
   1405 ****        88.5000  94.0000   9.5000 Du        
   1406 ****        88.5000  94.0000   9.7500 Du        
   1407 ****        88.5000  94.0000  10.0000 Du        
   1408 ****        88.5000  94.0000  10.2500 Du        
   1409 ****        88.5000  94.0000  10.5000 Du        
   1410 ****        88.5000  94.0000  10.7500 Du        
   1411 ****        88.5000  94.2500   8.7500 Du        
   1412 ****        88.5000  94.2500   9.0000 Du        
   1413 ****        88.5000  94.2500   9.2500 Du        
   1414 ****        88.5000  94.2500   9.5000 Du        
   1415 ****        88.5000  94.2500   9.7500 Du        
   1416 ****        88.5000  94.2500  10.0000 Du        
   1417 ****        88.5000  94.2500  10.2500 Du        
   1418 ****        88.5000  94.2500  10.5000 Du        
   1419 ****        88.5000  94.2500  10.7500 Du        
   1420 ****        88.5000  94.5000   8.5000 Du        
   1421 ****        88.5000  94.5000   8.7500 Du        
   1422 ****        88.5000  94.5000   9.0000 Du        
   1423 ****        88.5000  94.5000   9.2500 Du        
   1424 ****        88.5000  94.5000   9.5000 Du        
   1425 ****        88.5000  94.5000   9.7500 Du        
   1426 ****        88.5000  94.5000  10.0000 Du        
   1427 ****        88.5000  94.5000  10.2500 Du        
   1428 ****        88.5000  94.5000  10.5000 Du        
   1429 ****        88.5000  94.5000  10.7500 Du        
   1430 ****        88.5000  94.7500   8.5000 Du        
   1431 ****        88.5000  94.7500   8.7500 Du        
   1432 ****        88.5000  94.7500   9.0000 Du        
   1433 ****        88.5000  94.7500   9.2500 Du        
   1434 ****        88.5000  94.7500   9.5000 Du        
   1435 ****        88.5000  94.7500   9.7500 Du        
   1436 ****        88.5000  94.7500  10.0000 Du        
   1437 ****        88.5000  94.7500  10.2500 Du        
   1438 ****        88.5000  94.7500  10.5000 Du        
   1439 ****        88.5000  94.7500  10.7500 Du        
   1440 ****        88.5000  95.0000   8.5000 Du        
   1441 ****        88.5000  95.0000   8.7500 Du        
   1442 ****        88.5000  95.0000   9.0000 Du        
   1443 ****        88.5000  95.0000   9.2500 Du        
   1444 ****        88.5000  95.0000   9.5000 Du        
   1445 ****        88.5000  95.0000   9.7500 Du        
   1446 ****        88.5000  95.0000  10.0000 Du        
   1447 ****        88.5000  95.0000  10.2500 Du        
   1448 ****        88.5000  95.0000  10.5000 Du        
   1449 ****        88.5000  95.0000  10.7500 Du        
   1450 ****        88.5000  95.0000  11.0000 Du        
   1451 ****        88.5000  95.2500   9.0000 Du        
   1452 ****        88.5000  95.2500   9.2500 Du        
   1453 ****        88.5000  95.2500   9.5000 Du        
   1454 ****        88.5000  95.2500   9.7500 Du        
   1455 ****        88.5000  95.2500  10.0000 Du        
   1456 ****        88.5000  95.2500  10.2500 Du        
   1457 ****        88.5000  95.2500  10.5000 Du        
   1458 ****        88.5000  95.2500  10.7500 Du        
   1459 ****        88.5000  96.0000  19.0000 Du        
   1460 ****        88.5000  96.2500  18.5000 Du        
   1461 ****        88.5000  96.2500  18.7500 Du        
   1462 ****        88.5000  96.2500  19.0000 Du        
   1463 ****        88.5000  96.5000  18.5000 Du        
   1464 ****        88.5000  96.5000  18.7500 Du        
   1465 ****        88.5000  96.5000  19.0000 Du        
   1466 ****        88.5000  96.7500  18.2500 Du        
   1467 ****        88.5000  96.7500  18.5000 Du        
   1468 ****        88.5000  96.7500  18.7500 Du        
   1469 ****        88.5000  97.0000  18.0000 Du        
   1470 ****        88.5000  97.0000  18.2500 Du        
   1471 ****        88.5000  97.0000  18.5000 Du        
   1472 ****        88.5000  97.0000  18.7500 Du        
   1473 ****        88.5000  97.2500  17.7500 Du        
   1474 ****        88.5000  97.2500  18.0000 Du        
   1475 ****        88.5000  97.2500  18.2500 Du        
   1476 ****        88.5000  97.2500  18.5000 Du        
   1477 ****        88.5000  97.2500  18.7500 Du        
   1478 ****        88.5000  97.5000  17.2500 Du        
   1479 ****        88.5000  97.5000  17.5000 Du        
   1480 ****        88.5000  97.5000  17.7500 Du        
   1481 ****        88.5000  97.5000  18.0000 Du        
   1482 ****        88.5000  97.5000  18.2500 Du        
   1483 ****        88.5000  97.5000  18.5000 Du        
   1484 ****        88.5000  97.7500  16.5000 Du        
   1485 ****        88.5000  97.7500  16.7500 Du        
   1486 ****        88.5000  97.7500  17.0000 Du        
   1487 ****        88.5000  97.7500  17.2500 Du        
   1488 ****        88.5000  97.7500  17.5000 Du        
   1489 ****        88.5000  97.7500  17.7500 Du        
   1490 ****        88.5000  97.7500  18.0000 Du        
   1491 ****        88.5000  97.7500  18.2500 Du        
   1492 ****        88.5000  97.7500  18.5000 Du        
   1493 ****        88.5000  98.0000  16.0000 Du        
   1494 ****        88.5000  98.0000  16.2500 Du        
   1495 ****        88.5000  98.0000  16.5000 Du        
   1496 ****        88.5000  98.0000  16.7500 Du        
   1497 ****        88.5000  98.0000  17.0000 Du        
   1498 ****        88.5000  98.0000  17.2500 Du        
   1499 ****        88.5000  98.0000  17.5000 Du        
   1500 ****        88.5000  98.0000  17.7500 Du        
   1501 ****        88.5000  98.0000  18.0000 Du        
   1502 ****        88.5000  98.0000  18.2500 Du        
   1503 ****        88.5000  98.2500  16.0000 Du        
   1504 ****        88.5000  98.2500  16.2500 Du        
   1505 ****        88.5000  98.2500  16.5000 Du        
   1506 ****        88.5000  98.2500  16.7500 Du        
   1507 ****        88.5000  98.2500  17.0000 Du        
   1508 ****        88.5000  98.2500  17.2500 Du        
   1509 ****        88.5000  98.2500  17.5000 Du        
   1510 ****        88.5000  98.2500  17.7500 Du        
   1511 ****        88.5000  98.2500  18.0000 Du        
   1512 ****        88.5000  98.2500  18.2500 Du        
   1513 ****        88.5000  98.5000  16.0000 Du        
   1514 ****        88.5000  98.5000  16.2500 Du        
   1515 ****        88.5000  98.5000  16.5000 Du        
   1516 ****        88.5000  98.5000  16.7500 Du        
   1517 ****        88.5000  98.5000  17.0000 Du        
   1518 ****        88.5000  98.5000  17.2500 Du        
   1519 ****        88.5000  98.5000  17.5000 Du        
   1520 ****        88.5000  98.5000  17.7500 Du        
   1521 ****        88.5000  98.5000  18.0000 Du        
   1522 ****        88.5000  98.5000  18.2500 Du        
   1523 ****        88.5000  98.7500  16.0000 Du        
   1524 ****        88.5000  98.7500  16.2500 Du        
   1525 ****        88.5000  98.7500  16.5000 Du        
   1526 ****        88.5000  98.7500  16.7500 Du        
   1527 ****        88.5000  98.7500  17.0000 Du        
   1528 ****        88.5000  98.7500  17.2500 Du        
   1529 ****        88.5000  98.7500  17.5000 Du        
   1530 ****        88.5000  98.7500  17.7500 Du        
   1531 ****        88.5000  98.7500  18.0000 Du        
   1532 ****        88.5000  98.7500  18.2500 Du        
   1533 ****        88.5000  99.0000  16.0000 Du        
   1534 ****        88.5000  99.0000  16.2500 Du        
   1535 ****        88.5000  99.0000  16.5000 Du        
   1536 ****        88.5000  99.0000  16.7500 Du        
   1537 ****        88.5000  99.0000  17.0000 Du        
   1538 ****        88.5000  99.0000  17.2500 Du        
   1539 ****        88.5000  99.0000  17.5000 Du        
   1540 ****        88.5000  99.0000  17.7500 Du        
   1541 ****        88.5000  99.0000  18.0000 Du        
   1542 ****        88.5000  99.0000  18.2500 Du        
   1543 ****        88.5000  99.2500  16.0000 Du        
   1544 ****        88.5000  99.2500  16.2500 Du        
   1545 ****        88.5000  99.2500  16.5000 Du        
   1546 ****        88.5000  99.2500  16.7500 Du        
   1547 ****        88.5000  99.2500  17.0000 Du        
   1548 ****        88.5000  99.2500  17.2500 Du        
   1549 ****        88.5000  99.2500  17.5000 Du        
   1550 ****        88.5000  99.2500  17.7500 Du        
   1551 ****        88.5000  99.2500  18.0000 Du        
   1552 ****        88.5000  99.2500  18.2500 Du        
   1553 ****        88.5000  99.5000  16.2500 Du        
   1554 ****        88.5000  99.5000  16.5000 Du        
   1555 ****        88.5000  99.5000  16.7500 Du        
   1556 ****        88.5000  99.5000  17.0000 Du        
   1557 ****        88.5000  99.5000  17.2500 Du        
   1558 ****        88.5000  99.5000  17.5000 Du        
   1559 ****        88.5000  99.5000  17.7500 Du        
   1560 ****        88.5000  99.5000  18.0000 Du        
   1561 ****        88.5000  99.7500  16.0000 Du        
   1562 ****        88.5000  99.7500  16.2500 Du        
   1563 ****        88.5000  99.7500  16.5000 Du        
   1564 ****        88.5000  99.7500  16.7500 Du        
   1565 ****        88.5000  99.7500  17.0000 Du        
   1566 ****        88.5000  99.7500  17.2500 Du        
   1567 ****        88.5000  99.7500  17.5000 Du        
   1568 ****        88.5000  99.7500  17.7500 Du        
   1569 ****        88.5000 100.0000  16.0000 Du        
   1570 ****        88.5000 100.0000  16.2500 Du        
   1571 ****        88.5000 100.0000  16.5000 Du        
   1572 ****        88.5000 100.0000  16.7500 Du        
   1573 ****        88.5000 100.0000  17.0000 Du        
   1574 ****        88.5000 100.2500  16.2500 Du        
   1575 ****        88.5000 100.2500  16.5000 Du        
   1576 ****        88.5000 100.2500  16.7500 Du        
   1577 ****        88.5000 100.2500  17.0000 Du        
   1578 ****        88.7500  93.2500   9.2500 Du        
   1579 ****        88.7500  93.2500   9.5000 Du        
   1580 ****        88.7500  93.2500   9.7500 Du        
   1581 ****        88.7500  93.2500  10.0000 Du        
   1582 ****        88.7500  93.2500  10.2500 Du        
   1583 ****        88.7500  93.2500  10.5000 Du        
   1584 ****        88.7500  93.2500  10.7500 Du        
   1585 ****        88.7500  93.5000   9.2500 Du        
   1586 ****        88.7500  93.5000   9.5000 Du        
   1587 ****        88.7500  93.5000   9.7500 Du        
   1588 ****        88.7500  93.5000  10.0000 Du        
   1589 ****        88.7500  93.5000  10.2500 Du        
   1590 ****        88.7500  93.5000  10.5000 Du        
   1591 ****        88.7500  93.5000  10.7500 Du        
   1592 ****        88.7500  93.7500   9.0000 Du        
   1593 ****        88.7500  93.7500   9.2500 Du        
   1594 ****        88.7500  93.7500   9.5000 Du        
   1595 ****        88.7500  93.7500   9.7500 Du        
   1596 ****        88.7500  93.7500  10.0000 Du        
   1597 ****        88.7500  93.7500  10.2500 Du        
   1598 ****        88.7500  93.7500  10.5000 Du        
   1599 ****        88.7500  93.7500  10.7500 Du        
   1600 ****        88.7500  94.0000   8.7500 Du        
   1601 ****        88.7500  94.0000   9.0000 Du        
   1602 ****        88.7500  94.0000   9.2500 Du        
   1603 ****        88.7500  94.0000   9.5000 Du        
   1604 ****        88.7500  94.0000   9.7500 Du        
   1605 ****        88.7500  94.0000  10.0000 Du        
   1606 ****        88.7500  94.0000  10.2500 Du        
   1607 ****        88.7500  94.0000  10.5000 Du        
   1608 ****        88.7500  94.0000  10.7500 Du        
   1609 ****        88.7500  94.2500   8.5000 Du        
   1610 ****        88.7500  94.2500   8.7500 Du        
   1611 ****        88.7500  94.2500   9.0000 Du        
   1612 ****        88.7500  94.2500   9.2500 Du        
   1613 ****        88.7500  94.2500   9.5000 Du        
   1614 ****        88.7500  94.2500   9.7500 Du        
   1615 ****        88.7500  94.2500  10.0000 Du        
   1616 ****        88.7500  94.2500  10.2500 Du        
   1617 ****        88.7500  94.2500  10.5000 Du        
   1618 ****        88.7500  94.2500  10.7500 Du        
   1619 ****        88.7500  94.5000   8.2500 Du        
   1620 ****        88.7500  94.5000   8.5000 Du        
   1621 ****        88.7500  94.5000   8.7500 Du        
   1622 ****        88.7500  94.5000   9.0000 Du        
   1623 ****        88.7500  94.5000   9.2500 Du        
   1624 ****        88.7500  94.5000   9.5000 Du        
   1625 ****        88.7500  94.5000   9.7500 Du        
   1626 ****        88.7500  94.5000  10.0000 Du        
   1627 ****        88.7500  94.5000  10.2500 Du        
   1628 ****        88.7500  94.5000  10.5000 Du        
   1629 ****        88.7500  94.5000  10.7500 Du        
   1630 ****        88.7500  94.7500   8.5000 Du        
   1631 ****        88.7500  94.7500   8.7500 Du        
   1632 ****        88.7500  94.7500   9.0000 Du        
   1633 ****        88.7500  94.7500   9.2500 Du        
   1634 ****        88.7500  94.7500   9.5000 Du        
   1635 ****        88.7500  94.7500   9.7500 Du        
   1636 ****        88.7500  94.7500  10.0000 Du        
   1637 ****        88.7500  94.7500  10.2500 Du        
   1638 ****        88.7500  94.7500  10.5000 Du        
   1639 ****        88.7500  94.7500  10.7500 Du        
   1640 ****        88.7500  95.0000   8.7500 Du        
   1641 ****        88.7500  95.0000   9.0000 Du        
   1642 ****        88.7500  95.0000   9.2500 Du        
   1643 ****        88.7500  95.0000   9.5000 Du        
   1644 ****        88.7500  95.0000   9.7500 Du        
   1645 ****        88.7500  95.0000  10.0000 Du        
   1646 ****        88.7500  95.0000  10.2500 Du        
   1647 ****        88.7500  95.0000  10.5000 Du        
   1648 ****        88.7500  95.0000  10.7500 Du        
   1649 ****        88.7500  95.2500  10.5000 Du        
   1650 ****        88.7500  95.2500  10.7500 Du        
   1651 ****        88.7500  96.5000  18.7500 Du        
   1652 ****        88.7500  96.7500  18.5000 Du        
   1653 ****        88.7500  96.7500  18.7500 Du        
   1654 ****        88.7500  97.0000  18.2500 Du        
   1655 ****        88.7500  97.0000  18.5000 Du        
   1656 ****        88.7500  97.0000  18.7500 Du        
   1657 ****        88.7500  97.2500  17.7500 Du        
   1658 ****        88.7500  97.2500  18.0000 Du        
   1659 ****        88.7500  97.2500  18.2500 Du        
   1660 ****        88.7500  97.2500  18.5000 Du        
   1661 ****        88.7500  97.5000  17.5000 Du        
   1662 ****        88.7500  97.5000  17.7500 Du        
   1663 ****        88.7500  97.5000  18.0000 Du        
   1664 ****        88.7500  97.5000  18.2500 Du        
   1665 ****        88.7500  97.7500  16.7500 Du        
   1666 ****        88.7500  97.7500  17.0000 Du        
   1667 ****        88.7500  97.7500  17.2500 Du        
   1668 ****        88.7500  97.7500  17.5000 Du        
   1669 ****        88.7500  97.7500  17.7500 Du        
   1670 ****        88.7500  97.7500  18.0000 Du        
   1671 ****        88.7500  97.7500  18.2500 Du        
   1672 ****        88.7500  98.0000  16.2500 Du        
   1673 ****        88.7500  98.0000  16.5000 Du        
   1674 ****        88.7500  98.0000  16.7500 Du        
   1675 ****        88.7500  98.0000  17.0000 Du        
   1676 ****        88.7500  98.0000  17.2500 Du        
   1677 ****        88.7500  98.0000  17.5000 Du        
   1678 ****        88.7500  98.0000  17.7500 Du        
   1679 ****        88.7500  98.0000  18.0000 Du        
   1680 ****        88.7500  98.0000  18.2500 Du        
   1681 ****        88.7500  98.2500  16.0000 Du        
   1682 ****        88.7500  98.2500  16.2500 Du        
   1683 ****        88.7500  98.2500  16.5000 Du        
   1684 ****        88.7500  98.2500  16.7500 Du        
   1685 ****        88.7500  98.2500  17.0000 Du        
   1686 ****        88.7500  98.2500  17.2500 Du        
   1687 ****        88.7500  98.2500  17.5000 Du        
   1688 ****        88.7500  98.2500  17.7500 Du        
   1689 ****        88.7500  98.2500  18.0000 Du        
   1690 ****        88.7500  98.2500  18.2500 Du        
   1691 ****        88.7500  98.5000  16.2500 Du        
   1692 ****        88.7500  98.5000  16.5000 Du        
   1693 ****        88.7500  98.5000  16.7500 Du        
   1694 ****        88.7500  98.5000  17.0000 Du        
   1695 ****        88.7500  98.5000  17.2500 Du        
   1696 ****        88.7500  98.5000  17.5000 Du        
   1697 ****        88.7500  98.5000  17.7500 Du        
   1698 ****        88.7500  98.5000  18.0000 Du        
   1699 ****        88.7500  98.5000  18.2500 Du        
   1700 ****        88.7500  98.7500  16.2500 Du        
   1701 ****        88.7500  98.7500  16.5000 Du        
   1702 ****        88.7500  98.7500  16.7500 Du        
   1703 ****        88.7500  98.7500  17.0000 Du        
   1704 ****        88.7500  98.7500  17.2500 Du        
   1705 ****        88.7500  98.7500  17.5000 Du        
   1706 ****        88.7500  98.7500  17.7500 Du        
   1707 ****        88.7500  98.7500  18.0000 Du        
   1708 ****        88.7500  98.7500  18.2500 Du        
   1709 ****        88.7500  99.0000  16.2500 Du        
   1710 ****        88.7500  99.0000  16.5000 Du        
   1711 ****        88.7500  99.0000  16.7500 Du        
   1712 ****        88.7500  99.0000  17.0000 Du        
   1713 ****        88.7500  99.0000  17.2500 Du        
   1714 ****        88.7500  99.0000  17.5000 Du        
   1715 ****        88.7500  99.0000  17.7500 Du        
   1716 ****        88.7500  99.0000  18.0000 Du        
   1717 ****        88.7500  99.0000  18.2500 Du        
   1718 ****        88.7500  99.2500  16.2500 Du        
   1719 ****        88.7500  99.2500  16.5000 Du        
   1720 ****        88.7500  99.2500  16.7500 Du        
   1721 ****        88.7500  99.2500  17.0000 Du        
   1722 ****        88.7500  99.2500  17.2500 Du        
   1723 ****        88.7500  99.2500  17.5000 Du        
   1724 ****        88.7500  99.2500  17.7500 Du        
   1725 ****        88.7500  99.2500  18.0000 Du        
   1726 ****        88.7500  99.2500  18.2500 Du        
   1727 ****        88.7500  99.2500  18.5000 Du        
   1728 ****        88.7500  99.5000  16.2500 Du        
   1729 ****        88.7500  99.5000  16.5000 Du        
   1730 ****        88.7500  99.5000  16.7500 Du        
   1731 ****        88.7500  99.5000  17.0000 Du        
   1732 ****        88.7500  99.5000  17.2500 Du        
   1733 ****        88.7500  99.5000  17.5000 Du        
   1734 ****        88.7500  99.5000  17.7500 Du        
   1735 ****        88.7500  99.5000  18.0000 Du        
   1736 ****        88.7500  99.7500  16.2500 Du        
   1737 ****        88.7500  99.7500  16.5000 Du        
   1738 ****        88.7500  99.7500  16.7500 Du        
   1739 ****        88.7500  99.7500  17.0000 Du        
   1740 ****        88.7500  99.7500  17.2500 Du        
   1741 ****        88.7500  99.7500  17.5000 Du        
   1742 ****        88.7500  99.7500  17.7500 Du        
   1743 ****        88.7500  99.7500  18.0000 Du        
   1744 ****        88.7500 100.0000  16.0000 Du        
   1745 ****        88.7500 100.0000  16.2500 Du        
   1746 ****        88.7500 100.0000  16.5000 Du        
   1747 ****        88.7500 100.0000  16.7500 Du        
   1748 ****        88.7500 100.0000  17.0000 Du        
   1749 ****        88.7500 100.2500  16.0000 Du        
   1750 ****        88.7500 100.2500  16.2500 Du        
   1751 ****        88.7500 100.2500  16.5000 Du        
   1752 ****        88.7500 100.2500  16.7500 Du        
   1753 ****        88.7500 100.2500  17.0000 Du        
   1754 ****        89.0000  91.0000  10.2500 Du        
   1755 ****        89.0000  91.0000  10.5000 Du        
   1756 ****        89.0000  91.0000  10.7500 Du        
   1757 ****        89.0000  91.2500  10.5000 Du        
   1758 ****        89.0000  91.2500  10.7500 Du        
   1759 ****        89.0000  91.2500  11.0000 Du        
   1760 ****        89.0000  91.5000  10.5000 Du        
   1761 ****        89.0000  91.5000  10.7500 Du        
   1762 ****        89.0000  91.5000  11.0000 Du        
   1763 ****        89.0000  91.7500  10.7500 Du        
   1764 ****        89.0000  91.7500  11.0000 Du        
   1765 ****        89.0000  92.0000  10.5000 Du        
   1766 ****        89.0000  92.0000  10.7500 Du        
   1767 ****        89.0000  92.0000  11.0000 Du        
   1768 ****        89.0000  92.2500  10.2500 Du        
   1769 ****        89.0000  92.2500  10.5000 Du        
   1770 ****        89.0000  92.2500  10.7500 Du        
   1771 ****        89.0000  92.2500  11.0000 Du        
   1772 ****        89.0000  92.5000  10.0000 Du        
   1773 ****        89.0000  92.5000  10.2500 Du        
   1774 ****        89.0000  92.5000  10.5000 Du        
   1775 ****        89.0000  92.5000  10.7500 Du        
   1776 ****        89.0000  92.5000  11.0000 Du        
   1777 ****        89.0000  92.7500   9.2500 Du        
   1778 ****        89.0000  92.7500   9.5000 Du        
   1779 ****        89.0000  92.7500   9.7500 Du        
   1780 ****        89.0000  92.7500  10.0000 Du        
   1781 ****        89.0000  92.7500  10.2500 Du        
   1782 ****        89.0000  92.7500  10.5000 Du        
   1783 ****        89.0000  92.7500  10.7500 Du        
   1784 ****        89.0000  92.7500  11.0000 Du        
   1785 ****        89.0000  93.0000   9.0000 Du        
   1786 ****        89.0000  93.0000   9.2500 Du        
   1787 ****        89.0000  93.0000   9.5000 Du        
   1788 ****        89.0000  93.0000   9.7500 Du        
   1789 ****        89.0000  93.0000  10.0000 Du        
   1790 ****        89.0000  93.0000  10.2500 Du        
   1791 ****        89.0000  93.0000  10.5000 Du        
   1792 ****        89.0000  93.0000  10.7500 Du        
   1793 ****        89.0000  93.0000  11.0000 Du        
   1794 ****        89.0000  93.2500   8.7500 Du        
   1795 ****        89.0000  93.2500   9.0000 Du        
   1796 ****        89.0000  93.2500   9.2500 Du        
   1797 ****        89.0000  93.2500   9.5000 Du        
   1798 ****        89.0000  93.2500   9.7500 Du        
   1799 ****        89.0000  93.2500  10.0000 Du        
   1800 ****        89.0000  93.2500  10.2500 Du        
   1801 ****        89.0000  93.2500  10.5000 Du        
   1802 ****        89.0000  93.2500  10.7500 Du        
   1803 ****        89.0000  93.2500  11.0000 Du        
   1804 ****        89.0000  93.5000   8.7500 Du        
   1805 ****        89.0000  93.5000   9.0000 Du        
   1806 ****        89.0000  93.5000   9.2500 Du        
   1807 ****        89.0000  93.5000   9.5000 Du        
   1808 ****        89.0000  93.5000   9.7500 Du        
   1809 ****        89.0000  93.5000  10.0000 Du        
   1810 ****        89.0000  93.5000  10.2500 Du        
   1811 ****        89.0000  93.5000  10.5000 Du        
   1812 ****        89.0000  93.5000  10.7500 Du        
   1813 ****        89.0000  93.7500   8.7500 Du        
   1814 ****        89.0000  93.7500   9.0000 Du        
   1815 ****        89.0000  93.7500   9.2500 Du        
   1816 ****        89.0000  93.7500   9.5000 Du        
   1817 ****        89.0000  93.7500   9.7500 Du        
   1818 ****        89.0000  93.7500  10.0000 Du        
   1819 ****        89.0000  93.7500  10.2500 Du        
   1820 ****        89.0000  93.7500  10.5000 Du        
   1821 ****        89.0000  93.7500  10.7500 Du        
   1822 ****        89.0000  94.0000   8.5000 Du        
   1823 ****        89.0000  94.0000   8.7500 Du        
   1824 ****        89.0000  94.0000   9.0000 Du        
   1825 ****        89.0000  94.0000   9.2500 Du        
   1826 ****        89.0000  94.0000   9.5000 Du        
   1827 ****        89.0000  94.0000   9.7500 Du        
   1828 ****        89.0000  94.0000  10.0000 Du        
   1829 ****        89.0000  94.0000  10.2500 Du        
   1830 ****        89.0000  94.0000  10.5000 Du        
   1831 ****        89.0000  94.0000  10.7500 Du        
   1832 ****        89.0000  94.2500   8.5000 Du        
   1833 ****        89.0000  94.2500   8.7500 Du        
   1834 ****        89.0000  94.2500  10.2500 Du        
   1835 ****        89.0000  94.2500  10.5000 Du        
   1836 ****        89.0000  94.2500  10.7500 Du        
   1837 ****        89.0000  94.5000  10.5000 Du        
   1838 ****        89.0000  94.5000  10.7500 Du        
   1839 ****        89.0000  94.7500  10.7500 Du        
   1840 ****        89.0000  97.7500  16.7500 Du        
   1841 ****        89.0000  97.7500  17.0000 Du        
   1842 ****        89.0000  97.7500  17.2500 Du        
   1843 ****        89.0000  97.7500  17.5000 Du        
   1844 ****        89.0000  97.7500  17.7500 Du        
   1845 ****        89.0000  98.0000  16.2500 Du        
   1846 ****        89.0000  98.0000  16.5000 Du        
   1847 ****        89.0000  98.0000  16.7500 Du        
   1848 ****        89.0000  98.0000  17.0000 Du        
   1849 ****        89.0000  98.0000  17.2500 Du        
   1850 ****        89.0000  98.0000  17.5000 Du        
   1851 ****        89.0000  98.0000  17.7500 Du        
   1852 ****        89.0000  98.0000  18.0000 Du        
   1853 ****        89.0000  98.2500  16.2500 Du        
   1854 ****        89.0000  98.2500  16.5000 Du        
   1855 ****        89.0000  98.2500  16.7500 Du        
   1856 ****        89.0000  98.2500  17.0000 Du        
   1857 ****        89.0000  98.2500  17.2500 Du        
   1858 ****        89.0000  98.2500  17.5000 Du        
   1859 ****        89.0000  98.2500  17.7500 Du        
   1860 ****        89.0000  98.2500  18.0000 Du        
   1861 ****        89.0000  98.5000  16.5000 Du        
   1862 ****        89.0000  98.5000  16.7500 Du        
   1863 ****        89.0000  98.5000  17.0000 Du        
   1864 ****        89.0000  98.5000  17.2500 Du        
   1865 ****        89.0000  98.5000  17.5000 Du        
   1866 ****        89.0000  98.5000  17.7500 Du        
   1867 ****        89.0000  98.7500  16.5000 Du        
   1868 ****        89.0000  98.7500  16.7500 Du        
   1869 ****        89.0000  98.7500  17.0000 Du        
   1870 ****        89.0000  98.7500  17.2500 Du        
   1871 ****        89.0000  98.7500  17.5000 Du        
   1872 ****        89.0000  98.7500  17.7500 Du        
   1873 ****        89.0000  98.7500  18.0000 Du        
   1874 ****        89.0000  99.0000  16.5000 Du        
   1875 ****        89.0000  99.0000  16.7500 Du        
   1876 ****        89.0000  99.0000  17.0000 Du        
   1877 ****        89.0000  99.0000  17.2500 Du        
   1878 ****        89.0000  99.0000  17.5000 Du        
   1879 ****        89.0000  99.0000  17.7500 Du        
   1880 ****        89.0000  99.0000  18.0000 Du        
   1881 ****        89.0000  99.0000  18.2500 Du        
   1882 ****        89.0000  99.2500  16.2500 Du        
   1883 ****        89.0000  99.2500  16.5000 Du        
   1884 ****        89.0000  99.2500  16.7500 Du        
   1885 ****        89.0000  99.2500  17.0000 Du        
   1886 ****        89.0000  99.2500  17.2500 Du        
   1887 ****        89.0000  99.2500  17.5000 Du        
   1888 ****        89.0000  99.2500  17.7500 Du        
   1889 ****        89.0000  99.2500  18.0000 Du        
   1890 ****        89.0000  99.2500  18.2500 Du        
   1891 ****        89.0000  99.5000  16.5000 Du        
   1892 ****        89.0000  99.5000  16.7500 Du        
   1893 ****        89.0000  99.5000  17.0000 Du        
   1894 ****        89.0000  99.5000  17.2500 Du        
   1895 ****        89.0000  99.5000  17.5000 Du        
   1896 ****        89.0000  99.5000  17.7500 Du        
   1897 ****        89.0000  99.5000  18.0000 Du        
   1898 ****        89.0000  99.5000  18.2500 Du        
   1899 ****        89.0000  99.7500  16.2500 Du        
   1900 ****        89.0000  99.7500  16.5000 Du        
   1901 ****        89.0000  99.7500  16.7500 Du        
   1902 ****        89.0000  99.7500  17.0000 Du        
   1903 ****        89.0000  99.7500  17.2500 Du        
   1904 ****        89.0000  99.7500  17.5000 Du        
   1905 ****        89.0000  99.7500  17.7500 Du        
   1906 ****        89.0000  99.7500  18.0000 Du        
   1907 ****        89.0000  99.7500  18.2500 Du        
   1908 ****        89.0000 100.0000  16.2500 Du        
   1909 ****        89.0000 100.0000  16.5000 Du        
   1910 ****        89.0000 100.0000  16.7500 Du        
   1911 ****        89.0000 100.0000  17.0000 Du        
   1912 ****        89.0000 100.2500  16.2500 Du        
   1913 ****        89.0000 100.2500  16.5000 Du        
   1914 ****        89.0000 100.2500  16.7500 Du        
   1915 ****        89.0000 100.2500  17.0000 Du        
   1916 ****        89.2500  90.2500   9.7500 Du        
   1917 ****        89.2500  90.2500  10.0000 Du        
   1918 ****        89.2500  90.5000   9.5000 Du        
   1919 ****        89.2500  90.5000   9.7500 Du        
   1920 ****        89.2500  90.5000  10.0000 Du        
   1921 ****        89.2500  90.5000  10.2500 Du        
   1922 ****        89.2500  90.5000  10.5000 Du        
   1923 ****        89.2500  90.7500   9.5000 Du        
   1924 ****        89.2500  90.7500   9.7500 Du        
   1925 ****        89.2500  90.7500  10.0000 Du        
   1926 ****        89.2500  90.7500  10.2500 Du        
   1927 ****        89.2500  90.7500  10.5000 Du        
   1928 ****        89.2500  90.7500  10.7500 Du        
   1929 ****        89.2500  90.7500  11.0000 Du        
   1930 ****        89.2500  91.0000   9.5000 Du        
   1931 ****        89.2500  91.0000   9.7500 Du        
   1932 ****        89.2500  91.0000  10.0000 Du        
   1933 ****        89.2500  91.0000  10.2500 Du        
   1934 ****        89.2500  91.0000  10.5000 Du        
   1935 ****        89.2500  91.0000  10.7500 Du        
   1936 ****        89.2500  91.0000  11.0000 Du        
   1937 ****        89.2500  91.2500   9.2500 Du        
   1938 ****        89.2500  91.2500   9.5000 Du        
   1939 ****        89.2500  91.2500   9.7500 Du        
   1940 ****        89.2500  91.2500  10.0000 Du        
   1941 ****        89.2500  91.2500  10.2500 Du        
   1942 ****        89.2500  91.2500  10.5000 Du        
   1943 ****        89.2500  91.2500  10.7500 Du        
   1944 ****        89.2500  91.2500  11.0000 Du        
   1945 ****        89.2500  91.2500  11.2500 Du        
   1946 ****        89.2500  91.5000   9.2500 Du        
   1947 ****        89.2500  91.5000   9.5000 Du        
   1948 ****        89.2500  91.5000   9.7500 Du        
   1949 ****        89.2500  91.5000  10.0000 Du        
   1950 ****        89.2500  91.5000  10.2500 Du        
   1951 ****        89.2500  91.5000  10.5000 Du        
   1952 ****        89.2500  91.5000  10.7500 Du        
   1953 ****        89.2500  91.5000  11.0000 Du        
   1954 ****        89.2500  91.5000  11.2500 Du        
   1955 ****        89.2500  91.7500   9.2500 Du        
   1956 ****        89.2500  91.7500   9.5000 Du        
   1957 ****        89.2500  91.7500   9.7500 Du        
   1958 ****        89.2500  91.7500  10.0000 Du        
   1959 ****        89.2500  91.7500  10.2500 Du        
   1960 ****        89.2500  91.7500  10.5000 Du        
   1961 ****        89.2500  91.7500  10.7500 Du        
   1962 ****        89.2500  91.7500  11.0000 Du        
   1963 ****        89.2500  91.7500  11.2500 Du        
   1964 ****        89.2500  92.0000   9.0000 Du        
   1965 ****        89.2500  92.0000   9.2500 Du        
   1966 ****        89.2500  92.0000   9.5000 Du        
   1967 ****        89.2500  92.0000   9.7500 Du        
   1968 ****        89.2500  92.0000  10.0000 Du        
   1969 ****        89.2500  92.0000  10.2500 Du        
   1970 ****        89.2500  92.0000  10.5000 Du        
   1971 ****        89.2500  92.0000  10.7500 Du        
   1972 ****        89.2500  92.0000  11.0000 Du        
   1973 ****        89.2500  92.0000  11.2500 Du        
   1974 ****        89.2500  92.2500   9.0000 Du        
   1975 ****        89.2500  92.2500   9.2500 Du        
   1976 ****        89.2500  92.2500   9.5000 Du        
   1977 ****        89.2500  92.2500   9.7500 Du        
   1978 ****        89.2500  92.2500  10.0000 Du        
   1979 ****        89.2500  92.2500  10.2500 Du        
   1980 ****        89.2500  92.2500  10.5000 Du        
   1981 ****        89.2500  92.2500  10.7500 Du        
   1982 ****        89.2500  92.2500  11.0000 Du        
   1983 ****        89.2500  92.5000   8.7500 Du        
   1984 ****        89.2500  92.5000   9.0000 Du        
   1985 ****        89.2500  92.5000   9.2500 Du        
   1986 ****        89.2500  92.5000   9.5000 Du        
   1987 ****        89.2500  92.5000   9.7500 Du        
   1988 ****        89.2500  92.5000  10.0000 Du        
   1989 ****        89.2500  92.5000  10.2500 Du        
   1990 ****        89.2500  92.5000  10.5000 Du        
   1991 ****        89.2500  92.5000  10.7500 Du        
   1992 ****        89.2500  92.5000  11.0000 Du        
   1993 ****        89.2500  92.7500   8.7500 Du        
   1994 ****        89.2500  92.7500   9.0000 Du        
   1995 ****        89.2500  92.7500   9.2500 Du        
   1996 ****        89.2500  92.7500   9.5000 Du        
   1997 ****        89.2500  92.7500   9.7500 Du        
   1998 ****        89.2500  92.7500  10.0000 Du        
   1999 ****        89.2500  92.7500  10.2500 Du        
   2000 ****        89.2500  92.7500  10.5000 Du        
   2001 ****        89.2500  92.7500  10.7500 Du        
   2002 ****        89.2500  92.7500  11.0000 Du        
   2003 ****        89.2500  93.0000   8.7500 Du        
   2004 ****        89.2500  93.0000   9.0000 Du        
   2005 ****        89.2500  93.0000   9.2500 Du        
   2006 ****        89.2500  93.0000   9.5000 Du        
   2007 ****        89.2500  93.0000   9.7500 Du        
   2008 ****        89.2500  93.0000  10.0000 Du        
   2009 ****        89.2500  93.0000  10.2500 Du        
   2010 ****        89.2500  93.0000  10.5000 Du        
   2011 ****        89.2500  93.0000  10.7500 Du        
   2012 ****        89.2500  93.0000  11.0000 Du        
   2013 ****        89.2500  93.2500   8.5000 Du        
   2014 ****        89.2500  93.2500   8.7500 Du        
   2015 ****        89.2500  93.2500   9.0000 Du        
   2016 ****        89.2500  93.2500   9.2500 Du        
   2017 ****        89.2500  93.2500   9.5000 Du        
   2018 ****        89.2500  93.2500   9.7500 Du        
   2019 ****        89.2500  93.2500  10.0000 Du        
   2020 ****        89.2500  93.2500  10.2500 Du        
   2021 ****        89.2500  93.2500  10.5000 Du        
   2022 ****        89.2500  93.2500  10.7500 Du        
   2023 ****        89.2500  93.2500  11.0000 Du        
   2024 ****        89.2500  93.5000  10.0000 Du        
   2025 ****        89.2500  93.5000  10.2500 Du        
   2026 ****        89.2500  93.5000  10.5000 Du        
   2027 ****        89.2500  93.5000  10.7500 Du        
   2028 ****        89.2500  93.5000  11.0000 Du        
   2029 ****        89.2500  93.7500  10.5000 Du        
   2030 ****        89.2500  93.7500  10.7500 Du        
   2031 ****        89.2500  98.0000  16.7500 Du        
   2032 ****        89.2500  98.0000  17.0000 Du        
   2033 ****        89.2500  98.2500  16.5000 Du        
   2034 ****        89.2500  98.2500  16.7500 Du        
   2035 ****        89.2500  98.2500  17.0000 Du        
   2036 ****        89.2500  98.2500  17.2500 Du        
   2037 ****        89.2500  98.5000  16.7500 Du        
   2038 ****        89.2500  98.5000  17.0000 Du        
   2039 ****        89.2500  98.7500  16.7500 Du        
   2040 ****        89.2500  98.7500  17.0000 Du        
   2041 ****        89.2500  98.7500  17.2500 Du        
   2042 ****        89.2500  99.0000  16.7500 Du        
   2043 ****        89.2500  99.0000  17.0000 Du        
   2044 ****        89.2500  99.0000  17.2500 Du        
   2045 ****        89.2500  99.2500  16.7500 Du        
   2046 ****        89.2500  99.2500  17.0000 Du        
   2047 ****        89.2500  99.2500  17.2500 Du        
   2048 ****        89.2500  99.2500  17.5000 Du        
   2049 ****        89.2500  99.5000  16.7500 Du        
   2050 ****        89.2500  99.5000  17.0000 Du        
   2051 ****        89.2500  99.5000  17.2500 Du        
   2052 ****        89.2500  99.5000  17.5000 Du        
   2053 ****        89.2500  99.5000  17.7500 Du        
   2054 ****        89.2500  99.7500  16.5000 Du        
   2055 ****        89.2500  99.7500  16.7500 Du        
   2056 ****        89.2500  99.7500  17.0000 Du        
   2057 ****        89.2500  99.7500  17.2500 Du        
   2058 ****        89.2500  99.7500  17.5000 Du        
   2059 ****        89.2500  99.7500  17.7500 Du        
   2060 ****        89.2500  99.7500  18.0000 Du        
   2061 ****        89.2500 100.0000  16.5000 Du        
   2062 ****        89.2500 100.0000  16.7500 Du        
   2063 ****        89.2500 100.0000  17.0000 Du        
   2064 ****        89.2500 100.2500  16.2500 Du        
   2065 ****        89.2500 100.2500  16.5000 Du        
   2066 ****        89.2500 100.2500  16.7500 Du        
   2067 ****        89.2500 100.2500  17.0000 Du        
   2068 ****        89.5000  89.5000   9.7500 Du        
   2069 ****        89.5000  89.7500   9.5000 Du        
   2070 ****        89.5000  89.7500   9.7500 Du        
   2071 ****        89.5000  89.7500  10.0000 Du        
   2072 ****        89.5000  90.0000   9.2500 Du        
   2073 ****        89.5000  90.0000   9.5000 Du        
   2074 ****        89.5000  90.0000   9.7500 Du        
   2075 ****        89.5000  90.0000  10.0000 Du        
   2076 ****        89.5000  90.0000  10.2500 Du        
   2077 ****        89.5000  90.2500   9.2500 Du        
   2078 ****        89.5000  90.2500   9.5000 Du        
   2079 ****        89.5000  90.2500   9.7500 Du        
   2080 ****        89.5000  90.2500  10.0000 Du        
   2081 ****        89.5000  90.2500  10.2500 Du        
   2082 ****        89.5000  90.2500  10.5000 Du        
   2083 ****        89.5000  90.5000   9.2500 Du        
   2084 ****        89.5000  90.5000   9.5000 Du        
   2085 ****        89.5000  90.5000   9.7500 Du        
   2086 ****        89.5000  90.5000  10.0000 Du        
   2087 ****        89.5000  90.5000  10.2500 Du        
   2088 ****        89.5000  90.5000  10.5000 Du        
   2089 ****        89.5000  90.5000  10.7500 Du        
   2090 ****        89.5000  90.5000  11.0000 Du        
   2091 ****        89.5000  90.7500   9.0000 Du        
   2092 ****        89.5000  90.7500   9.2500 Du        
   2093 ****        89.5000  90.7500   9.5000 Du        
   2094 ****        89.5000  90.7500   9.7500 Du        
   2095 ****        89.5000  90.7500  10.0000 Du        
   2096 ****        89.5000  90.7500  10.2500 Du        
   2097 ****        89.5000  90.7500  10.5000 Du        
   2098 ****        89.5000  90.7500  10.7500 Du        
   2099 ****        89.5000  90.7500  11.0000 Du        
   2100 ****        89.5000  90.7500  11.2500 Du        
   2101 ****        89.5000  91.0000   8.7500 Du        
   2102 ****        89.5000  91.0000   9.0000 Du        
   2103 ****        89.5000  91.0000   9.2500 Du        
   2104 ****        89.5000  91.0000   9.5000 Du        
   2105 ****        89.5000  91.0000   9.7500 Du        
   2106 ****        89.5000  91.0000  10.0000 Du        
   2107 ****        89.5000  91.0000  10.2500 Du        
   2108 ****        89.5000  91.0000  10.5000 Du        
   2109 ****        89.5000  91.0000  10.7500 Du        
   2110 ****        89.5000  91.0000  11.0000 Du        
   2111 ****        89.5000  91.0000  11.2500 Du        
   2112 ****        89.5000  91.2500   8.7500 Du        
   2113 ****        89.5000  91.2500   9.0000 Du        
   2114 ****        89.5000  91.2500   9.2500 Du        
   2115 ****        89.5000  91.2500   9.5000 Du        
   2116 ****        89.5000  91.2500   9.7500 Du        
   2117 ****        89.5000  91.2500  10.0000 Du        
   2118 ****        89.5000  91.2500  10.2500 Du        
   2119 ****        89.5000  91.2500  10.5000 Du        
   2120 ****        89.5000  91.2500  10.7500 Du        
   2121 ****        89.5000  91.2500  11.0000 Du        
   2122 ****        89.5000  91.2500  11.2500 Du        
   2123 ****        89.5000  91.5000   8.7500 Du        
   2124 ****        89.5000  91.5000   9.0000 Du        
   2125 ****        89.5000  91.5000   9.2500 Du        
   2126 ****        89.5000  91.5000   9.5000 Du        
   2127 ****        89.5000  91.5000   9.7500 Du        
   2128 ****        89.5000  91.5000  10.0000 Du        
   2129 ****        89.5000  91.5000  10.2500 Du        
   2130 ****        89.5000  91.5000  10.5000 Du        
   2131 ****        89.5000  91.5000  10.7500 Du        
   2132 ****        89.5000  91.5000  11.0000 Du        
   2133 ****        89.5000  91.5000  11.2500 Du        
   2134 ****        89.5000  91.7500   8.5000 Du        
   2135 ****        89.5000  91.7500   8.7500 Du        
   2136 ****        89.5000  91.7500   9.0000 Du        
   2137 ****        89.5000  91.7500   9.2500 Du        
   2138 ****        89.5000  91.7500   9.5000 Du        
   2139 ****        89.5000  91.7500   9.7500 Du        
   2140 ****        89.5000  91.7500  10.0000 Du        
   2141 ****        89.5000  91.7500  10.2500 Du        
   2142 ****        89.5000  91.7500  10.5000 Du        
   2143 ****        89.5000  91.7500  10.7500 Du        
   2144 ****        89.5000  91.7500  11.0000 Du        
   2145 ****        89.5000  91.7500  11.2500 Du        
   2146 ****        89.5000  92.0000   8.5000 Du        
   2147 ****        89.5000  92.0000   8.7500 Du        
   2148 ****        89.5000  92.0000   9.0000 Du        
   2149 ****        89.5000  92.0000   9.2500 Du        
   2150 ****        89.5000  92.0000   9.5000 Du        
   2151 ****        89.5000  92.0000   9.7500 Du        
   2152 ****        89.5000  92.0000  10.0000 Du        
   2153 ****        89.5000  92.0000  10.2500 Du        
   2154 ****        89.5000  92.0000  10.5000 Du        
   2155 ****        89.5000  92.0000  10.7500 Du        
   2156 ****        89.5000  92.0000  11.0000 Du        
   2157 ****        89.5000  92.0000  11.2500 Du        
   2158 ****        89.5000  92.2500   8.5000 Du        
   2159 ****        89.5000  92.2500   8.7500 Du        
   2160 ****        89.5000  92.2500   9.0000 Du        
   2161 ****        89.5000  92.2500   9.2500 Du        
   2162 ****        89.5000  92.2500   9.5000 Du        
   2163 ****        89.5000  92.2500   9.7500 Du        
   2164 ****        89.5000  92.2500  10.0000 Du        
   2165 ****        89.5000  92.2500  10.2500 Du        
   2166 ****        89.5000  92.2500  10.5000 Du        
   2167 ****        89.5000  92.2500  10.7500 Du        
   2168 ****        89.5000  92.2500  11.0000 Du        
   2169 ****        89.5000  92.5000   8.5000 Du        
   2170 ****        89.5000  92.5000   8.7500 Du        
   2171 ****        89.5000  92.5000   9.0000 Du        
   2172 ****        89.5000  92.5000   9.2500 Du        
   2173 ****        89.5000  92.5000   9.5000 Du        
   2174 ****        89.5000  92.5000   9.7500 Du        
   2175 ****        89.5000  92.5000  10.0000 Du        
   2176 ****        89.5000  92.5000  10.2500 Du        
   2177 ****        89.5000  92.5000  10.5000 Du        
   2178 ****        89.5000  92.5000  10.7500 Du        
   2179 ****        89.5000  92.5000  11.0000 Du        
   2180 ****        89.5000  92.7500   8.5000 Du        
   2181 ****        89.5000  92.7500   8.7500 Du        
   2182 ****        89.5000  92.7500   9.0000 Du        
   2183 ****        89.5000  92.7500   9.2500 Du        
   2184 ****        89.5000  92.7500   9.5000 Du        
   2185 ****        89.5000  92.7500   9.7500 Du        
   2186 ****        89.5000  92.7500  10.0000 Du        
   2187 ****        89.5000  92.7500  10.2500 Du        
   2188 ****        89.5000  92.7500  10.5000 Du        
   2189 ****        89.5000  92.7500  10.7500 Du        
   2190 ****        89.5000  92.7500  11.0000 Du        
   2191 ****        89.5000  93.0000   8.5000 Du        
   2192 ****        89.5000  93.0000   8.7500 Du        
   2193 ****        89.5000  93.0000   9.0000 Du        
   2194 ****        89.5000  93.0000   9.2500 Du        
   2195 ****        89.5000  93.0000   9.5000 Du        
   2196 ****        89.5000  93.0000   9.7500 Du        
   2197 ****        89.5000  93.0000  10.0000 Du        
   2198 ****        89.5000  93.0000  10.2500 Du        
   2199 ****        89.5000  93.0000  10.5000 Du        
   2200 ****        89.5000  93.0000  10.7500 Du        
   2201 ****        89.5000  93.0000  11.0000 Du        
   2202 ****        89.5000  93.2500  10.5000 Du        
   2203 ****        89.5000  93.2500  10.7500 Du        
   2204 ****        89.5000  93.2500  11.0000 Du        
   2205 ****        89.7500  87.0000   9.2500 Du        
   2206 ****        89.7500  87.0000   9.5000 Du        
   2207 ****        89.7500  87.0000   9.7500 Du        
   2208 ****        89.7500  87.0000  10.0000 Du        
   2209 ****        89.7500  87.2500   9.2500 Du        
   2210 ****        89.7500  87.2500   9.5000 Du        
   2211 ****        89.7500  87.2500   9.7500 Du        
   2212 ****        89.7500  87.2500  10.0000 Du        
   2213 ****        89.7500  87.5000   9.2500 Du        
   2214 ****        89.7500  87.5000   9.5000 Du        
   2215 ****        89.7500  87.5000   9.7500 Du        
   2216 ****        89.7500  87.5000  10.0000 Du        
   2217 ****        89.7500  87.7500   9.2500 Du        
   2218 ****        89.7500  87.7500   9.5000 Du        
   2219 ****        89.7500  87.7500   9.7500 Du        
   2220 ****        89.7500  88.0000   9.2500 Du        
   2221 ****        89.7500  88.0000   9.5000 Du        
   2222 ****        89.7500  88.0000   9.7500 Du        
   2223 ****        89.7500  88.2500   9.5000 Du        
   2224 ****        89.7500  88.2500   9.7500 Du        
   2225 ****        89.7500  88.5000   9.5000 Du        
   2226 ****        89.7500  88.5000   9.7500 Du        
   2227 ****        89.7500  88.7500   9.2500 Du        
   2228 ****        89.7500  88.7500   9.5000 Du        
   2229 ****        89.7500  88.7500   9.7500 Du        
   2230 ****        89.7500  89.0000   9.2500 Du        
   2231 ****        89.7500  89.0000   9.5000 Du        
   2232 ****        89.7500  89.0000   9.7500 Du        
   2233 ****        89.7500  89.2500   9.0000 Du        
   2234 ****        89.7500  89.2500   9.2500 Du        
   2235 ****        89.7500  89.2500   9.5000 Du        
   2236 ****        89.7500  89.2500   9.7500 Du        
   2237 ****        89.7500  89.2500  10.0000 Du        
   2238 ****        89.7500  89.5000   9.0000 Du        
   2239 ****        89.7500  89.5000   9.2500 Du        
   2240 ****        89.7500  89.5000   9.5000 Du        
   2241 ****        89.7500  89.5000   9.7500 Du        
   2242 ****        89.7500  89.5000  10.0000 Du        
   2243 ****        89.7500  89.5000  10.2500 Du        
   2244 ****        89.7500  89.7500   8.7500 Du        
   2245 ****        89.7500  89.7500   9.0000 Du        
   2246 ****        89.7500  89.7500   9.2500 Du        
   2247 ****        89.7500  89.7500   9.5000 Du        
   2248 ****        89.7500  89.7500   9.7500 Du        
   2249 ****        89.7500  89.7500  10.0000 Du        
   2250 ****        89.7500  89.7500  10.2500 Du        
   2251 ****        89.7500  89.7500  10.5000 Du        
   2252 ****        89.7500  90.0000   8.7500 Du        
   2253 ****        89.7500  90.0000   9.0000 Du        
   2254 ****        89.7500  90.0000   9.2500 Du        
   2255 ****        89.7500  90.0000   9.5000 Du        
   2256 ****        89.7500  90.0000   9.7500 Du        
   2257 ****        89.7500  90.0000  10.0000 Du        
   2258 ****        89.7500  90.0000  10.2500 Du        
   2259 ****        89.7500  90.0000  10.5000 Du        
   2260 ****        89.7500  90.0000  10.7500 Du        
   2261 ****        89.7500  90.2500   8.7500 Du        
   2262 ****        89.7500  90.2500   9.0000 Du        
   2263 ****        89.7500  90.2500   9.2500 Du        
   2264 ****        89.7500  90.2500   9.5000 Du        
   2265 ****        89.7500  90.2500   9.7500 Du        
   2266 ****        89.7500  90.2500  10.0000 Du        
   2267 ****        89.7500  90.2500  10.2500 Du        
   2268 ****        89.7500  90.2500  10.5000 Du        
   2269 ****        89.7500  90.2500  10.7500 Du        
   2270 ****        89.7500  90.2500  11.0000 Du        
   2271 ****        89.7500  90.5000   8.5000 Du        
   2272 ****        89.7500  90.5000   8.7500 Du        
   2273 ****        89.7500  90.5000   9.0000 Du        
   2274 ****        89.7500  90.5000   9.2500 Du        
   2275 ****        89.7500  90.5000   9.5000 Du        
   2276 ****        89.7500  90.5000   9.7500 Du        
   2277 ****        89.7500  90.5000  10.0000 Du        
   2278 ****        89.7500  90.5000  10.2500 Du        
   2279 ****        89.7500  90.5000  10.5000 Du        
   2280 ****        89.7500  90.5000  10.7500 Du        
   2281 ****        89.7500  90.5000  11.0000 Du        
   2282 ****        89.7500  90.5000  11.2500 Du        
   2283 ****        89.7500  90.7500   8.5000 Du        
   2284 ****        89.7500  90.7500   8.7500 Du        
   2285 ****        89.7500  90.7500   9.0000 Du        
   2286 ****        89.7500  90.7500   9.2500 Du        
   2287 ****        89.7500  90.7500   9.5000 Du        
   2288 ****        89.7500  90.7500   9.7500 Du        
   2289 ****        89.7500  90.7500  10.0000 Du        
   2290 ****        89.7500  90.7500  10.2500 Du        
   2291 ****        89.7500  90.7500  10.5000 Du        
   2292 ****        89.7500  90.7500  10.7500 Du        
   2293 ****        89.7500  90.7500  11.0000 Du        
   2294 ****        89.7500  90.7500  11.2500 Du        
   2295 ****        89.7500  91.0000   8.5000 Du        
   2296 ****        89.7500  91.0000   8.7500 Du        
   2297 ****        89.7500  91.0000   9.0000 Du        
   2298 ****        89.7500  91.0000   9.2500 Du        
   2299 ****        89.7500  91.0000   9.5000 Du        
   2300 ****        89.7500  91.0000   9.7500 Du        
   2301 ****        89.7500  91.0000  10.0000 Du        
   2302 ****        89.7500  91.0000  10.2500 Du        
   2303 ****        89.7500  91.0000  10.5000 Du        
   2304 ****        89.7500  91.0000  10.7500 Du        
   2305 ****        89.7500  91.0000  11.0000 Du        
   2306 ****        89.7500  91.0000  11.2500 Du        
   2307 ****        89.7500  91.2500   8.2500 Du        
   2308 ****        89.7500  91.2500   8.5000 Du        
   2309 ****        89.7500  91.2500   8.7500 Du        
   2310 ****        89.7500  91.2500   9.0000 Du        
   2311 ****        89.7500  91.2500   9.2500 Du        
   2312 ****        89.7500  91.2500   9.5000 Du        
   2313 ****        89.7500  91.2500   9.7500 Du        
   2314 ****        89.7500  91.2500  10.0000 Du        
   2315 ****        89.7500  91.2500  10.2500 Du        
   2316 ****        89.7500  91.2500  10.5000 Du        
   2317 ****        89.7500  91.2500  10.7500 Du        
   2318 ****        89.7500  91.2500  11.0000 Du        
   2319 ****        89.7500  91.2500  11.2500 Du        
   2320 ****        89.7500  91.5000   8.2500 Du        
   2321 ****        89.7500  91.5000   8.5000 Du        
   2322 ****        89.7500  91.5000   8.7500 Du        
   2323 ****        89.7500  91.5000   9.0000 Du        
   2324 ****        89.7500  91.5000   9.2500 Du        
   2325 ****        89.7500  91.5000   9.5000 Du        
   2326 ****        89.7500  91.5000   9.7500 Du        
   2327 ****        89.7500  91.5000  10.0000 Du        
   2328 ****        89.7500  91.5000  10.2500 Du        
   2329 ****        89.7500  91.5000  10.5000 Du        
   2330 ****        89.7500  91.5000  10.7500 Du        
   2331 ****        89.7500  91.5000  11.0000 Du        
   2332 ****        89.7500  91.5000  11.2500 Du        
   2333 ****        89.7500  91.7500   8.0000 Du        
   2334 ****        89.7500  91.7500   8.2500 Du        
   2335 ****        89.7500  91.7500   8.5000 Du        
   2336 ****        89.7500  91.7500   8.7500 Du        
   2337 ****        89.7500  91.7500   9.0000 Du        
   2338 ****        89.7500  91.7500   9.2500 Du        
   2339 ****        89.7500  91.7500   9.5000 Du        
   2340 ****        89.7500  91.7500   9.7500 Du        
   2341 ****        89.7500  91.7500  10.0000 Du        
   2342 ****        89.7500  91.7500  10.2500 Du        
   2343 ****        89.7500  91.7500  10.5000 Du        
   2344 ****        89.7500  91.7500  10.7500 Du        
   2345 ****        89.7500  91.7500  11.0000 Du        
   2346 ****        89.7500  91.7500  11.2500 Du        
   2347 ****        89.7500  92.0000   8.0000 Du        
   2348 ****        89.7500  92.0000   8.2500 Du        
   2349 ****        89.7500  92.0000   8.5000 Du        
   2350 ****        89.7500  92.0000   8.7500 Du        
   2351 ****        89.7500  92.0000   9.0000 Du        
   2352 ****        89.7500  92.0000   9.2500 Du        
   2353 ****        89.7500  92.0000   9.5000 Du        
   2354 ****        89.7500  92.0000   9.7500 Du        
   2355 ****        89.7500  92.0000  10.0000 Du        
   2356 ****        89.7500  92.0000  10.2500 Du        
   2357 ****        89.7500  92.0000  10.5000 Du        
   2358 ****        89.7500  92.0000  10.7500 Du        
   2359 ****        89.7500  92.0000  11.0000 Du        
   2360 ****        89.7500  92.2500   3.0000 Du        
   2361 ****        89.7500  92.2500   8.2500 Du        
   2362 ****        89.7500  92.2500   8.5000 Du        
   2363 ****        89.7500  92.2500   8.7500 Du        
   2364 ****        89.7500  92.2500   9.0000 Du        
   2365 ****        89.7500  92.2500   9.2500 Du        
   2366 ****        89.7500  92.2500   9.5000 Du        
   2367 ****        89.7500  92.2500   9.7500 Du        
   2368 ****        89.7500  92.2500  10.0000 Du        
   2369 ****        89.7500  92.2500  10.2500 Du        
   2370 ****        89.7500  92.2500  10.5000 Du        
   2371 ****        89.7500  92.2500  10.7500 Du        
   2372 ****        89.7500  92.2500  11.0000 Du        
   2373 ****        89.7500  92.5000   8.5000 Du        
   2374 ****        89.7500  92.5000   8.7500 Du        
   2375 ****        89.7500  92.5000   9.0000 Du        
   2376 ****        89.7500  92.5000   9.2500 Du        
   2377 ****        89.7500  92.5000   9.5000 Du        
   2378 ****        89.7500  92.5000   9.7500 Du        
   2379 ****        89.7500  92.5000  10.0000 Du        
   2380 ****        89.7500  92.5000  10.2500 Du        
   2381 ****        89.7500  92.5000  10.5000 Du        
   2382 ****        89.7500  92.5000  10.7500 Du        
   2383 ****        89.7500  92.5000  11.0000 Du        
   2384 ****        89.7500  92.7500   8.7500 Du        
   2385 ****        89.7500  92.7500   9.0000 Du        
   2386 ****        89.7500  92.7500   9.2500 Du        
   2387 ****        89.7500  92.7500   9.5000 Du        
   2388 ****        89.7500  92.7500   9.7500 Du        
   2389 ****        89.7500  92.7500  10.0000 Du        
   2390 ****        89.7500  92.7500  10.2500 Du        
   2391 ****        89.7500  92.7500  10.5000 Du        
   2392 ****        89.7500  92.7500  10.7500 Du        
   2393 ****        89.7500  92.7500  11.0000 Du        
   2394 ****        89.7500  93.0000  10.5000 Du        
   2395 ****        89.7500  93.0000  10.7500 Du        
   2396 ****        89.7500  93.0000  11.0000 Du        
   2397 ****        90.0000  87.0000   9.0000 Du        
   2398 ****        90.0000  87.0000   9.2500 Du        
   2399 ****        90.0000  87.0000   9.5000 Du        
   2400 ****        90.0000  87.0000   9.7500 Du        
   2401 ****        90.0000  87.0000  10.0000 Du        
   2402 ****        90.0000  87.0000  10.2500 Du        
   2403 ****        90.0000  87.0000  10.5000 Du        
   2404 ****        90.0000  87.2500   8.7500 Du        
   2405 ****        90.0000  87.2500   9.0000 Du        
   2406 ****        90.0000  87.2500   9.2500 Du        
   2407 ****        90.0000  87.2500   9.5000 Du        
   2408 ****        90.0000  87.2500   9.7500 Du        
   2409 ****        90.0000  87.2500  10.0000 Du        
   2410 ****        90.0000  87.2500  10.2500 Du        
   2411 ****        90.0000  87.5000   8.7500 Du        
   2412 ****        90.0000  87.5000   9.0000 Du        
   2413 ****        90.0000  87.5000   9.2500 Du        
   2414 ****        90.0000  87.5000   9.5000 Du        
   2415 ****        90.0000  87.5000   9.7500 Du        
   2416 ****        90.0000  87.5000  10.0000 Du        
   2417 ****        90.0000  87.5000  10.2500 Du        
   2418 ****        90.0000  87.7500   8.7500 Du        
   2419 ****        90.0000  87.7500   9.0000 Du        
   2420 ****        90.0000  87.7500   9.2500 Du        
   2421 ****        90.0000  87.7500   9.5000 Du        
   2422 ****        90.0000  87.7500   9.7500 Du        
   2423 ****        90.0000  87.7500  10.0000 Du        
   2424 ****        90.0000  88.0000   8.7500 Du        
   2425 ****        90.0000  88.0000   9.0000 Du        
   2426 ****        90.0000  88.0000   9.2500 Du        
   2427 ****        90.0000  88.0000   9.5000 Du        
   2428 ****        90.0000  88.0000   9.7500 Du        
   2429 ****        90.0000  88.0000  10.0000 Du        
   2430 ****        90.0000  88.2500   8.7500 Du        
   2431 ****        90.0000  88.2500   9.0000 Du        
   2432 ****        90.0000  88.2500   9.2500 Du        
   2433 ****        90.0000  88.2500   9.5000 Du        
   2434 ****        90.0000  88.2500   9.7500 Du        
   2435 ****        90.0000  88.2500  10.0000 Du        
   2436 ****        90.0000  88.5000   8.7500 Du        
   2437 ****        90.0000  88.5000   9.0000 Du        
   2438 ****        90.0000  88.5000   9.2500 Du        
   2439 ****        90.0000  88.5000   9.5000 Du        
   2440 ****        90.0000  88.5000   9.7500 Du        
   2441 ****        90.0000  88.5000  10.0000 Du        
   2442 ****        90.0000  88.7500   8.7500 Du        
   2443 ****        90.0000  88.7500   9.0000 Du        
   2444 ****        90.0000  88.7500   9.2500 Du        
   2445 ****        90.0000  88.7500   9.5000 Du        
   2446 ****        90.0000  88.7500   9.7500 Du        
   2447 ****        90.0000  88.7500  10.0000 Du        
   2448 ****        90.0000  89.0000   8.7500 Du        
   2449 ****        90.0000  89.0000   9.0000 Du        
   2450 ****        90.0000  89.0000   9.2500 Du        
   2451 ****        90.0000  89.0000   9.5000 Du        
   2452 ****        90.0000  89.0000   9.7500 Du        
   2453 ****        90.0000  89.0000  10.0000 Du        
   2454 ****        90.0000  89.0000  10.2500 Du        
   2455 ****        90.0000  89.2500   8.5000 Du        
   2456 ****        90.0000  89.2500   8.7500 Du        
   2457 ****        90.0000  89.2500   9.0000 Du        
   2458 ****        90.0000  89.2500   9.2500 Du        
   2459 ****        90.0000  89.2500   9.5000 Du        
   2460 ****        90.0000  89.2500   9.7500 Du        
   2461 ****        90.0000  89.2500  10.0000 Du        
   2462 ****        90.0000  89.2500  10.2500 Du        
   2463 ****        90.0000  89.5000   8.5000 Du        
   2464 ****        90.0000  89.5000   8.7500 Du        
   2465 ****        90.0000  89.5000   9.0000 Du        
   2466 ****        90.0000  89.5000   9.2500 Du        
   2467 ****        90.0000  89.5000   9.5000 Du        
   2468 ****        90.0000  89.5000   9.7500 Du        
   2469 ****        90.0000  89.5000  10.0000 Du        
   2470 ****        90.0000  89.5000  10.2500 Du        
   2471 ****        90.0000  89.5000  10.5000 Du        
   2472 ****        90.0000  89.7500   8.2500 Du        
   2473 ****        90.0000  89.7500   8.5000 Du        
   2474 ****        90.0000  89.7500   8.7500 Du        
   2475 ****        90.0000  89.7500   9.0000 Du        
   2476 ****        90.0000  89.7500   9.2500 Du        
   2477 ****        90.0000  89.7500   9.5000 Du        
   2478 ****        90.0000  89.7500   9.7500 Du        
   2479 ****        90.0000  89.7500  10.0000 Du        
   2480 ****        90.0000  89.7500  10.2500 Du        
   2481 ****        90.0000  89.7500  10.5000 Du        
   2482 ****        90.0000  89.7500  10.7500 Du        
   2483 ****        90.0000  90.0000   8.2500 Du        
   2484 ****        90.0000  90.0000   8.5000 Du        
   2485 ****        90.0000  90.0000   8.7500 Du        
   2486 ****        90.0000  90.0000   9.0000 Du        
   2487 ****        90.0000  90.0000   9.2500 Du        
   2488 ****        90.0000  90.0000   9.5000 Du        
   2489 ****        90.0000  90.0000   9.7500 Du        
   2490 ****        90.0000  90.0000  10.0000 Du        
   2491 ****        90.0000  90.0000  10.2500 Du        
   2492 ****        90.0000  90.0000  10.5000 Du        
   2493 ****        90.0000  90.0000  10.7500 Du        
   2494 ****        90.0000  90.0000  11.0000 Du        
   2495 ****        90.0000  90.0000  11.2500 Du        
   2496 ****        90.0000  90.2500   8.0000 Du        
   2497 ****        90.0000  90.2500   8.2500 Du        
   2498 ****        90.0000  90.2500   8.5000 Du        
   2499 ****        90.0000  90.2500   8.7500 Du        
   2500 ****        90.0000  90.2500   9.0000 Du        
   2501 ****        90.0000  90.2500   9.2500 Du        
   2502 ****        90.0000  90.2500   9.5000 Du        
   2503 ****        90.0000  90.2500   9.7500 Du        
   2504 ****        90.0000  90.2500  10.0000 Du        
   2505 ****        90.0000  90.2500  10.2500 Du        
   2506 ****        90.0000  90.2500  10.5000 Du        
   2507 ****        90.0000  90.2500  10.7500 Du        
   2508 ****        90.0000  90.2500  11.0000 Du        
   2509 ****        90.0000  90.2500  11.2500 Du        
   2510 ****        90.0000  90.5000   8.0000 Du        
   2511 ****        90.0000  90.5000   8.2500 Du        
   2512 ****        90.0000  90.5000   8.5000 Du        
   2513 ****        90.0000  90.5000   8.7500 Du        
   2514 ****        90.0000  90.5000   9.0000 Du        
   2515 ****        90.0000  90.5000   9.2500 Du        
   2516 ****        90.0000  90.5000   9.5000 Du        
   2517 ****        90.0000  90.5000   9.7500 Du        
   2518 ****        90.0000  90.5000  10.0000 Du        
   2519 ****        90.0000  90.5000  10.2500 Du        
   2520 ****        90.0000  90.5000  10.5000 Du        
   2521 ****        90.0000  90.5000  10.7500 Du        
   2522 ****        90.0000  90.5000  11.0000 Du        
   2523 ****        90.0000  90.5000  11.2500 Du        
   2524 ****        90.0000  90.5000  11.5000 Du        
   2525 ****        90.0000  90.7500   8.0000 Du        
   2526 ****        90.0000  90.7500   8.2500 Du        
   2527 ****        90.0000  90.7500   8.5000 Du        
   2528 ****        90.0000  90.7500   8.7500 Du        
   2529 ****        90.0000  90.7500   9.0000 Du        
   2530 ****        90.0000  90.7500   9.2500 Du        
   2531 ****        90.0000  90.7500   9.5000 Du        
   2532 ****        90.0000  90.7500   9.7500 Du        
   2533 ****        90.0000  90.7500  10.0000 Du        
   2534 ****        90.0000  90.7500  10.2500 Du        
   2535 ****        90.0000  90.7500  10.5000 Du        
   2536 ****        90.0000  90.7500  10.7500 Du        
   2537 ****        90.0000  90.7500  11.0000 Du        
   2538 ****        90.0000  90.7500  11.2500 Du        
   2539 ****        90.0000  90.7500  11.5000 Du        
   2540 ****        90.0000  91.0000   7.7500 Du        
   2541 ****        90.0000  91.0000   8.0000 Du        
   2542 ****        90.0000  91.0000   8.2500 Du        
   2543 ****        90.0000  91.0000   8.5000 Du        
   2544 ****        90.0000  91.0000   8.7500 Du        
   2545 ****        90.0000  91.0000   9.0000 Du        
   2546 ****        90.0000  91.0000   9.2500 Du        
   2547 ****        90.0000  91.0000   9.5000 Du        
   2548 ****        90.0000  91.0000   9.7500 Du        
   2549 ****        90.0000  91.0000  10.0000 Du        
   2550 ****        90.0000  91.0000  10.2500 Du        
   2551 ****        90.0000  91.0000  10.5000 Du        
   2552 ****        90.0000  91.0000  10.7500 Du        
   2553 ****        90.0000  91.0000  11.0000 Du        
   2554 ****        90.0000  91.0000  11.2500 Du        
   2555 ****        90.0000  91.2500   7.7500 Du        
   2556 ****        90.0000  91.2500   8.0000 Du        
   2557 ****        90.0000  91.2500   8.2500 Du        
   2558 ****        90.0000  91.2500   8.5000 Du        
   2559 ****        90.0000  91.2500   8.7500 Du        
   2560 ****        90.0000  91.2500   9.0000 Du        
   2561 ****        90.0000  91.2500   9.2500 Du        
   2562 ****        90.0000  91.2500   9.5000 Du        
   2563 ****        90.0000  91.2500   9.7500 Du        
   2564 ****        90.0000  91.2500  10.0000 Du        
   2565 ****        90.0000  91.2500  10.2500 Du        
   2566 ****        90.0000  91.2500  10.5000 Du        
   2567 ****        90.0000  91.2500  10.7500 Du        
   2568 ****        90.0000  91.2500  11.0000 Du        
   2569 ****        90.0000  91.2500  11.2500 Du        
   2570 ****        90.0000  91.5000   7.7500 Du        
   2571 ****        90.0000  91.5000   8.0000 Du        
   2572 ****        90.0000  91.5000   8.2500 Du        
   2573 ****        90.0000  91.5000   8.5000 Du        
   2574 ****        90.0000  91.5000   8.7500 Du        
   2575 ****        90.0000  91.5000   9.0000 Du        
   2576 ****        90.0000  91.5000   9.2500 Du        
   2577 ****        90.0000  91.5000   9.5000 Du        
   2578 ****        90.0000  91.5000   9.7500 Du        
   2579 ****        90.0000  91.5000  10.0000 Du        
   2580 ****        90.0000  91.5000  10.2500 Du        
   2581 ****        90.0000  91.5000  10.5000 Du        
   2582 ****        90.0000  91.5000  10.7500 Du        
   2583 ****        90.0000  91.5000  11.0000 Du        
   2584 ****        90.0000  91.5000  11.2500 Du        
   2585 ****        90.0000  91.7500   7.7500 Du        
   2586 ****        90.0000  91.7500   8.0000 Du        
   2587 ****        90.0000  91.7500   8.2500 Du        
   2588 ****        90.0000  91.7500   8.5000 Du        
   2589 ****        90.0000  91.7500   8.7500 Du        
   2590 ****        90.0000  91.7500   9.0000 Du        
   2591 ****        90.0000  91.7500   9.2500 Du        
   2592 ****        90.0000  91.7500   9.5000 Du        
   2593 ****        90.0000  91.7500   9.7500 Du        
   2594 ****        90.0000  91.7500  10.0000 Du        
   2595 ****        90.0000  91.7500  10.2500 Du        
   2596 ****        90.0000  91.7500  10.5000 Du        
   2597 ****        90.0000  91.7500  10.7500 Du        
   2598 ****        90.0000  91.7500  11.0000 Du        
   2599 ****        90.0000  91.7500  11.2500 Du        
   2600 ****        90.0000  92.0000   3.0000 Du        
   2601 ****        90.0000  92.0000   8.0000 Du        
   2602 ****        90.0000  92.0000   8.2500 Du        
   2603 ****        90.0000  92.0000   8.5000 Du        
   2604 ****        90.0000  92.0000   8.7500 Du        
   2605 ****        90.0000  92.0000   9.0000 Du        
   2606 ****        90.0000  92.0000   9.2500 Du        
   2607 ****        90.0000  92.0000   9.5000 Du        
   2608 ****        90.0000  92.0000   9.7500 Du        
   2609 ****        90.0000  92.0000  10.0000 Du        
   2610 ****        90.0000  92.0000  10.2500 Du        
   2611 ****        90.0000  92.0000  10.5000 Du        
   2612 ****        90.0000  92.0000  10.7500 Du        
   2613 ****        90.0000  92.0000  11.0000 Du        
   2614 ****        90.0000  92.2500   3.0000 Du        
   2615 ****        90.0000  92.2500   8.7500 Du        
   2616 ****        90.0000  92.2500   9.0000 Du        
   2617 ****        90.0000  92.2500   9.2500 Du        
   2618 ****        90.0000  92.2500   9.5000 Du        
   2619 ****        90.0000  92.2500   9.7500 Du        
   2620 ****        90.0000  92.2500  10.0000 Du        
   2621 ****        90.0000  92.2500  10.2500 Du        
   2622 ****        90.0000  92.2500  10.5000 Du        
   2623 ****        90.0000  92.2500  10.7500 Du        
   2624 ****        90.0000  92.2500  11.0000 Du        
   2625 ****        90.0000  92.5000  10.2500 Du        
   2626 ****        90.0000  92.5000  10.5000 Du        
   2627 ****        90.0000  92.5000  10.7500 Du        
   2628 ****        90.0000  92.5000  11.0000 Du        
   2629 ****        90.0000  92.7500  10.7500 Du        
   2630 ****        90.2500  86.7500   8.2500 Du        
   2631 ****        90.2500  86.7500   8.5000 Du        
   2632 ****        90.2500  86.7500   8.7500 Du        
   2633 ****        90.2500  86.7500   9.0000 Du        
   2634 ****        90.2500  87.0000   8.0000 Du        
   2635 ****        90.2500  87.0000   8.2500 Du        
   2636 ****        90.2500  87.0000   8.5000 Du        
   2637 ****        90.2500  87.0000   8.7500 Du        
   2638 ****        90.2500  87.0000   9.0000 Du        
   2639 ****        90.2500  87.0000   9.2500 Du        
   2640 ****        90.2500  87.0000   9.5000 Du        
   2641 ****        90.2500  87.0000   9.7500 Du        
   2642 ****        90.2500  87.0000  10.0000 Du        
   2643 ****        90.2500  87.0000  10.2500 Du        
   2644 ****        90.2500  87.0000  10.5000 Du        
   2645 ****        90.2500  87.0000  10.7500 Du        
   2646 ****        90.2500  87.0000  11.0000 Du        
   2647 ****        90.2500  87.2500   8.2500 Du        
   2648 ****        90.2500  87.2500   8.5000 Du        
   2649 ****        90.2500  87.2500   8.7500 Du        
   2650 ****        90.2500  87.2500   9.0000 Du        
   2651 ****        90.2500  87.2500   9.2500 Du        
   2652 ****        90.2500  87.2500   9.5000 Du        
   2653 ****        90.2500  87.2500   9.7500 Du        
   2654 ****        90.2500  87.2500  10.0000 Du        
   2655 ****        90.2500  87.2500  10.2500 Du        
   2656 ****        90.2500  87.2500  10.5000 Du        
   2657 ****        90.2500  87.2500  10.7500 Du        
   2658 ****        90.2500  87.5000   8.2500 Du        
   2659 ****        90.2500  87.5000   8.5000 Du        
   2660 ****        90.2500  87.5000   8.7500 Du        
   2661 ****        90.2500  87.5000   9.0000 Du        
   2662 ****        90.2500  87.5000   9.2500 Du        
   2663 ****        90.2500  87.5000   9.5000 Du        
   2664 ****        90.2500  87.5000   9.7500 Du        
   2665 ****        90.2500  87.5000  10.0000 Du        
   2666 ****        90.2500  87.5000  10.2500 Du        
   2667 ****        90.2500  87.5000  10.5000 Du        
   2668 ****        90.2500  87.7500   8.2500 Du        
   2669 ****        90.2500  87.7500   8.5000 Du        
   2670 ****        90.2500  87.7500   8.7500 Du        
   2671 ****        90.2500  87.7500   9.0000 Du        
   2672 ****        90.2500  87.7500   9.2500 Du        
   2673 ****        90.2500  87.7500   9.5000 Du        
   2674 ****        90.2500  87.7500   9.7500 Du        
   2675 ****        90.2500  87.7500  10.0000 Du        
   2676 ****        90.2500  87.7500  10.2500 Du        
   2677 ****        90.2500  87.7500  10.5000 Du        
   2678 ****        90.2500  88.0000   8.2500 Du        
   2679 ****        90.2500  88.0000   8.5000 Du        
   2680 ****        90.2500  88.0000   8.7500 Du        
   2681 ****        90.2500  88.0000   9.0000 Du        
   2682 ****        90.2500  88.0000   9.2500 Du        
   2683 ****        90.2500  88.0000   9.5000 Du        
   2684 ****        90.2500  88.0000   9.7500 Du        
   2685 ****        90.2500  88.0000  10.0000 Du        
   2686 ****        90.2500  88.0000  10.2500 Du        
   2687 ****        90.2500  88.2500   8.2500 Du        
   2688 ****        90.2500  88.2500   8.5000 Du        
   2689 ****        90.2500  88.2500   8.7500 Du        
   2690 ****        90.2500  88.2500   9.0000 Du        
   2691 ****        90.2500  88.2500   9.2500 Du        
   2692 ****        90.2500  88.2500   9.5000 Du        
   2693 ****        90.2500  88.2500   9.7500 Du        
   2694 ****        90.2500  88.2500  10.0000 Du        
   2695 ****        90.2500  88.2500  10.2500 Du        
   2696 ****        90.2500  88.5000   8.5000 Du        
   2697 ****        90.2500  88.5000   8.7500 Du        
   2698 ****        90.2500  88.5000   9.0000 Du        
   2699 ****        90.2500  88.5000   9.2500 Du        
   2700 ****        90.2500  88.5000   9.5000 Du        
   2701 ****        90.2500  88.5000   9.7500 Du        
   2702 ****        90.2500  88.5000  10.0000 Du        
   2703 ****        90.2500  88.5000  10.2500 Du        
   2704 ****        90.2500  88.7500   8.2500 Du        
   2705 ****        90.2500  88.7500   8.5000 Du        
   2706 ****        90.2500  88.7500   8.7500 Du        
   2707 ****        90.2500  88.7500   9.0000 Du        
   2708 ****        90.2500  88.7500   9.2500 Du        
   2709 ****        90.2500  88.7500   9.5000 Du        
   2710 ****        90.2500  88.7500   9.7500 Du        
   2711 ****        90.2500  88.7500  10.0000 Du        
   2712 ****        90.2500  88.7500  10.2500 Du        
   2713 ****        90.2500  88.7500  10.5000 Du        
   2714 ****        90.2500  89.0000   8.2500 Du        
   2715 ****        90.2500  89.0000   8.5000 Du        
   2716 ****        90.2500  89.0000   8.7500 Du        
   2717 ****        90.2500  89.0000   9.0000 Du        
   2718 ****        90.2500  89.0000   9.2500 Du        
   2719 ****        90.2500  89.0000   9.5000 Du        
   2720 ****        90.2500  89.0000   9.7500 Du        
   2721 ****        90.2500  89.0000  10.0000 Du        
   2722 ****        90.2500  89.0000  10.2500 Du        
   2723 ****        90.2500  89.0000  10.5000 Du        
   2724 ****        90.2500  89.2500   8.0000 Du        
   2725 ****        90.2500  89.2500   8.2500 Du        
   2726 ****        90.2500  89.2500   8.5000 Du        
   2727 ****        90.2500  89.2500   8.7500 Du        
   2728 ****        90.2500  89.2500   9.0000 Du        
   2729 ****        90.2500  89.2500   9.2500 Du        
   2730 ****        90.2500  89.2500   9.5000 Du        
   2731 ****        90.2500  89.2500   9.7500 Du        
   2732 ****        90.2500  89.2500  10.0000 Du        
   2733 ****        90.2500  89.2500  10.2500 Du        
   2734 ****        90.2500  89.2500  10.5000 Du        
   2735 ****        90.2500  89.2500  10.7500 Du        
   2736 ****        90.2500  89.5000   8.0000 Du        
   2737 ****        90.2500  89.5000   8.2500 Du        
   2738 ****        90.2500  89.5000   8.5000 Du        
   2739 ****        90.2500  89.5000   8.7500 Du        
   2740 ****        90.2500  89.5000   9.0000 Du        
   2741 ****        90.2500  89.5000   9.2500 Du        
   2742 ****        90.2500  89.5000   9.5000 Du        
   2743 ****        90.2500  89.5000   9.7500 Du        
   2744 ****        90.2500  89.5000  10.0000 Du        
   2745 ****        90.2500  89.5000  10.2500 Du        
   2746 ****        90.2500  89.5000  10.5000 Du        
   2747 ****        90.2500  89.5000  10.7500 Du        
   2748 ****        90.2500  89.5000  11.0000 Du        
   2749 ****        90.2500  89.7500   7.7500 Du        
   2750 ****        90.2500  89.7500   8.0000 Du        
   2751 ****        90.2500  89.7500   8.2500 Du        
   2752 ****        90.2500  89.7500   8.5000 Du        
   2753 ****        90.2500  89.7500   8.7500 Du        
   2754 ****        90.2500  89.7500   9.0000 Du        
   2755 ****        90.2500  89.7500   9.2500 Du        
   2756 ****        90.2500  89.7500   9.5000 Du        
   2757 ****        90.2500  89.7500   9.7500 Du        
   2758 ****        90.2500  89.7500  10.0000 Du        
   2759 ****        90.2500  89.7500  10.2500 Du        
   2760 ****        90.2500  89.7500  10.5000 Du        
   2761 ****        90.2500  89.7500  10.7500 Du        
   2762 ****        90.2500  89.7500  11.0000 Du        
   2763 ****        90.2500  89.7500  11.2500 Du        
   2764 ****        90.2500  89.7500  11.5000 Du        
   2765 ****        90.2500  90.0000   7.7500 Du        
   2766 ****        90.2500  90.0000   8.0000 Du        
   2767 ****        90.2500  90.0000   8.2500 Du        
   2768 ****        90.2500  90.0000   8.5000 Du        
   2769 ****        90.2500  90.0000   8.7500 Du        
   2770 ****        90.2500  90.0000   9.0000 Du        
   2771 ****        90.2500  90.0000   9.2500 Du        
   2772 ****        90.2500  90.0000   9.5000 Du        
   2773 ****        90.2500  90.0000   9.7500 Du        
   2774 ****        90.2500  90.0000  10.0000 Du        
   2775 ****        90.2500  90.0000  10.2500 Du        
   2776 ****        90.2500  90.0000  10.5000 Du        
   2777 ****        90.2500  90.0000  10.7500 Du        
   2778 ****        90.2500  90.0000  11.0000 Du        
   2779 ****        90.2500  90.0000  11.2500 Du        
   2780 ****        90.2500  90.0000  11.5000 Du        
   2781 ****        90.2500  90.2500   7.7500 Du        
   2782 ****        90.2500  90.2500   8.0000 Du        
   2783 ****        90.2500  90.2500   8.2500 Du        
   2784 ****        90.2500  90.2500   8.5000 Du        
   2785 ****        90.2500  90.2500   8.7500 Du        
   2786 ****        90.2500  90.2500   9.0000 Du        
   2787 ****        90.2500  90.2500   9.2500 Du        
   2788 ****        90.2500  90.2500   9.5000 Du        
   2789 ****        90.2500  90.2500   9.7500 Du        
   2790 ****        90.2500  90.2500  10.0000 Du        
   2791 ****        90.2500  90.2500  10.2500 Du        
   2792 ****        90.2500  90.2500  10.5000 Du        
   2793 ****        90.2500  90.2500  10.7500 Du        
   2794 ****        90.2500  90.2500  11.0000 Du        
   2795 ****        90.2500  90.2500  11.2500 Du        
   2796 ****        90.2500  90.2500  11.5000 Du        
   2797 ****        90.2500  90.5000   7.5000 Du        
   2798 ****        90.2500  90.5000   7.7500 Du        
   2799 ****        90.2500  90.5000   8.0000 Du        
   2800 ****        90.2500  90.5000   8.2500 Du        
   2801 ****        90.2500  90.5000   8.5000 Du        
   2802 ****        90.2500  90.5000   8.7500 Du        
   2803 ****        90.2500  90.5000   9.0000 Du        
   2804 ****        90.2500  90.5000   9.2500 Du        
   2805 ****        90.2500  90.5000   9.5000 Du        
   2806 ****        90.2500  90.5000   9.7500 Du        
   2807 ****        90.2500  90.5000  10.0000 Du        
   2808 ****        90.2500  90.5000  10.2500 Du        
   2809 ****        90.2500  90.5000  10.5000 Du        
   2810 ****        90.2500  90.5000  10.7500 Du        
   2811 ****        90.2500  90.5000  11.0000 Du        
   2812 ****        90.2500  90.5000  11.2500 Du        
   2813 ****        90.2500  90.5000  11.5000 Du        
   2814 ****        90.2500  90.7500   7.5000 Du        
   2815 ****        90.2500  90.7500   7.7500 Du        
   2816 ****        90.2500  90.7500   8.0000 Du        
   2817 ****        90.2500  90.7500   8.2500 Du        
   2818 ****        90.2500  90.7500   8.5000 Du        
   2819 ****        90.2500  90.7500   8.7500 Du        
   2820 ****        90.2500  90.7500   9.0000 Du        
   2821 ****        90.2500  90.7500   9.2500 Du        
   2822 ****        90.2500  90.7500   9.5000 Du        
   2823 ****        90.2500  90.7500   9.7500 Du        
   2824 ****        90.2500  90.7500  10.0000 Du        
   2825 ****        90.2500  90.7500  10.2500 Du        
   2826 ****        90.2500  90.7500  10.5000 Du        
   2827 ****        90.2500  90.7500  10.7500 Du        
   2828 ****        90.2500  90.7500  11.0000 Du        
   2829 ****        90.2500  90.7500  11.2500 Du        
   2830 ****        90.2500  90.7500  11.5000 Du        
   2831 ****        90.2500  91.0000   7.5000 Du        
   2832 ****        90.2500  91.0000   7.7500 Du        
   2833 ****        90.2500  91.0000   8.0000 Du        
   2834 ****        90.2500  91.0000   8.2500 Du        
   2835 ****        90.2500  91.0000   8.5000 Du        
   2836 ****        90.2500  91.0000   8.7500 Du        
   2837 ****        90.2500  91.0000   9.0000 Du        
   2838 ****        90.2500  91.0000   9.2500 Du        
   2839 ****        90.2500  91.0000   9.5000 Du        
   2840 ****        90.2500  91.0000   9.7500 Du        
   2841 ****        90.2500  91.0000  10.0000 Du        
   2842 ****        90.2500  91.0000  10.2500 Du        
   2843 ****        90.2500  91.0000  10.5000 Du        
   2844 ****        90.2500  91.0000  10.7500 Du        
   2845 ****        90.2500  91.0000  11.0000 Du        
   2846 ****        90.2500  91.0000  11.2500 Du        
   2847 ****        90.2500  91.2500   7.5000 Du        
   2848 ****        90.2500  91.2500   7.7500 Du        
   2849 ****        90.2500  91.2500   8.0000 Du        
   2850 ****        90.2500  91.2500   8.2500 Du        
   2851 ****        90.2500  91.2500   8.5000 Du        
   2852 ****        90.2500  91.2500   8.7500 Du        
   2853 ****        90.2500  91.2500   9.0000 Du        
   2854 ****        90.2500  91.2500   9.2500 Du        
   2855 ****        90.2500  91.2500   9.5000 Du        
   2856 ****        90.2500  91.2500   9.7500 Du        
   2857 ****        90.2500  91.2500  10.0000 Du        
   2858 ****        90.2500  91.2500  10.2500 Du        
   2859 ****        90.2500  91.2500  10.5000 Du        
   2860 ****        90.2500  91.2500  10.7500 Du        
   2861 ****        90.2500  91.2500  11.0000 Du        
   2862 ****        90.2500  91.2500  11.2500 Du        
   2863 ****        90.2500  91.5000   7.7500 Du        
   2864 ****        90.2500  91.5000   8.0000 Du        
   2865 ****        90.2500  91.5000   8.2500 Du        
   2866 ****        90.2500  91.5000   8.5000 Du        
   2867 ****        90.2500  91.5000   8.7500 Du        
   2868 ****        90.2500  91.5000   9.0000 Du        
   2869 ****        90.2500  91.5000   9.2500 Du        
   2870 ****        90.2500  91.5000   9.5000 Du        
   2871 ****        90.2500  91.5000   9.7500 Du        
   2872 ****        90.2500  91.5000  10.0000 Du        
   2873 ****        90.2500  91.5000  10.2500 Du        
   2874 ****        90.2500  91.5000  10.5000 Du        
   2875 ****        90.2500  91.5000  10.7500 Du        
   2876 ****        90.2500  91.5000  11.0000 Du        
   2877 ****        90.2500  91.5000  11.2500 Du        
   2878 ****        90.2500  91.7500   8.0000 Du        
   2879 ****        90.2500  91.7500   8.2500 Du        
   2880 ****        90.2500  91.7500   8.5000 Du        
   2881 ****        90.2500  91.7500   8.7500 Du        
   2882 ****        90.2500  91.7500   9.0000 Du        
   2883 ****        90.2500  91.7500   9.2500 Du        
   2884 ****        90.2500  91.7500   9.5000 Du        
   2885 ****        90.2500  91.7500   9.7500 Du        
   2886 ****        90.2500  91.7500  10.0000 Du        
   2887 ****        90.2500  91.7500  10.2500 Du        
   2888 ****        90.2500  91.7500  10.5000 Du        
   2889 ****        90.2500  91.7500  10.7500 Du        
   2890 ****        90.2500  91.7500  11.0000 Du        
   2891 ****        90.2500  92.0000  10.2500 Du        
   2892 ****        90.2500  92.0000  10.5000 Du        
   2893 ****        90.2500  92.0000  10.7500 Du        
   2894 ****        90.2500  92.0000  11.0000 Du        
   2895 ****        90.2500  92.2500  10.7500 Du        
   2896 ****        90.5000  86.2500   6.7500 Du        
   2897 ****        90.5000  86.2500   7.0000 Du        
   2898 ****        90.5000  86.2500   7.2500 Du        
   2899 ****        90.5000  86.2500   7.5000 Du        
   2900 ****        90.5000  86.5000   7.0000 Du        
   2901 ****        90.5000  86.5000   7.2500 Du        
   2902 ****        90.5000  86.5000   7.5000 Du        
   2903 ****        90.5000  86.5000   7.7500 Du        
   2904 ****        90.5000  86.5000   8.0000 Du        
   2905 ****        90.5000  86.5000   8.2500 Du        
   2906 ****        90.5000  86.7500   7.0000 Du        
   2907 ****        90.5000  86.7500   7.2500 Du        
   2908 ****        90.5000  86.7500   7.5000 Du        
   2909 ****        90.5000  86.7500   7.7500 Du        
   2910 ****        90.5000  86.7500   8.0000 Du        
   2911 ****        90.5000  86.7500   8.2500 Du        
   2912 ****        90.5000  86.7500   8.5000 Du        
   2913 ****        90.5000  86.7500   8.7500 Du        
   2914 ****        90.5000  86.7500   9.0000 Du        
   2915 ****        90.5000  86.7500  11.0000 Du        
   2916 ****        90.5000  86.7500  11.2500 Du        
   2917 ****        90.5000  86.7500  11.5000 Du        
   2918 ****        90.5000  87.0000   7.2500 Du        
   2919 ****        90.5000  87.0000   7.5000 Du        
   2920 ****        90.5000  87.0000   7.7500 Du        
   2921 ****        90.5000  87.0000   8.0000 Du        
   2922 ****        90.5000  87.0000   8.2500 Du        
   2923 ****        90.5000  87.0000   8.5000 Du        
   2924 ****        90.5000  87.0000   8.7500 Du        
   2925 ****        90.5000  87.0000   9.0000 Du        
   2926 ****        90.5000  87.0000   9.2500 Du        
   2927 ****        90.5000  87.0000   9.5000 Du        
   2928 ****        90.5000  87.0000   9.7500 Du        
   2929 ****        90.5000  87.0000  10.0000 Du        
   2930 ****        90.5000  87.0000  10.2500 Du        
   2931 ****        90.5000  87.0000  10.5000 Du        
   2932 ****        90.5000  87.0000  10.7500 Du        
   2933 ****        90.5000  87.0000  11.0000 Du        
   2934 ****        90.5000  87.0000  11.2500 Du        
   2935 ****        90.5000  87.0000  11.5000 Du        
   2936 ****        90.5000  87.0000  11.7500 Du        
   2937 ****        90.5000  87.0000  12.0000 Du        
   2938 ****        90.5000  87.2500   7.5000 Du        
   2939 ****        90.5000  87.2500   7.7500 Du        
   2940 ****        90.5000  87.2500   8.0000 Du        
   2941 ****        90.5000  87.2500   8.2500 Du        
   2942 ****        90.5000  87.2500   8.5000 Du        
   2943 ****        90.5000  87.2500   8.7500 Du        
   2944 ****        90.5000  87.2500   9.0000 Du        
   2945 ****        90.5000  87.2500   9.2500 Du        
   2946 ****        90.5000  87.2500   9.5000 Du        
   2947 ****        90.5000  87.2500   9.7500 Du        
   2948 ****        90.5000  87.2500  10.0000 Du        
   2949 ****        90.5000  87.2500  10.2500 Du        
   2950 ****        90.5000  87.2500  10.5000 Du        
   2951 ****        90.5000  87.2500  10.7500 Du        
   2952 ****        90.5000  87.2500  11.0000 Du        
   2953 ****        90.5000  87.2500  11.2500 Du        
   2954 ****        90.5000  87.2500  11.5000 Du        
   2955 ****        90.5000  87.2500  11.7500 Du        
   2956 ****        90.5000  87.2500  12.0000 Du        
   2957 ****        90.5000  87.2500  12.2500 Du        
   2958 ****        90.5000  87.5000   7.5000 Du        
   2959 ****        90.5000  87.5000   7.7500 Du        
   2960 ****        90.5000  87.5000   8.0000 Du        
   2961 ****        90.5000  87.5000   8.2500 Du        
   2962 ****        90.5000  87.5000   8.5000 Du        
   2963 ****        90.5000  87.5000   8.7500 Du        
   2964 ****        90.5000  87.5000   9.0000 Du        
   2965 ****        90.5000  87.5000   9.2500 Du        
   2966 ****        90.5000  87.5000   9.5000 Du        
   2967 ****        90.5000  87.5000   9.7500 Du        
   2968 ****        90.5000  87.5000  10.0000 Du        
   2969 ****        90.5000  87.5000  10.2500 Du        
   2970 ****        90.5000  87.5000  10.5000 Du        
   2971 ****        90.5000  87.5000  10.7500 Du        
   2972 ****        90.5000  87.5000  11.0000 Du        
   2973 ****        90.5000  87.5000  11.2500 Du        
   2974 ****        90.5000  87.5000  12.7500 Du        
   2975 ****        90.5000  87.5000  13.0000 Du        
   2976 ****        90.5000  87.5000  13.2500 Du        
   2977 ****        90.5000  87.7500   7.7500 Du        
   2978 ****        90.5000  87.7500   8.0000 Du        
   2979 ****        90.5000  87.7500   8.2500 Du        
   2980 ****        90.5000  87.7500   8.5000 Du        
   2981 ****        90.5000  87.7500   8.7500 Du        
   2982 ****        90.5000  87.7500   9.0000 Du        
   2983 ****        90.5000  87.7500   9.2500 Du        
   2984 ****        90.5000  87.7500   9.5000 Du        
   2985 ****        90.5000  87.7500   9.7500 Du        
   2986 ****        90.5000  87.7500  10.0000 Du        
   2987 ****        90.5000  87.7500  10.2500 Du        
   2988 ****        90.5000  87.7500  10.5000 Du        
   2989 ****        90.5000  87.7500  10.7500 Du        
   2990 ****        90.5000  87.7500  12.7500 Du        
   2991 ****        90.5000  87.7500  13.0000 Du        
   2992 ****        90.5000  87.7500  13.2500 Du        
   2993 ****        90.5000  87.7500  13.5000 Du        
   2994 ****        90.5000  88.0000   7.7500 Du        
   2995 ****        90.5000  88.0000   8.0000 Du        
   2996 ****        90.5000  88.0000   8.2500 Du        
   2997 ****        90.5000  88.0000   8.5000 Du        
   2998 ****        90.5000  88.0000   8.7500 Du        
   2999 ****        90.5000  88.0000   9.0000 Du        
   3000 ****        90.5000  88.0000   9.2500 Du        
   3001 ****        90.5000  88.0000   9.5000 Du        
   3002 ****        90.5000  88.0000   9.7500 Du        
   3003 ****        90.5000  88.0000  10.0000 Du        
   3004 ****        90.5000  88.0000  10.2500 Du        
   3005 ****        90.5000  88.0000  10.5000 Du        
   3006 ****        90.5000  88.0000  12.7500 Du        
   3007 ****        90.5000  88.0000  13.0000 Du        
   3008 ****        90.5000  88.0000  13.2500 Du        
   3009 ****        90.5000  88.0000  13.5000 Du        
   3010 ****        90.5000  88.2500   7.7500 Du        
   3011 ****        90.5000  88.2500   8.0000 Du        
   3012 ****        90.5000  88.2500   8.2500 Du        
   3013 ****        90.5000  88.2500   8.5000 Du        
   3014 ****        90.5000  88.2500   8.7500 Du        
   3015 ****        90.5000  88.2500   9.0000 Du        
   3016 ****        90.5000  88.2500   9.2500 Du        
   3017 ****        90.5000  88.2500   9.5000 Du        
   3018 ****        90.5000  88.2500   9.7500 Du        
   3019 ****        90.5000  88.2500  10.0000 Du        
   3020 ****        90.5000  88.2500  10.2500 Du        
   3021 ****        90.5000  88.2500  10.5000 Du        
   3022 ****        90.5000  88.2500  13.0000 Du        
   3023 ****        90.5000  88.2500  13.2500 Du        
   3024 ****        90.5000  88.2500  13.5000 Du        
   3025 ****        90.5000  88.2500  13.7500 Du        
   3026 ****        90.5000  88.5000   7.7500 Du        
   3027 ****        90.5000  88.5000   8.0000 Du        
   3028 ****        90.5000  88.5000   8.2500 Du        
   3029 ****        90.5000  88.5000   8.5000 Du        
   3030 ****        90.5000  88.5000   8.7500 Du        
   3031 ****        90.5000  88.5000   9.0000 Du        
   3032 ****        90.5000  88.5000   9.2500 Du        
   3033 ****        90.5000  88.5000   9.5000 Du        
   3034 ****        90.5000  88.5000   9.7500 Du        
   3035 ****        90.5000  88.5000  10.0000 Du        
   3036 ****        90.5000  88.5000  10.2500 Du        
   3037 ****        90.5000  88.5000  10.5000 Du        
   3038 ****        90.5000  88.5000  10.7500 Du        
   3039 ****        90.5000  88.5000  13.0000 Du        
   3040 ****        90.5000  88.5000  13.2500 Du        
   3041 ****        90.5000  88.5000  13.5000 Du        
   3042 ****        90.5000  88.5000  13.7500 Du        
   3043 ****        90.5000  88.7500   7.7500 Du        
   3044 ****        90.5000  88.7500   8.0000 Du        
   3045 ****        90.5000  88.7500   8.2500 Du        
   3046 ****        90.5000  88.7500   8.5000 Du        
   3047 ****        90.5000  88.7500   8.7500 Du        
   3048 ****        90.5000  88.7500   9.0000 Du        
   3049 ****        90.5000  88.7500   9.2500 Du        
   3050 ****        90.5000  88.7500   9.5000 Du        
   3051 ****        90.5000  88.7500   9.7500 Du        
   3052 ****        90.5000  88.7500  10.0000 Du        
   3053 ****        90.5000  88.7500  10.2500 Du        
   3054 ****        90.5000  88.7500  10.5000 Du        
   3055 ****        90.5000  88.7500  10.7500 Du        
   3056 ****        90.5000  88.7500  11.0000 Du        
   3057 ****        90.5000  88.7500  13.0000 Du        
   3058 ****        90.5000  88.7500  13.2500 Du        
   3059 ****        90.5000  88.7500  13.5000 Du        
   3060 ****        90.5000  88.7500  13.7500 Du        
   3061 ****        90.5000  89.0000   7.5000 Du        
   3062 ****        90.5000  89.0000   7.7500 Du        
   3063 ****        90.5000  89.0000   8.0000 Du        
   3064 ****        90.5000  89.0000   8.2500 Du        
   3065 ****        90.5000  89.0000   8.5000 Du        
   3066 ****        90.5000  89.0000   8.7500 Du        
   3067 ****        90.5000  89.0000   9.0000 Du        
   3068 ****        90.5000  89.0000   9.2500 Du        
   3069 ****        90.5000  89.0000   9.5000 Du        
   3070 ****        90.5000  89.0000   9.7500 Du        
   3071 ****        90.5000  89.0000  10.0000 Du        
   3072 ****        90.5000  89.0000  10.2500 Du        
   3073 ****        90.5000  89.0000  10.5000 Du        
   3074 ****        90.5000  89.0000  10.7500 Du        
   3075 ****        90.5000  89.0000  11.0000 Du        
   3076 ****        90.5000  89.0000  12.7500 Du        
   3077 ****        90.5000  89.0000  13.0000 Du        
   3078 ****        90.5000  89.0000  13.2500 Du        
   3079 ****        90.5000  89.0000  13.5000 Du        
   3080 ****        90.5000  89.2500   7.5000 Du        
   3081 ****        90.5000  89.2500   7.7500 Du        
   3082 ****        90.5000  89.2500   8.0000 Du        
   3083 ****        90.5000  89.2500   8.2500 Du        
   3084 ****        90.5000  89.2500   8.5000 Du        
   3085 ****        90.5000  89.2500   8.7500 Du        
   3086 ****        90.5000  89.2500   9.0000 Du        
   3087 ****        90.5000  89.2500   9.2500 Du        
   3088 ****        90.5000  89.2500   9.5000 Du        
   3089 ****        90.5000  89.2500   9.7500 Du        
   3090 ****        90.5000  89.2500  10.0000 Du        
   3091 ****        90.5000  89.2500  10.2500 Du        
   3092 ****        90.5000  89.2500  10.5000 Du        
   3093 ****        90.5000  89.2500  10.7500 Du        
   3094 ****        90.5000  89.2500  11.0000 Du        
   3095 ****        90.5000  89.2500  11.2500 Du        
   3096 ****        90.5000  89.5000   7.5000 Du        
   3097 ****        90.5000  89.5000   7.7500 Du        
   3098 ****        90.5000  89.5000   8.0000 Du        
   3099 ****        90.5000  89.5000   8.2500 Du        
   3100 ****        90.5000  89.5000   8.5000 Du        
   3101 ****        90.5000  89.5000   8.7500 Du        
   3102 ****        90.5000  89.5000   9.0000 Du        
   3103 ****        90.5000  89.5000   9.2500 Du        
   3104 ****        90.5000  89.5000   9.5000 Du        
   3105 ****        90.5000  89.5000   9.7500 Du        
   3106 ****        90.5000  89.5000  10.0000 Du        
   3107 ****        90.5000  89.5000  10.2500 Du        
   3108 ****        90.5000  89.5000  10.5000 Du        
   3109 ****        90.5000  89.5000  10.7500 Du        
   3110 ****        90.5000  89.5000  11.0000 Du        
   3111 ****        90.5000  89.5000  11.2500 Du        
   3112 ****        90.5000  89.5000  11.5000 Du        
   3113 ****        90.5000  89.5000  11.7500 Du        
   3114 ****        90.5000  89.5000  12.0000 Du        
   3115 ****        90.5000  89.7500   7.5000 Du        
   3116 ****        90.5000  89.7500   7.7500 Du        
   3117 ****        90.5000  89.7500   8.0000 Du        
   3118 ****        90.5000  89.7500   8.2500 Du        
   3119 ****        90.5000  89.7500   8.5000 Du        
   3120 ****        90.5000  89.7500   8.7500 Du        
   3121 ****        90.5000  89.7500   9.0000 Du        
   3122 ****        90.5000  89.7500   9.2500 Du        
   3123 ****        90.5000  89.7500   9.5000 Du        
   3124 ****        90.5000  89.7500   9.7500 Du        
   3125 ****        90.5000  89.7500  10.0000 Du        
   3126 ****        90.5000  89.7500  10.2500 Du        
   3127 ****        90.5000  89.7500  10.5000 Du        
   3128 ****        90.5000  89.7500  10.7500 Du        
   3129 ****        90.5000  89.7500  11.0000 Du        
   3130 ****        90.5000  89.7500  11.2500 Du        
   3131 ****        90.5000  89.7500  11.5000 Du        
   3132 ****        90.5000  89.7500  11.7500 Du        
   3133 ****        90.5000  89.7500  12.0000 Du        
   3134 ****        90.5000  90.0000   7.2500 Du        
   3135 ****        90.5000  90.0000   7.5000 Du        
   3136 ****        90.5000  90.0000   7.7500 Du        
   3137 ****        90.5000  90.0000   8.0000 Du        
   3138 ****        90.5000  90.0000   8.2500 Du        
   3139 ****        90.5000  90.0000   8.5000 Du        
   3140 ****        90.5000  90.0000   8.7500 Du        
   3141 ****        90.5000  90.0000   9.0000 Du        
   3142 ****        90.5000  90.0000   9.2500 Du        
   3143 ****        90.5000  90.0000   9.5000 Du        
   3144 ****        90.5000  90.0000   9.7500 Du        
   3145 ****        90.5000  90.0000  10.0000 Du        
   3146 ****        90.5000  90.0000  10.2500 Du        
   3147 ****        90.5000  90.0000  10.5000 Du        
   3148 ****        90.5000  90.0000  10.7500 Du        
   3149 ****        90.5000  90.0000  11.0000 Du        
   3150 ****        90.5000  90.0000  11.2500 Du        
   3151 ****        90.5000  90.0000  11.5000 Du        
   3152 ****        90.5000  90.0000  11.7500 Du        
   3153 ****        90.5000  90.2500   7.2500 Du        
   3154 ****        90.5000  90.2500   7.5000 Du        
   3155 ****        90.5000  90.2500   7.7500 Du        
   3156 ****        90.5000  90.2500   8.0000 Du        
   3157 ****        90.5000  90.2500   8.2500 Du        
   3158 ****        90.5000  90.2500   8.5000 Du        
   3159 ****        90.5000  90.2500   8.7500 Du        
   3160 ****        90.5000  90.2500   9.0000 Du        
   3161 ****        90.5000  90.2500   9.2500 Du        
   3162 ****        90.5000  90.2500   9.5000 Du        
   3163 ****        90.5000  90.2500   9.7500 Du        
   3164 ****        90.5000  90.2500  10.0000 Du        
   3165 ****        90.5000  90.2500  10.2500 Du        
   3166 ****        90.5000  90.2500  10.5000 Du        
   3167 ****        90.5000  90.2500  10.7500 Du        
   3168 ****        90.5000  90.2500  11.0000 Du        
   3169 ****        90.5000  90.2500  11.2500 Du        
   3170 ****        90.5000  90.2500  11.5000 Du        
   3171 ****        90.5000  90.2500  11.7500 Du        
   3172 ****        90.5000  90.5000   7.2500 Du        
   3173 ****        90.5000  90.5000   7.5000 Du        
   3174 ****        90.5000  90.5000   7.7500 Du        
   3175 ****        90.5000  90.5000   8.0000 Du        
   3176 ****        90.5000  90.5000   8.2500 Du        
   3177 ****        90.5000  90.5000   8.5000 Du        
   3178 ****        90.5000  90.5000   8.7500 Du        
   3179 ****        90.5000  90.5000   9.0000 Du        
   3180 ****        90.5000  90.5000   9.2500 Du        
   3181 ****        90.5000  90.5000   9.5000 Du        
   3182 ****        90.5000  90.5000   9.7500 Du        
   3183 ****        90.5000  90.5000  10.0000 Du        
   3184 ****        90.5000  90.5000  10.2500 Du        
   3185 ****        90.5000  90.5000  10.5000 Du        
   3186 ****        90.5000  90.5000  10.7500 Du        
   3187 ****        90.5000  90.5000  11.0000 Du        
   3188 ****        90.5000  90.5000  11.2500 Du        
   3189 ****        90.5000  90.5000  11.5000 Du        
   3190 ****        90.5000  90.7500   7.5000 Du        
   3191 ****        90.5000  90.7500   7.7500 Du        
   3192 ****        90.5000  90.7500   8.0000 Du        
   3193 ****        90.5000  90.7500   8.2500 Du        
   3194 ****        90.5000  90.7500   8.5000 Du        
   3195 ****        90.5000  90.7500   8.7500 Du        
   3196 ****        90.5000  90.7500   9.0000 Du        
   3197 ****        90.5000  90.7500   9.2500 Du        
   3198 ****        90.5000  90.7500   9.5000 Du        
   3199 ****        90.5000  90.7500   9.7500 Du        
   3200 ****        90.5000  90.7500  10.0000 Du        
   3201 ****        90.5000  90.7500  10.2500 Du        
   3202 ****        90.5000  90.7500  10.5000 Du        
   3203 ****        90.5000  90.7500  10.7500 Du        
   3204 ****        90.5000  90.7500  11.0000 Du        
   3205 ****        90.5000  90.7500  11.2500 Du        
   3206 ****        90.5000  90.7500  11.5000 Du        
   3207 ****        90.5000  91.0000   7.5000 Du        
   3208 ****        90.5000  91.0000   7.7500 Du        
   3209 ****        90.5000  91.0000   8.0000 Du        
   3210 ****        90.5000  91.0000   8.2500 Du        
   3211 ****        90.5000  91.0000   8.5000 Du        
   3212 ****        90.5000  91.0000   8.7500 Du        
   3213 ****        90.5000  91.0000   9.0000 Du        
   3214 ****        90.5000  91.0000   9.2500 Du        
   3215 ****        90.5000  91.0000   9.5000 Du        
   3216 ****        90.5000  91.0000   9.7500 Du        
   3217 ****        90.5000  91.0000  10.0000 Du        
   3218 ****        90.5000  91.0000  10.2500 Du        
   3219 ****        90.5000  91.0000  10.5000 Du        
   3220 ****        90.5000  91.0000  10.7500 Du        
   3221 ****        90.5000  91.0000  11.0000 Du        
   3222 ****        90.5000  91.0000  11.2500 Du        
   3223 ****        90.5000  91.2500   7.7500 Du        
   3224 ****        90.5000  91.2500   8.0000 Du        
   3225 ****        90.5000  91.2500   8.2500 Du        
   3226 ****        90.5000  91.2500   8.5000 Du        
   3227 ****        90.5000  91.2500   8.7500 Du        
   3228 ****        90.5000  91.2500   9.0000 Du        
   3229 ****        90.5000  91.2500   9.2500 Du        
   3230 ****        90.5000  91.2500   9.5000 Du        
   3231 ****        90.5000  91.2500   9.7500 Du        
   3232 ****        90.5000  91.2500  10.0000 Du        
   3233 ****        90.5000  91.2500  10.2500 Du        
   3234 ****        90.5000  91.2500  10.5000 Du        
   3235 ****        90.5000  91.2500  10.7500 Du        
   3236 ****        90.5000  91.2500  11.0000 Du        
   3237 ****        90.5000  91.2500  11.2500 Du        
   3238 ****        90.5000  91.5000   8.0000 Du        
   3239 ****        90.5000  91.5000   8.2500 Du        
   3240 ****        90.5000  91.5000   8.5000 Du        
   3241 ****        90.5000  91.5000   8.7500 Du        
   3242 ****        90.5000  91.5000  10.7500 Du        
   3243 ****        90.5000  91.5000  11.0000 Du        
   3244 ****        90.7500  86.0000   6.5000 Du        
   3245 ****        90.7500  86.0000   6.7500 Du        
   3246 ****        90.7500  86.0000   7.0000 Du        
   3247 ****        90.7500  86.0000   7.2500 Du        
   3248 ****        90.7500  86.0000   7.5000 Du        
   3249 ****        90.7500  86.2500   6.2500 Du        
   3250 ****        90.7500  86.2500   6.5000 Du        
   3251 ****        90.7500  86.2500   6.7500 Du        
   3252 ****        90.7500  86.2500   7.0000 Du        
   3253 ****        90.7500  86.2500   7.2500 Du        
   3254 ****        90.7500  86.2500   7.5000 Du        
   3255 ****        90.7500  86.2500   7.7500 Du        
   3256 ****        90.7500  86.2500   8.0000 Du        
   3257 ****        90.7500  86.5000   6.2500 Du        
   3258 ****        90.7500  86.5000   6.5000 Du        
   3259 ****        90.7500  86.5000   6.7500 Du        
   3260 ****        90.7500  86.5000   7.0000 Du        
   3261 ****        90.7500  86.5000   7.2500 Du        
   3262 ****        90.7500  86.5000   7.5000 Du        
   3263 ****        90.7500  86.5000   7.7500 Du        
   3264 ****        90.7500  86.5000   8.0000 Du        
   3265 ****        90.7500  86.5000   8.2500 Du        
   3266 ****        90.7500  86.5000   8.5000 Du        
   3267 ****        90.7500  86.7500   6.5000 Du        
   3268 ****        90.7500  86.7500   6.7500 Du        
   3269 ****        90.7500  86.7500   7.0000 Du        
   3270 ****        90.7500  86.7500   7.2500 Du        
   3271 ****        90.7500  86.7500   7.5000 Du        
   3272 ****        90.7500  86.7500   7.7500 Du        
   3273 ****        90.7500  86.7500   8.0000 Du        
   3274 ****        90.7500  86.7500   8.2500 Du        
   3275 ****        90.7500  86.7500   8.5000 Du        
   3276 ****        90.7500  86.7500   8.7500 Du        
   3277 ****        90.7500  86.7500   9.0000 Du        
   3278 ****        90.7500  87.0000   6.5000 Du        
   3279 ****        90.7500  87.0000   6.7500 Du        
   3280 ****        90.7500  87.0000   7.0000 Du        
   3281 ****        90.7500  87.0000   7.2500 Du        
   3282 ****        90.7500  87.0000   7.5000 Du        
   3283 ****        90.7500  87.0000   7.7500 Du        
   3284 ****        90.7500  87.0000   8.0000 Du        
   3285 ****        90.7500  87.0000   8.2500 Du        
   3286 ****        90.7500  87.0000   8.5000 Du        
   3287 ****        90.7500  87.0000   8.7500 Du        
   3288 ****        90.7500  87.0000   9.0000 Du        
   3289 ****        90.7500  87.0000   9.2500 Du        
   3290 ****        90.7500  87.0000   9.5000 Du        
   3291 ****        90.7500  87.0000  10.7500 Du        
   3292 ****        90.7500  87.0000  11.0000 Du        
   3293 ****        90.7500  87.0000  11.2500 Du        
   3294 ****        90.7500  87.0000  11.5000 Du        
   3295 ****        90.7500  87.0000  11.7500 Du        
   3296 ****        90.7500  87.0000  12.0000 Du        
   3297 ****        90.7500  87.2500   6.7500 Du        
   3298 ****        90.7500  87.2500   7.0000 Du        
   3299 ****        90.7500  87.2500   7.2500 Du        
   3300 ****        90.7500  87.2500   7.5000 Du        
   3301 ****        90.7500  87.2500   7.7500 Du        
   3302 ****        90.7500  87.2500   8.0000 Du        
   3303 ****        90.7500  87.2500   8.2500 Du        
   3304 ****        90.7500  87.2500   8.5000 Du        
   3305 ****        90.7500  87.2500   8.7500 Du        
   3306 ****        90.7500  87.2500   9.0000 Du        
   3307 ****        90.7500  87.2500   9.2500 Du        
   3308 ****        90.7500  87.2500   9.5000 Du        
   3309 ****        90.7500  87.2500   9.7500 Du        
   3310 ****        90.7500  87.2500  10.0000 Du        
   3311 ****        90.7500  87.2500  10.2500 Du        
   3312 ****        90.7500  87.2500  10.5000 Du        
   3313 ****        90.7500  87.2500  10.7500 Du        
   3314 ****        90.7500  87.2500  11.0000 Du        
   3315 ****        90.7500  87.2500  11.2500 Du        
   3316 ****        90.7500  87.2500  11.5000 Du        
   3317 ****        90.7500  87.2500  11.7500 Du        
   3318 ****        90.7500  87.2500  12.0000 Du        
   3319 ****        90.7500  87.2500  12.2500 Du        
   3320 ****        90.7500  87.2500  12.5000 Du        
   3321 ****        90.7500  87.2500  12.7500 Du        
   3322 ****        90.7500  87.2500  13.0000 Du        
   3323 ****        90.7500  87.5000   7.0000 Du        
   3324 ****        90.7500  87.5000   7.2500 Du        
   3325 ****        90.7500  87.5000   7.5000 Du        
   3326 ****        90.7500  87.5000   7.7500 Du        
   3327 ****        90.7500  87.5000   8.0000 Du        
   3328 ****        90.7500  87.5000   8.2500 Du        
   3329 ****        90.7500  87.5000   8.5000 Du        
   3330 ****        90.7500  87.5000   8.7500 Du        
   3331 ****        90.7500  87.5000   9.0000 Du        
   3332 ****        90.7500  87.5000   9.2500 Du        
   3333 ****        90.7500  87.5000   9.5000 Du        
   3334 ****        90.7500  87.5000   9.7500 Du        
   3335 ****        90.7500  87.5000  10.7500 Du        
   3336 ****        90.7500  87.5000  11.0000 Du        
   3337 ****        90.7500  87.5000  11.2500 Du        
   3338 ****        90.7500  87.5000  11.5000 Du        
   3339 ****        90.7500  87.5000  11.7500 Du        
   3340 ****        90.7500  87.5000  12.0000 Du        
   3341 ****        90.7500  87.5000  12.2500 Du        
   3342 ****        90.7500  87.5000  12.5000 Du        
   3343 ****        90.7500  87.5000  12.7500 Du        
   3344 ****        90.7500  87.5000  13.0000 Du        
   3345 ****        90.7500  87.5000  13.2500 Du        
   3346 ****        90.7500  87.5000  13.5000 Du        
   3347 ****        90.7500  87.7500   7.0000 Du        
   3348 ****        90.7500  87.7500   7.2500 Du        
   3349 ****        90.7500  87.7500   7.5000 Du        
   3350 ****        90.7500  87.7500   7.7500 Du        
   3351 ****        90.7500  87.7500   8.0000 Du        
   3352 ****        90.7500  87.7500   8.2500 Du        
   3353 ****        90.7500  87.7500   8.5000 Du        
   3354 ****        90.7500  87.7500   8.7500 Du        
   3355 ****        90.7500  87.7500   9.0000 Du        
   3356 ****        90.7500  87.7500   9.2500 Du        
   3357 ****        90.7500  87.7500   9.5000 Du        
   3358 ****        90.7500  87.7500  11.0000 Du        
   3359 ****        90.7500  87.7500  11.2500 Du        
   3360 ****        90.7500  87.7500  11.5000 Du        
   3361 ****        90.7500  87.7500  11.7500 Du        
   3362 ****        90.7500  87.7500  12.0000 Du        
   3363 ****        90.7500  87.7500  12.2500 Du        
   3364 ****        90.7500  87.7500  12.5000 Du        
   3365 ****        90.7500  87.7500  12.7500 Du        
   3366 ****        90.7500  87.7500  13.0000 Du        
   3367 ****        90.7500  87.7500  13.2500 Du        
   3368 ****        90.7500  87.7500  13.5000 Du        
   3369 ****        90.7500  87.7500  13.7500 Du        
   3370 ****        90.7500  88.0000   7.0000 Du        
   3371 ****        90.7500  88.0000   7.2500 Du        
   3372 ****        90.7500  88.0000   7.5000 Du        
   3373 ****        90.7500  88.0000   7.7500 Du        
   3374 ****        90.7500  88.0000   8.0000 Du        
   3375 ****        90.7500  88.0000   8.2500 Du        
   3376 ****        90.7500  88.0000   8.5000 Du        
   3377 ****        90.7500  88.0000   8.7500 Du        
   3378 ****        90.7500  88.0000   9.0000 Du        
   3379 ****        90.7500  88.0000   9.2500 Du        
   3380 ****        90.7500  88.0000  11.2500 Du        
   3381 ****        90.7500  88.0000  11.5000 Du        
   3382 ****        90.7500  88.0000  11.7500 Du        
   3383 ****        90.7500  88.0000  12.0000 Du        
   3384 ****        90.7500  88.0000  12.2500 Du        
   3385 ****        90.7500  88.0000  12.5000 Du        
   3386 ****        90.7500  88.0000  12.7500 Du        
   3387 ****        90.7500  88.0000  13.0000 Du        
   3388 ****        90.7500  88.0000  13.2500 Du        
   3389 ****        90.7500  88.0000  13.5000 Du        
   3390 ****        90.7500  88.0000  13.7500 Du        
   3391 ****        90.7500  88.2500   7.0000 Du        
   3392 ****        90.7500  88.2500   7.2500 Du        
   3393 ****        90.7500  88.2500   7.5000 Du        
   3394 ****        90.7500  88.2500   7.7500 Du        
   3395 ****        90.7500  88.2500   8.0000 Du        
   3396 ****        90.7500  88.2500   8.2500 Du        
   3397 ****        90.7500  88.2500   8.5000 Du        
   3398 ****        90.7500  88.2500   8.7500 Du        
   3399 ****        90.7500  88.2500   9.0000 Du        
   3400 ****        90.7500  88.2500   9.2500 Du        
   3401 ****        90.7500  88.2500  11.2500 Du        
   3402 ****        90.7500  88.2500  11.5000 Du        
   3403 ****        90.7500  88.2500  11.7500 Du        
   3404 ****        90.7500  88.2500  12.0000 Du        
   3405 ****        90.7500  88.2500  12.2500 Du        
   3406 ****        90.7500  88.2500  12.5000 Du        
   3407 ****        90.7500  88.2500  12.7500 Du        
   3408 ****        90.7500  88.2500  13.0000 Du        
   3409 ****        90.7500  88.2500  13.2500 Du        
   3410 ****        90.7500  88.2500  13.5000 Du        
   3411 ****        90.7500  88.2500  13.7500 Du        
   3412 ****        90.7500  88.2500  14.0000 Du        
   3413 ****        90.7500  88.5000   7.2500 Du        
   3414 ****        90.7500  88.5000   7.5000 Du        
   3415 ****        90.7500  88.5000   7.7500 Du        
   3416 ****        90.7500  88.5000   8.0000 Du        
   3417 ****        90.7500  88.5000   8.2500 Du        
   3418 ****        90.7500  88.5000   8.5000 Du        
   3419 ****        90.7500  88.5000   8.7500 Du        
   3420 ****        90.7500  88.5000   9.0000 Du        
   3421 ****        90.7500  88.5000   9.2500 Du        
   3422 ****        90.7500  88.5000   9.5000 Du        
   3423 ****        90.7500  88.5000  11.0000 Du        
   3424 ****        90.7500  88.5000  11.2500 Du        
   3425 ****        90.7500  88.5000  11.5000 Du        
   3426 ****        90.7500  88.5000  11.7500 Du        
   3427 ****        90.7500  88.5000  12.0000 Du        
   3428 ****        90.7500  88.5000  12.2500 Du        
   3429 ****        90.7500  88.5000  12.5000 Du        
   3430 ****        90.7500  88.5000  12.7500 Du        
   3431 ****        90.7500  88.5000  13.0000 Du        
   3432 ****        90.7500  88.5000  13.2500 Du        
   3433 ****        90.7500  88.5000  13.5000 Du        
   3434 ****        90.7500  88.5000  13.7500 Du        
   3435 ****        90.7500  88.5000  14.0000 Du        
   3436 ****        90.7500  88.7500   7.2500 Du        
   3437 ****        90.7500  88.7500   7.5000 Du        
   3438 ****        90.7500  88.7500   7.7500 Du        
   3439 ****        90.7500  88.7500   8.0000 Du        
   3440 ****        90.7500  88.7500   8.2500 Du        
   3441 ****        90.7500  88.7500   8.5000 Du        
   3442 ****        90.7500  88.7500   8.7500 Du        
   3443 ****        90.7500  88.7500   9.0000 Du        
   3444 ****        90.7500  88.7500   9.2500 Du        
   3445 ****        90.7500  88.7500   9.5000 Du        
   3446 ****        90.7500  88.7500   9.7500 Du        
   3447 ****        90.7500  88.7500  10.0000 Du        
   3448 ****        90.7500  88.7500  10.7500 Du        
   3449 ****        90.7500  88.7500  11.0000 Du        
   3450 ****        90.7500  88.7500  11.2500 Du        
   3451 ****        90.7500  88.7500  11.5000 Du        
   3452 ****        90.7500  88.7500  11.7500 Du        
   3453 ****        90.7500  88.7500  12.0000 Du        
   3454 ****        90.7500  88.7500  12.2500 Du        
   3455 ****        90.7500  88.7500  12.5000 Du        
   3456 ****        90.7500  88.7500  12.7500 Du        
   3457 ****        90.7500  88.7500  13.0000 Du        
   3458 ****        90.7500  88.7500  13.2500 Du        
   3459 ****        90.7500  88.7500  13.5000 Du        
   3460 ****        90.7500  88.7500  13.7500 Du        
   3461 ****        90.7500  88.7500  14.0000 Du        
   3462 ****        90.7500  89.0000   7.2500 Du        
   3463 ****        90.7500  89.0000   7.5000 Du        
   3464 ****        90.7500  89.0000   7.7500 Du        
   3465 ****        90.7500  89.0000   8.0000 Du        
   3466 ****        90.7500  89.0000   8.2500 Du        
   3467 ****        90.7500  89.0000   8.5000 Du        
   3468 ****        90.7500  89.0000   8.7500 Du        
   3469 ****        90.7500  89.0000   9.0000 Du        
   3470 ****        90.7500  89.0000   9.2500 Du        
   3471 ****        90.7500  89.0000   9.5000 Du        
   3472 ****        90.7500  89.0000   9.7500 Du        
   3473 ****        90.7500  89.0000  10.0000 Du        
   3474 ****        90.7500  89.0000  10.2500 Du        
   3475 ****        90.7500  89.0000  10.5000 Du        
   3476 ****        90.7500  89.0000  10.7500 Du        
   3477 ****        90.7500  89.0000  11.0000 Du        
   3478 ****        90.7500  89.0000  11.2500 Du        
   3479 ****        90.7500  89.0000  11.5000 Du        
   3480 ****        90.7500  89.0000  11.7500 Du        
   3481 ****        90.7500  89.0000  12.0000 Du        
   3482 ****        90.7500  89.0000  12.2500 Du        
   3483 ****        90.7500  89.0000  12.5000 Du        
   3484 ****        90.7500  89.0000  12.7500 Du        
   3485 ****        90.7500  89.0000  13.0000 Du        
   3486 ****        90.7500  89.0000  13.2500 Du        
   3487 ****        90.7500  89.0000  13.5000 Du        
   3488 ****        90.7500  89.0000  13.7500 Du        
   3489 ****        90.7500  89.0000  14.0000 Du        
   3490 ****        90.7500  89.2500   7.2500 Du        
   3491 ****        90.7500  89.2500   7.5000 Du        
   3492 ****        90.7500  89.2500   7.7500 Du        
   3493 ****        90.7500  89.2500   8.0000 Du        
   3494 ****        90.7500  89.2500   8.2500 Du        
   3495 ****        90.7500  89.2500   8.5000 Du        
   3496 ****        90.7500  89.2500   8.7500 Du        
   3497 ****        90.7500  89.2500   9.0000 Du        
   3498 ****        90.7500  89.2500   9.2500 Du        
   3499 ****        90.7500  89.2500   9.5000 Du        
   3500 ****        90.7500  89.2500   9.7500 Du        
   3501 ****        90.7500  89.2500  10.0000 Du        
   3502 ****        90.7500  89.2500  10.2500 Du        
   3503 ****        90.7500  89.2500  10.5000 Du        
   3504 ****        90.7500  89.2500  10.7500 Du        
   3505 ****        90.7500  89.2500  11.0000 Du        
   3506 ****        90.7500  89.2500  11.2500 Du        
   3507 ****        90.7500  89.2500  11.5000 Du        
   3508 ****        90.7500  89.2500  11.7500 Du        
   3509 ****        90.7500  89.2500  12.0000 Du        
   3510 ****        90.7500  89.2500  12.2500 Du        
   3511 ****        90.7500  89.2500  12.5000 Du        
   3512 ****        90.7500  89.2500  12.7500 Du        
   3513 ****        90.7500  89.2500  13.0000 Du        
   3514 ****        90.7500  89.2500  13.2500 Du        
   3515 ****        90.7500  89.2500  13.5000 Du        
   3516 ****        90.7500  89.5000   7.2500 Du        
   3517 ****        90.7500  89.5000   7.5000 Du        
   3518 ****        90.7500  89.5000   7.7500 Du        
   3519 ****        90.7500  89.5000   8.0000 Du        
   3520 ****        90.7500  89.5000   8.2500 Du        
   3521 ****        90.7500  89.5000   8.5000 Du        
   3522 ****        90.7500  89.5000   8.7500 Du        
   3523 ****        90.7500  89.5000   9.0000 Du        
   3524 ****        90.7500  89.5000   9.2500 Du        
   3525 ****        90.7500  89.5000   9.5000 Du        
   3526 ****        90.7500  89.5000   9.7500 Du        
   3527 ****        90.7500  89.5000  10.0000 Du        
   3528 ****        90.7500  89.5000  10.2500 Du        
   3529 ****        90.7500  89.5000  10.5000 Du        
   3530 ****        90.7500  89.5000  10.7500 Du        
   3531 ****        90.7500  89.5000  11.0000 Du        
   3532 ****        90.7500  89.5000  11.2500 Du        
   3533 ****        90.7500  89.5000  11.5000 Du        
   3534 ****        90.7500  89.5000  11.7500 Du        
   3535 ****        90.7500  89.5000  12.0000 Du        
   3536 ****        90.7500  89.5000  12.2500 Du        
   3537 ****        90.7500  89.5000  12.5000 Du        
   3538 ****        90.7500  89.7500   7.2500 Du        
   3539 ****        90.7500  89.7500   7.5000 Du        
   3540 ****        90.7500  89.7500   7.7500 Du        
   3541 ****        90.7500  89.7500   8.0000 Du        
   3542 ****        90.7500  89.7500   8.2500 Du        
   3543 ****        90.7500  89.7500   8.5000 Du        
   3544 ****        90.7500  89.7500   8.7500 Du        
   3545 ****        90.7500  89.7500   9.0000 Du        
   3546 ****        90.7500  89.7500   9.2500 Du        
   3547 ****        90.7500  89.7500   9.5000 Du        
   3548 ****        90.7500  89.7500   9.7500 Du        
   3549 ****        90.7500  89.7500  10.0000 Du        
   3550 ****        90.7500  89.7500  10.2500 Du        
   3551 ****        90.7500  89.7500  10.5000 Du        
   3552 ****        90.7500  89.7500  10.7500 Du        
   3553 ****        90.7500  89.7500  11.0000 Du        
   3554 ****        90.7500  89.7500  11.2500 Du        
   3555 ****        90.7500  89.7500  11.5000 Du        
   3556 ****        90.7500  89.7500  11.7500 Du        
   3557 ****        90.7500  89.7500  12.0000 Du        
   3558 ****        90.7500  89.7500  12.2500 Du        
   3559 ****        90.7500  90.0000   7.2500 Du        
   3560 ****        90.7500  90.0000   7.5000 Du        
   3561 ****        90.7500  90.0000   7.7500 Du        
   3562 ****        90.7500  90.0000   8.0000 Du        
   3563 ****        90.7500  90.0000   8.2500 Du        
   3564 ****        90.7500  90.0000   8.5000 Du        
   3565 ****        90.7500  90.0000   8.7500 Du        
   3566 ****        90.7500  90.0000   9.0000 Du        
   3567 ****        90.7500  90.0000   9.2500 Du        
   3568 ****        90.7500  90.0000   9.5000 Du        
   3569 ****        90.7500  90.0000   9.7500 Du        
   3570 ****        90.7500  90.0000  10.0000 Du        
   3571 ****        90.7500  90.0000  10.2500 Du        
   3572 ****        90.7500  90.0000  10.5000 Du        
   3573 ****        90.7500  90.0000  10.7500 Du        
   3574 ****        90.7500  90.0000  11.0000 Du        
   3575 ****        90.7500  90.0000  11.2500 Du        
   3576 ****        90.7500  90.0000  11.5000 Du        
   3577 ****        90.7500  90.0000  11.7500 Du        
   3578 ****        90.7500  90.0000  12.0000 Du        
   3579 ****        90.7500  90.2500   7.2500 Du        
   3580 ****        90.7500  90.2500   7.5000 Du        
   3581 ****        90.7500  90.2500   7.7500 Du        
   3582 ****        90.7500  90.2500   8.0000 Du        
   3583 ****        90.7500  90.2500   8.2500 Du        
   3584 ****        90.7500  90.2500   8.5000 Du        
   3585 ****        90.7500  90.2500   8.7500 Du        
   3586 ****        90.7500  90.2500   9.0000 Du        
   3587 ****        90.7500  90.2500   9.2500 Du        
   3588 ****        90.7500  90.2500   9.5000 Du        
   3589 ****        90.7500  90.2500   9.7500 Du        
   3590 ****        90.7500  90.2500  10.0000 Du        
   3591 ****        90.7500  90.2500  10.2500 Du        
   3592 ****        90.7500  90.2500  10.5000 Du        
   3593 ****        90.7500  90.2500  10.7500 Du        
   3594 ****        90.7500  90.2500  11.0000 Du        
   3595 ****        90.7500  90.2500  11.2500 Du        
   3596 ****        90.7500  90.2500  11.5000 Du        
   3597 ****        90.7500  90.2500  11.7500 Du        
   3598 ****        90.7500  90.5000   7.5000 Du        
   3599 ****        90.7500  90.5000   7.7500 Du        
   3600 ****        90.7500  90.5000   8.0000 Du        
   3601 ****        90.7500  90.5000   8.2500 Du        
   3602 ****        90.7500  90.5000   8.5000 Du        
   3603 ****        90.7500  90.5000   8.7500 Du        
   3604 ****        90.7500  90.5000   9.0000 Du        
   3605 ****        90.7500  90.5000   9.2500 Du        
   3606 ****        90.7500  90.5000   9.5000 Du        
   3607 ****        90.7500  90.5000   9.7500 Du        
   3608 ****        90.7500  90.5000  10.0000 Du        
   3609 ****        90.7500  90.5000  10.2500 Du        
   3610 ****        90.7500  90.5000  10.5000 Du        
   3611 ****        90.7500  90.5000  10.7500 Du        
   3612 ****        90.7500  90.5000  11.0000 Du        
   3613 ****        90.7500  90.5000  11.2500 Du        
   3614 ****        90.7500  90.5000  11.5000 Du        
   3615 ****        90.7500  90.5000  11.7500 Du        
   3616 ****        90.7500  90.7500   7.5000 Du        
   3617 ****        90.7500  90.7500   7.7500 Du        
   3618 ****        90.7500  90.7500   8.0000 Du        
   3619 ****        90.7500  90.7500   8.2500 Du        
   3620 ****        90.7500  90.7500   8.5000 Du        
   3621 ****        90.7500  90.7500   8.7500 Du        
   3622 ****        90.7500  90.7500   9.0000 Du        
   3623 ****        90.7500  90.7500   9.2500 Du        
   3624 ****        90.7500  90.7500   9.5000 Du        
   3625 ****        90.7500  90.7500   9.7500 Du        
   3626 ****        90.7500  90.7500  10.0000 Du        
   3627 ****        90.7500  90.7500  10.2500 Du        
   3628 ****        90.7500  90.7500  10.5000 Du        
   3629 ****        90.7500  90.7500  10.7500 Du        
   3630 ****        90.7500  90.7500  11.0000 Du        
   3631 ****        90.7500  90.7500  11.2500 Du        
   3632 ****        90.7500  90.7500  11.5000 Du        
   3633 ****        90.7500  91.0000   7.7500 Du        
   3634 ****        90.7500  91.0000   8.0000 Du        
   3635 ****        90.7500  91.0000   8.2500 Du        
   3636 ****        90.7500  91.0000   8.5000 Du        
   3637 ****        90.7500  91.0000   8.7500 Du        
   3638 ****        90.7500  91.0000   9.0000 Du        
   3639 ****        90.7500  91.0000   9.2500 Du        
   3640 ****        90.7500  91.0000  10.0000 Du        
   3641 ****        90.7500  91.0000  10.2500 Du        
   3642 ****        90.7500  91.0000  10.5000 Du        
   3643 ****        90.7500  91.0000  10.7500 Du        
   3644 ****        90.7500  91.0000  11.0000 Du        
   3645 ****        90.7500  91.0000  11.2500 Du        
   3646 ****        90.7500  91.2500   8.0000 Du        
   3647 ****        90.7500  91.2500   8.2500 Du        
   3648 ****        90.7500  91.2500   8.5000 Du        
   3649 ****        90.7500  91.2500  10.7500 Du        
   3650 ****        90.7500  91.2500  11.0000 Du        
   3651 ****        90.7500  91.2500  11.2500 Du        
   3652 ****        91.0000  86.0000   6.5000 Du        
   3653 ****        91.0000  86.0000   6.7500 Du        
   3654 ****        91.0000  86.0000   7.0000 Du        
   3655 ****        91.0000  86.0000   7.2500 Du        
   3656 ****        91.0000  86.0000   7.5000 Du        
   3657 ****        91.0000  86.0000   7.7500 Du        
   3658 ****        91.0000  86.2500   6.5000 Du        
   3659 ****        91.0000  86.2500   6.7500 Du        
   3660 ****        91.0000  86.2500   7.0000 Du        
   3661 ****        91.0000  86.2500   7.2500 Du        
   3662 ****        91.0000  86.2500   7.5000 Du        
   3663 ****        91.0000  86.2500   7.7500 Du        
   3664 ****        91.0000  86.2500   8.0000 Du        
   3665 ****        91.0000  86.5000   6.2500 Du        
   3666 ****        91.0000  86.5000   6.5000 Du        
   3667 ****        91.0000  86.5000   6.7500 Du        
   3668 ****        91.0000  86.5000   7.0000 Du        
   3669 ****        91.0000  86.5000   7.2500 Du        
   3670 ****        91.0000  86.5000   7.5000 Du        
   3671 ****        91.0000  86.5000   7.7500 Du        
   3672 ****        91.0000  86.5000   8.0000 Du        
   3673 ****        91.0000  86.5000   8.2500 Du        
   3674 ****        91.0000  86.5000   8.5000 Du        
   3675 ****        91.0000  86.7500   6.2500 Du        
   3676 ****        91.0000  86.7500   6.5000 Du        
   3677 ****        91.0000  86.7500   6.7500 Du        
   3678 ****        91.0000  86.7500   7.0000 Du        
   3679 ****        91.0000  86.7500   7.2500 Du        
   3680 ****        91.0000  86.7500   7.5000 Du        
   3681 ****        91.0000  86.7500   7.7500 Du        
   3682 ****        91.0000  86.7500   8.0000 Du        
   3683 ****        91.0000  86.7500   8.2500 Du        
   3684 ****        91.0000  86.7500   8.5000 Du        
   3685 ****        91.0000  86.7500   8.7500 Du        
   3686 ****        91.0000  87.0000   6.5000 Du        
   3687 ****        91.0000  87.0000   6.7500 Du        
   3688 ****        91.0000  87.0000   7.0000 Du        
   3689 ****        91.0000  87.0000   7.2500 Du        
   3690 ****        91.0000  87.0000   7.5000 Du        
   3691 ****        91.0000  87.0000   7.7500 Du        
   3692 ****        91.0000  87.0000   8.0000 Du        
   3693 ****        91.0000  87.0000   8.2500 Du        
   3694 ****        91.0000  87.0000   8.5000 Du        
   3695 ****        91.0000  87.0000   8.7500 Du        
   3696 ****        91.0000  87.0000   9.0000 Du        
   3697 ****        91.0000  87.0000  11.5000 Du        
   3698 ****        91.0000  87.0000  11.7500 Du        
   3699 ****        91.0000  87.2500   6.5000 Du        
   3700 ****        91.0000  87.2500   6.7500 Du        
   3701 ****        91.0000  87.2500   7.0000 Du        
   3702 ****        91.0000  87.2500   7.2500 Du        
   3703 ****        91.0000  87.2500   7.5000 Du        
   3704 ****        91.0000  87.2500   7.7500 Du        
   3705 ****        91.0000  87.2500   8.0000 Du        
   3706 ****        91.0000  87.2500   8.2500 Du        
   3707 ****        91.0000  87.2500   8.5000 Du        
   3708 ****        91.0000  87.2500   8.7500 Du        
   3709 ****        91.0000  87.2500   9.0000 Du        
   3710 ****        91.0000  87.2500  11.2500 Du        
   3711 ****        91.0000  87.2500  11.5000 Du        
   3712 ****        91.0000  87.2500  11.7500 Du        
   3713 ****        91.0000  87.2500  12.0000 Du        
   3714 ****        91.0000  87.2500  12.2500 Du        
   3715 ****        91.0000  87.2500  12.5000 Du        
   3716 ****        91.0000  87.5000   6.7500 Du        
   3717 ****        91.0000  87.5000   7.0000 Du        
   3718 ****        91.0000  87.5000   7.2500 Du        
   3719 ****        91.0000  87.5000   7.5000 Du        
   3720 ****        91.0000  87.5000   7.7500 Du        
   3721 ****        91.0000  87.5000   8.0000 Du        
   3722 ****        91.0000  87.5000   8.2500 Du        
   3723 ****        91.0000  87.5000   8.5000 Du        
   3724 ****        91.0000  87.5000   8.7500 Du        
   3725 ****        91.0000  87.5000   9.0000 Du        
   3726 ****        91.0000  87.5000  11.5000 Du        
   3727 ****        91.0000  87.5000  11.7500 Du        
   3728 ****        91.0000  87.5000  12.0000 Du        
   3729 ****        91.0000  87.5000  12.2500 Du        
   3730 ****        91.0000  87.5000  12.5000 Du        
   3731 ****        91.0000  87.5000  12.7500 Du        
   3732 ****        91.0000  87.5000  13.0000 Du        
   3733 ****        91.0000  87.5000  13.2500 Du        
   3734 ****        91.0000  87.5000  13.5000 Du        
   3735 ****        91.0000  87.7500   6.7500 Du        
   3736 ****        91.0000  87.7500   7.0000 Du        
   3737 ****        91.0000  87.7500   7.2500 Du        
   3738 ****        91.0000  87.7500   7.5000 Du        
   3739 ****        91.0000  87.7500   7.7500 Du        
   3740 ****        91.0000  87.7500   8.0000 Du        
   3741 ****        91.0000  87.7500   8.2500 Du        
   3742 ****        91.0000  87.7500   8.5000 Du        
   3743 ****        91.0000  87.7500   8.7500 Du        
   3744 ****        91.0000  87.7500   9.0000 Du        
   3745 ****        91.0000  87.7500  11.5000 Du        
   3746 ****        91.0000  87.7500  11.7500 Du        
   3747 ****        91.0000  87.7500  12.0000 Du        
   3748 ****        91.0000  87.7500  12.2500 Du        
   3749 ****        91.0000  87.7500  12.5000 Du        
   3750 ****        91.0000  87.7500  12.7500 Du        
   3751 ****        91.0000  87.7500  13.0000 Du        
   3752 ****        91.0000  87.7500  13.2500 Du        
   3753 ****        91.0000  87.7500  13.5000 Du        
   3754 ****        91.0000  87.7500  13.7500 Du        
   3755 ****        91.0000  88.0000   6.7500 Du        
   3756 ****        91.0000  88.0000   7.0000 Du        
   3757 ****        91.0000  88.0000   7.2500 Du        
   3758 ****        91.0000  88.0000   7.5000 Du        
   3759 ****        91.0000  88.0000   7.7500 Du        
   3760 ****        91.0000  88.0000   8.0000 Du        
   3761 ****        91.0000  88.0000   8.2500 Du        
   3762 ****        91.0000  88.0000   8.5000 Du        
   3763 ****        91.0000  88.0000   8.7500 Du        
   3764 ****        91.0000  88.0000  11.5000 Du        
   3765 ****        91.0000  88.0000  11.7500 Du        
   3766 ****        91.0000  88.0000  12.0000 Du        
   3767 ****        91.0000  88.0000  12.2500 Du        
   3768 ****        91.0000  88.0000  12.5000 Du        
   3769 ****        91.0000  88.0000  12.7500 Du        
   3770 ****        91.0000  88.0000  13.0000 Du        
   3771 ****        91.0000  88.0000  13.2500 Du        
   3772 ****        91.0000  88.0000  13.5000 Du        
   3773 ****        91.0000  88.0000  13.7500 Du        
   3774 ****        91.0000  88.0000  14.0000 Du        
   3775 ****        91.0000  88.2500   7.0000 Du        
   3776 ****        91.0000  88.2500   7.2500 Du        
   3777 ****        91.0000  88.2500   7.5000 Du        
   3778 ****        91.0000  88.2500   7.7500 Du        
   3779 ****        91.0000  88.2500   8.0000 Du        
   3780 ****        91.0000  88.2500   8.2500 Du        
   3781 ****        91.0000  88.2500   8.5000 Du        
   3782 ****        91.0000  88.2500   8.7500 Du        
   3783 ****        91.0000  88.2500  11.5000 Du        
   3784 ****        91.0000  88.2500  11.7500 Du        
   3785 ****        91.0000  88.2500  12.0000 Du        
   3786 ****        91.0000  88.2500  12.2500 Du        
   3787 ****        91.0000  88.2500  12.5000 Du        
   3788 ****        91.0000  88.2500  12.7500 Du        
   3789 ****        91.0000  88.2500  13.0000 Du        
   3790 ****        91.0000  88.2500  13.2500 Du        
   3791 ****        91.0000  88.2500  13.5000 Du        
   3792 ****        91.0000  88.2500  13.7500 Du        
   3793 ****        91.0000  88.2500  14.0000 Du        
   3794 ****        91.0000  88.5000   7.0000 Du        
   3795 ****        91.0000  88.5000   7.2500 Du        
   3796 ****        91.0000  88.5000   7.5000 Du        
   3797 ****        91.0000  88.5000   7.7500 Du        
   3798 ****        91.0000  88.5000   8.0000 Du        
   3799 ****        91.0000  88.5000   8.2500 Du        
   3800 ****        91.0000  88.5000   8.5000 Du        
   3801 ****        91.0000  88.5000   8.7500 Du        
   3802 ****        91.0000  88.5000  11.7500 Du        
   3803 ****        91.0000  88.5000  12.0000 Du        
   3804 ****        91.0000  88.5000  12.2500 Du        
   3805 ****        91.0000  88.5000  12.5000 Du        
   3806 ****        91.0000  88.5000  12.7500 Du        
   3807 ****        91.0000  88.5000  13.0000 Du        
   3808 ****        91.0000  88.5000  13.2500 Du        
   3809 ****        91.0000  88.5000  13.5000 Du        
   3810 ****        91.0000  88.5000  13.7500 Du        
   3811 ****        91.0000  88.5000  14.0000 Du        
   3812 ****        91.0000  88.7500   7.2500 Du        
   3813 ****        91.0000  88.7500   7.5000 Du        
   3814 ****        91.0000  88.7500   7.7500 Du        
   3815 ****        91.0000  88.7500   8.0000 Du        
   3816 ****        91.0000  88.7500   8.2500 Du        
   3817 ****        91.0000  88.7500   8.5000 Du        
   3818 ****        91.0000  88.7500   8.7500 Du        
   3819 ****        91.0000  88.7500   9.0000 Du        
   3820 ****        91.0000  88.7500  11.5000 Du        
   3821 ****        91.0000  88.7500  11.7500 Du        
   3822 ****        91.0000  88.7500  12.0000 Du        
   3823 ****        91.0000  88.7500  12.2500 Du        
   3824 ****        91.0000  88.7500  12.5000 Du        
   3825 ****        91.0000  88.7500  12.7500 Du        
   3826 ****        91.0000  88.7500  13.0000 Du        
   3827 ****        91.0000  88.7500  13.2500 Du        
   3828 ****        91.0000  88.7500  13.5000 Du        
   3829 ****        91.0000  88.7500  13.7500 Du        
   3830 ****        91.0000  88.7500  14.0000 Du        
   3831 ****        91.0000  88.7500  14.2500 Du        
   3832 ****        91.0000  89.0000   7.2500 Du        
   3833 ****        91.0000  89.0000   7.5000 Du        
   3834 ****        91.0000  89.0000   7.7500 Du        
   3835 ****        91.0000  89.0000   8.0000 Du        
   3836 ****        91.0000  89.0000   8.2500 Du        
   3837 ****        91.0000  89.0000   8.5000 Du        
   3838 ****        91.0000  89.0000   8.7500 Du        
   3839 ****        91.0000  89.0000   9.0000 Du        
   3840 ****        91.0000  89.0000   9.2500 Du        
   3841 ****        91.0000  89.0000  11.2500 Du        
   3842 ****        91.0000  89.0000  11.5000 Du        
   3843 ****        91.0000  89.0000  11.7500 Du        
   3844 ****        91.0000  89.0000  12.0000 Du        
   3845 ****        91.0000  89.0000  12.2500 Du        
   3846 ****        91.0000  89.0000  12.5000 Du        
   3847 ****        91.0000  89.0000  12.7500 Du        
   3848 ****        91.0000  89.0000  13.0000 Du        
   3849 ****        91.0000  89.0000  13.2500 Du        
   3850 ****        91.0000  89.0000  13.5000 Du        
   3851 ****        91.0000  89.0000  13.7500 Du        
   3852 ****        91.0000  89.0000  14.0000 Du        
   3853 ****        91.0000  89.0000  14.2500 Du        
   3854 ****        91.0000  89.2500   7.2500 Du        
   3855 ****        91.0000  89.2500   7.5000 Du        
   3856 ****        91.0000  89.2500   7.7500 Du        
   3857 ****        91.0000  89.2500   8.0000 Du        
   3858 ****        91.0000  89.2500   8.2500 Du        
   3859 ****        91.0000  89.2500   8.5000 Du        
   3860 ****        91.0000  89.2500   8.7500 Du        
   3861 ****        91.0000  89.2500   9.0000 Du        
   3862 ****        91.0000  89.2500   9.2500 Du        
   3863 ****        91.0000  89.2500   9.5000 Du        
   3864 ****        91.0000  89.2500   9.7500 Du        
   3865 ****        91.0000  89.2500  11.0000 Du        
   3866 ****        91.0000  89.2500  11.2500 Du        
   3867 ****        91.0000  89.2500  11.5000 Du        
   3868 ****        91.0000  89.2500  11.7500 Du        
   3869 ****        91.0000  89.2500  12.0000 Du        
   3870 ****        91.0000  89.2500  12.2500 Du        
   3871 ****        91.0000  89.2500  12.5000 Du        
   3872 ****        91.0000  89.2500  12.7500 Du        
   3873 ****        91.0000  89.2500  13.0000 Du        
   3874 ****        91.0000  89.2500  13.2500 Du        
   3875 ****        91.0000  89.2500  13.5000 Du        
   3876 ****        91.0000  89.2500  13.7500 Du        
   3877 ****        91.0000  89.2500  14.0000 Du        
   3878 ****        91.0000  89.2500  14.2500 Du        
   3879 ****        91.0000  89.5000   7.5000 Du        
   3880 ****        91.0000  89.5000   7.7500 Du        
   3881 ****        91.0000  89.5000   8.0000 Du        
   3882 ****        91.0000  89.5000   8.2500 Du        
   3883 ****        91.0000  89.5000   8.5000 Du        
   3884 ****        91.0000  89.5000   8.7500 Du        
   3885 ****        91.0000  89.5000   9.0000 Du        
   3886 ****        91.0000  89.5000   9.2500 Du        
   3887 ****        91.0000  89.5000   9.5000 Du        
   3888 ****        91.0000  89.5000   9.7500 Du        
   3889 ****        91.0000  89.5000  10.0000 Du        
   3890 ****        91.0000  89.5000  10.2500 Du        
   3891 ****        91.0000  89.5000  10.5000 Du        
   3892 ****        91.0000  89.5000  10.7500 Du        
   3893 ****        91.0000  89.5000  11.0000 Du        
   3894 ****        91.0000  89.5000  11.2500 Du        
   3895 ****        91.0000  89.5000  11.5000 Du        
   3896 ****        91.0000  89.5000  11.7500 Du        
   3897 ****        91.0000  89.5000  12.0000 Du        
   3898 ****        91.0000  89.5000  12.2500 Du        
   3899 ****        91.0000  89.5000  12.5000 Du        
   3900 ****        91.0000  89.5000  12.7500 Du        
   3901 ****        91.0000  89.5000  13.0000 Du        
   3902 ****        91.0000  89.7500   7.5000 Du        
   3903 ****        91.0000  89.7500   7.7500 Du        
   3904 ****        91.0000  89.7500   8.0000 Du        
   3905 ****        91.0000  89.7500   8.2500 Du        
   3906 ****        91.0000  89.7500   8.5000 Du        
   3907 ****        91.0000  89.7500   8.7500 Du        
   3908 ****        91.0000  89.7500   9.0000 Du        
   3909 ****        91.0000  89.7500   9.2500 Du        
   3910 ****        91.0000  89.7500   9.5000 Du        
   3911 ****        91.0000  89.7500   9.7500 Du        
   3912 ****        91.0000  89.7500  10.0000 Du        
   3913 ****        91.0000  89.7500  10.2500 Du        
   3914 ****        91.0000  89.7500  10.5000 Du        
   3915 ****        91.0000  89.7500  10.7500 Du        
   3916 ****        91.0000  89.7500  11.0000 Du        
   3917 ****        91.0000  89.7500  11.2500 Du        
   3918 ****        91.0000  89.7500  11.5000 Du        
   3919 ****        91.0000  89.7500  11.7500 Du        
   3920 ****        91.0000  89.7500  12.0000 Du        
   3921 ****        91.0000  89.7500  12.2500 Du        
   3922 ****        91.0000  89.7500  12.5000 Du        
   3923 ****        91.0000  90.0000   7.5000 Du        
   3924 ****        91.0000  90.0000   7.7500 Du        
   3925 ****        91.0000  90.0000   8.0000 Du        
   3926 ****        91.0000  90.0000   8.2500 Du        
   3927 ****        91.0000  90.0000   8.5000 Du        
   3928 ****        91.0000  90.0000   8.7500 Du        
   3929 ****        91.0000  90.0000   9.0000 Du        
   3930 ****        91.0000  90.0000   9.2500 Du        
   3931 ****        91.0000  90.0000   9.5000 Du        
   3932 ****        91.0000  90.0000   9.7500 Du        
   3933 ****        91.0000  90.0000  10.0000 Du        
   3934 ****        91.0000  90.0000  10.2500 Du        
   3935 ****        91.0000  90.0000  10.5000 Du        
   3936 ****        91.0000  90.0000  10.7500 Du        
   3937 ****        91.0000  90.0000  11.0000 Du        
   3938 ****        91.0000  90.0000  11.2500 Du        
   3939 ****        91.0000  90.0000  11.5000 Du        
   3940 ****        91.0000  90.0000  11.7500 Du        
   3941 ****        91.0000  90.0000  12.0000 Du        
   3942 ****        91.0000  90.0000  12.2500 Du        
   3943 ****        91.0000  90.2500   7.5000 Du        
   3944 ****        91.0000  90.2500   7.7500 Du        
   3945 ****        91.0000  90.2500   8.0000 Du        
   3946 ****        91.0000  90.2500   8.2500 Du        
   3947 ****        91.0000  90.2500   8.5000 Du        
   3948 ****        91.0000  90.2500   8.7500 Du        
   3949 ****        91.0000  90.2500   9.0000 Du        
   3950 ****        91.0000  90.2500   9.2500 Du        
   3951 ****        91.0000  90.2500   9.5000 Du        
   3952 ****        91.0000  90.2500   9.7500 Du        
   3953 ****        91.0000  90.2500  10.0000 Du        
   3954 ****        91.0000  90.2500  10.2500 Du        
   3955 ****        91.0000  90.2500  10.5000 Du        
   3956 ****        91.0000  90.2500  10.7500 Du        
   3957 ****        91.0000  90.2500  11.0000 Du        
   3958 ****        91.0000  90.2500  11.2500 Du        
   3959 ****        91.0000  90.2500  11.5000 Du        
   3960 ****        91.0000  90.2500  11.7500 Du        
   3961 ****        91.0000  90.2500  12.0000 Du        
   3962 ****        91.0000  90.5000   7.5000 Du        
   3963 ****        91.0000  90.5000   7.7500 Du        
   3964 ****        91.0000  90.5000   8.0000 Du        
   3965 ****        91.0000  90.5000   8.2500 Du        
   3966 ****        91.0000  90.5000   8.5000 Du        
   3967 ****        91.0000  90.5000   8.7500 Du        
   3968 ****        91.0000  90.5000   9.0000 Du        
   3969 ****        91.0000  90.5000   9.2500 Du        
   3970 ****        91.0000  90.5000   9.5000 Du        
   3971 ****        91.0000  90.5000   9.7500 Du        
   3972 ****        91.0000  90.5000  10.0000 Du        
   3973 ****        91.0000  90.5000  10.2500 Du        
   3974 ****        91.0000  90.5000  10.5000 Du        
   3975 ****        91.0000  90.5000  10.7500 Du        
   3976 ****        91.0000  90.5000  11.0000 Du        
   3977 ****        91.0000  90.5000  11.2500 Du        
   3978 ****        91.0000  90.5000  11.5000 Du        
   3979 ****        91.0000  90.5000  11.7500 Du        
   3980 ****        91.0000  90.7500   7.7500 Du        
   3981 ****        91.0000  90.7500   8.0000 Du        
   3982 ****        91.0000  90.7500   8.2500 Du        
   3983 ****        91.0000  90.7500   8.5000 Du        
   3984 ****        91.0000  90.7500   8.7500 Du        
   3985 ****        91.0000  90.7500   9.0000 Du        
   3986 ****        91.0000  90.7500   9.2500 Du        
   3987 ****        91.0000  90.7500  10.2500 Du        
   3988 ****        91.0000  90.7500  10.5000 Du        
   3989 ****        91.0000  90.7500  10.7500 Du        
   3990 ****        91.0000  90.7500  11.0000 Du        
   3991 ****        91.0000  90.7500  11.2500 Du        
   3992 ****        91.0000  90.7500  11.5000 Du        
   3993 ****        91.0000  91.0000   8.0000 Du        
   3994 ****        91.0000  91.0000   8.2500 Du        
   3995 ****        91.0000  91.0000   8.5000 Du        
   3996 ****        91.0000  91.0000  11.0000 Du        
   3997 ****        91.0000  91.0000  11.2500 Du        
   3998 ****        91.2500  86.0000   6.7500 Du        
   3999 ****        91.2500  86.0000   7.0000 Du        
   4000 ****        91.2500  86.0000   7.2500 Du        
   4001 ****        91.2500  86.0000   7.5000 Du        
   4002 ****        91.2500  86.2500   6.5000 Du        
   4003 ****        91.2500  86.2500   6.7500 Du        
   4004 ****        91.2500  86.2500   7.0000 Du        
   4005 ****        91.2500  86.2500   7.2500 Du        
   4006 ****        91.2500  86.2500   7.5000 Du        
   4007 ****        91.2500  86.2500   7.7500 Du        
   4008 ****        91.2500  86.2500   8.0000 Du        
   4009 ****        91.2500  86.5000   6.5000 Du        
   4010 ****        91.2500  86.5000   6.7500 Du        
   4011 ****        91.2500  86.5000   7.0000 Du        
   4012 ****        91.2500  86.5000   7.2500 Du        
   4013 ****        91.2500  86.5000   7.5000 Du        
   4014 ****        91.2500  86.5000   7.7500 Du        
   4015 ****        91.2500  86.5000   8.0000 Du        
   4016 ****        91.2500  86.5000   8.2500 Du        
   4017 ****        91.2500  86.7500   6.5000 Du        
   4018 ****        91.2500  86.7500   6.7500 Du        
   4019 ****        91.2500  86.7500   7.0000 Du        
   4020 ****        91.2500  86.7500   7.2500 Du        
   4021 ****        91.2500  86.7500   7.5000 Du        
   4022 ****        91.2500  86.7500   7.7500 Du        
   4023 ****        91.2500  86.7500   8.0000 Du        
   4024 ****        91.2500  86.7500   8.2500 Du        
   4025 ****        91.2500  86.7500   8.5000 Du        
   4026 ****        91.2500  87.0000   6.7500 Du        
   4027 ****        91.2500  87.0000   7.0000 Du        
   4028 ****        91.2500  87.0000   7.2500 Du        
   4029 ****        91.2500  87.0000   7.5000 Du        
   4030 ****        91.2500  87.0000   7.7500 Du        
   4031 ****        91.2500  87.0000   8.0000 Du        
   4032 ****        91.2500  87.0000   8.2500 Du        
   4033 ****        91.2500  87.0000   8.5000 Du        
   4034 ****        91.2500  87.0000   8.7500 Du        
   4035 ****        91.2500  87.2500   6.7500 Du        
   4036 ****        91.2500  87.2500   7.0000 Du        
   4037 ****        91.2500  87.2500   7.2500 Du        
   4038 ****        91.2500  87.2500   7.5000 Du        
   4039 ****        91.2500  87.2500   7.7500 Du        
   4040 ****        91.2500  87.2500   8.0000 Du        
   4041 ****        91.2500  87.2500   8.2500 Du        
   4042 ****        91.2500  87.2500   8.5000 Du        
   4043 ****        91.2500  87.5000   6.7500 Du        
   4044 ****        91.2500  87.5000   7.0000 Du        
   4045 ****        91.2500  87.5000   7.2500 Du        
   4046 ****        91.2500  87.5000   7.5000 Du        
   4047 ****        91.2500  87.5000   7.7500 Du        
   4048 ****        91.2500  87.5000   8.0000 Du        
   4049 ****        91.2500  87.5000   8.2500 Du        
   4050 ****        91.2500  87.5000   8.5000 Du        
   4051 ****        91.2500  87.5000  12.0000 Du        
   4052 ****        91.2500  87.5000  12.2500 Du        
   4053 ****        91.2500  87.5000  12.5000 Du        
   4054 ****        91.2500  87.5000  12.7500 Du        
   4055 ****        91.2500  87.5000  13.0000 Du        
   4056 ****        91.2500  87.5000  13.2500 Du        
   4057 ****        91.2500  87.7500   6.7500 Du        
   4058 ****        91.2500  87.7500   7.0000 Du        
   4059 ****        91.2500  87.7500   7.2500 Du        
   4060 ****        91.2500  87.7500   7.5000 Du        
   4061 ****        91.2500  87.7500   7.7500 Du        
   4062 ****        91.2500  87.7500   8.0000 Du        
   4063 ****        91.2500  87.7500   8.2500 Du        
   4064 ****        91.2500  87.7500   8.5000 Du        
   4065 ****        91.2500  87.7500  12.0000 Du        
   4066 ****        91.2500  87.7500  12.2500 Du        
   4067 ****        91.2500  87.7500  12.5000 Du        
   4068 ****        91.2500  87.7500  12.7500 Du        
   4069 ****        91.2500  87.7500  13.0000 Du        
   4070 ****        91.2500  87.7500  13.2500 Du        
   4071 ****        91.2500  87.7500  13.5000 Du        
   4072 ****        91.2500  87.7500  13.7500 Du        
   4073 ****        91.2500  88.0000   7.0000 Du        
   4074 ****        91.2500  88.0000   7.2500 Du        
   4075 ****        91.2500  88.0000   7.5000 Du        
   4076 ****        91.2500  88.0000   7.7500 Du        
   4077 ****        91.2500  88.0000   8.0000 Du        
   4078 ****        91.2500  88.0000   8.2500 Du        
   4079 ****        91.2500  88.0000   8.5000 Du        
   4080 ****        91.2500  88.0000  12.0000 Du        
   4081 ****        91.2500  88.0000  12.2500 Du        
   4082 ****        91.2500  88.0000  12.5000 Du        
   4083 ****        91.2500  88.0000  12.7500 Du        
   4084 ****        91.2500  88.0000  13.0000 Du        
   4085 ****        91.2500  88.0000  13.2500 Du        
   4086 ****        91.2500  88.0000  13.5000 Du        
   4087 ****        91.2500  88.0000  13.7500 Du        
   4088 ****        91.2500  88.0000  14.0000 Du        
   4089 ****        91.2500  88.2500   7.0000 Du        
   4090 ****        91.2500  88.2500   7.2500 Du        
   4091 ****        91.2500  88.2500   7.5000 Du        
   4092 ****        91.2500  88.2500   7.7500 Du        
   4093 ****        91.2500  88.2500   8.0000 Du        
   4094 ****        91.2500  88.2500   8.2500 Du        
   4095 ****        91.2500  88.2500   8.5000 Du        
   4096 ****        91.2500  88.2500  12.0000 Du        
   4097 ****        91.2500  88.2500  12.2500 Du        
   4098 ****        91.2500  88.2500  12.5000 Du        
   4099 ****        91.2500  88.2500  12.7500 Du        
   4100 ****        91.2500  88.2500  13.0000 Du        
   4101 ****        91.2500  88.2500  13.2500 Du        
   4102 ****        91.2500  88.2500  13.5000 Du        
   4103 ****        91.2500  88.2500  13.7500 Du        
   4104 ****        91.2500  88.2500  14.0000 Du        
   4105 ****        91.2500  88.2500  14.2500 Du        
   4106 ****        91.2500  88.5000   7.2500 Du        
   4107 ****        91.2500  88.5000   7.5000 Du        
   4108 ****        91.2500  88.5000   7.7500 Du        
   4109 ****        91.2500  88.5000   8.0000 Du        
   4110 ****        91.2500  88.5000   8.2500 Du        
   4111 ****        91.2500  88.5000  12.0000 Du        
   4112 ****        91.2500  88.5000  12.2500 Du        
   4113 ****        91.2500  88.5000  12.5000 Du        
   4114 ****        91.2500  88.5000  12.7500 Du        
   4115 ****        91.2500  88.5000  13.0000 Du        
   4116 ****        91.2500  88.5000  13.2500 Du        
   4117 ****        91.2500  88.5000  13.5000 Du        
   4118 ****        91.2500  88.5000  13.7500 Du        
   4119 ****        91.2500  88.5000  14.0000 Du        
   4120 ****        91.2500  88.5000  14.2500 Du        
   4121 ****        91.2500  88.7500   7.2500 Du        
   4122 ****        91.2500  88.7500   7.5000 Du        
   4123 ****        91.2500  88.7500   7.7500 Du        
   4124 ****        91.2500  88.7500   8.0000 Du        
   4125 ****        91.2500  88.7500   8.2500 Du        
   4126 ****        91.2500  88.7500   8.5000 Du        
   4127 ****        91.2500  88.7500  11.7500 Du        
   4128 ****        91.2500  88.7500  12.0000 Du        
   4129 ****        91.2500  88.7500  12.2500 Du        
   4130 ****        91.2500  88.7500  12.5000 Du        
   4131 ****        91.2500  88.7500  12.7500 Du        
   4132 ****        91.2500  88.7500  13.0000 Du        
   4133 ****        91.2500  88.7500  13.2500 Du        
   4134 ****        91.2500  88.7500  13.5000 Du        
   4135 ****        91.2500  88.7500  13.7500 Du        
   4136 ****        91.2500  88.7500  14.0000 Du        
   4137 ****        91.2500  88.7500  14.2500 Du        
   4138 ****        91.2500  89.0000   7.5000 Du        
   4139 ****        91.2500  89.0000   7.7500 Du        
   4140 ****        91.2500  89.0000   8.0000 Du        
   4141 ****        91.2500  89.0000   8.2500 Du        
   4142 ****        91.2500  89.0000   8.5000 Du        
   4143 ****        91.2500  89.0000   8.7500 Du        
   4144 ****        91.2500  89.0000  11.7500 Du        
   4145 ****        91.2500  89.0000  12.0000 Du        
   4146 ****        91.2500  89.0000  12.2500 Du        
   4147 ****        91.2500  89.0000  12.5000 Du        
   4148 ****        91.2500  89.0000  12.7500 Du        
   4149 ****        91.2500  89.0000  13.0000 Du        
   4150 ****        91.2500  89.0000  13.2500 Du        
   4151 ****        91.2500  89.0000  13.5000 Du        
   4152 ****        91.2500  89.0000  13.7500 Du        
   4153 ****        91.2500  89.0000  14.0000 Du        
   4154 ****        91.2500  89.0000  14.2500 Du        
   4155 ****        91.2500  89.0000  14.5000 Du        
   4156 ****        91.2500  89.2500   7.5000 Du        
   4157 ****        91.2500  89.2500   7.7500 Du        
   4158 ****        91.2500  89.2500   8.0000 Du        
   4159 ****        91.2500  89.2500   8.2500 Du        
   4160 ****        91.2500  89.2500   8.5000 Du        
   4161 ****        91.2500  89.2500   8.7500 Du        
   4162 ****        91.2500  89.2500  11.5000 Du        
   4163 ****        91.2500  89.2500  11.7500 Du        
   4164 ****        91.2500  89.2500  12.0000 Du        
   4165 ****        91.2500  89.2500  12.2500 Du        
   4166 ****        91.2500  89.2500  12.5000 Du        
   4167 ****        91.2500  89.2500  12.7500 Du        
   4168 ****        91.2500  89.2500  13.0000 Du        
   4169 ****        91.2500  89.2500  13.2500 Du        
   4170 ****        91.2500  89.2500  13.5000 Du        
   4171 ****        91.2500  89.2500  13.7500 Du        
   4172 ****        91.2500  89.2500  14.0000 Du        
   4173 ****        91.2500  89.2500  14.2500 Du        
   4174 ****        91.2500  89.2500  14.5000 Du        
   4175 ****        91.2500  89.5000   7.7500 Du        
   4176 ****        91.2500  89.5000   8.0000 Du        
   4177 ****        91.2500  89.5000   8.2500 Du        
   4178 ****        91.2500  89.5000   8.5000 Du        
   4179 ****        91.2500  89.5000   8.7500 Du        
   4180 ****        91.2500  89.5000   9.0000 Du        
   4181 ****        91.2500  89.5000   9.2500 Du        
   4182 ****        91.2500  89.5000  11.2500 Du        
   4183 ****        91.2500  89.5000  11.5000 Du        
   4184 ****        91.2500  89.5000  11.7500 Du        
   4185 ****        91.2500  89.5000  12.0000 Du        
   4186 ****        91.2500  89.5000  12.2500 Du        
   4187 ****        91.2500  89.5000  12.5000 Du        
   4188 ****        91.2500  89.5000  12.7500 Du        
   4189 ****        91.2500  89.5000  13.0000 Du        
   4190 ****        91.2500  89.5000  13.2500 Du        
   4191 ****        91.2500  89.5000  13.5000 Du        
   4192 ****        91.2500  89.5000  13.7500 Du        
   4193 ****        91.2500  89.5000  14.0000 Du        
   4194 ****        91.2500  89.7500   7.7500 Du        
   4195 ****        91.2500  89.7500   8.0000 Du        
   4196 ****        91.2500  89.7500   8.2500 Du        
   4197 ****        91.2500  89.7500   8.5000 Du        
   4198 ****        91.2500  89.7500   8.7500 Du        
   4199 ****        91.2500  89.7500   9.0000 Du        
   4200 ****        91.2500  89.7500   9.2500 Du        
   4201 ****        91.2500  89.7500   9.5000 Du        
   4202 ****        91.2500  89.7500   9.7500 Du        
   4203 ****        91.2500  89.7500  10.0000 Du        
   4204 ****        91.2500  89.7500  10.5000 Du        
   4205 ****        91.2500  89.7500  10.7500 Du        
   4206 ****        91.2500  89.7500  11.0000 Du        
   4207 ****        91.2500  89.7500  11.2500 Du        
   4208 ****        91.2500  89.7500  11.5000 Du        
   4209 ****        91.2500  89.7500  11.7500 Du        
   4210 ****        91.2500  89.7500  12.0000 Du        
   4211 ****        91.2500  89.7500  12.2500 Du        
   4212 ****        91.2500  89.7500  12.5000 Du        
   4213 ****        91.2500  89.7500  12.7500 Du        
   4214 ****        91.2500  90.0000   7.7500 Du        
   4215 ****        91.2500  90.0000   8.0000 Du        
   4216 ****        91.2500  90.0000   8.2500 Du        
   4217 ****        91.2500  90.0000   8.5000 Du        
   4218 ****        91.2500  90.0000   8.7500 Du        
   4219 ****        91.2500  90.0000   9.0000 Du        
   4220 ****        91.2500  90.0000   9.2500 Du        
   4221 ****        91.2500  90.0000   9.5000 Du        
   4222 ****        91.2500  90.0000   9.7500 Du        
   4223 ****        91.2500  90.0000  10.0000 Du        
   4224 ****        91.2500  90.0000  10.2500 Du        
   4225 ****        91.2500  90.0000  10.5000 Du        
   4226 ****        91.2500  90.0000  10.7500 Du        
   4227 ****        91.2500  90.0000  11.0000 Du        
   4228 ****        91.2500  90.0000  11.2500 Du        
   4229 ****        91.2500  90.0000  11.5000 Du        
   4230 ****        91.2500  90.0000  11.7500 Du        
   4231 ****        91.2500  90.0000  12.0000 Du        
   4232 ****        91.2500  90.0000  12.2500 Du        
   4233 ****        91.2500  90.0000  12.5000 Du        
   4234 ****        91.2500  90.2500   7.7500 Du        
   4235 ****        91.2500  90.2500   8.0000 Du        
   4236 ****        91.2500  90.2500   8.2500 Du        
   4237 ****        91.2500  90.2500   8.5000 Du        
   4238 ****        91.2500  90.2500   8.7500 Du        
   4239 ****        91.2500  90.2500   9.0000 Du        
   4240 ****        91.2500  90.2500   9.2500 Du        
   4241 ****        91.2500  90.2500   9.5000 Du        
   4242 ****        91.2500  90.2500   9.7500 Du        
   4243 ****        91.2500  90.2500  10.0000 Du        
   4244 ****        91.2500  90.2500  10.2500 Du        
   4245 ****        91.2500  90.2500  10.5000 Du        
   4246 ****        91.2500  90.2500  10.7500 Du        
   4247 ****        91.2500  90.2500  11.0000 Du        
   4248 ****        91.2500  90.2500  11.2500 Du        
   4249 ****        91.2500  90.2500  11.5000 Du        
   4250 ****        91.2500  90.2500  11.7500 Du        
   4251 ****        91.2500  90.2500  12.0000 Du        
   4252 ****        91.2500  90.5000   7.7500 Du        
   4253 ****        91.2500  90.5000   8.0000 Du        
   4254 ****        91.2500  90.5000   8.2500 Du        
   4255 ****        91.2500  90.5000   8.5000 Du        
   4256 ****        91.2500  90.5000   8.7500 Du        
   4257 ****        91.2500  90.5000   9.0000 Du        
   4258 ****        91.2500  90.5000   9.2500 Du        
   4259 ****        91.2500  90.5000  10.2500 Du        
   4260 ****        91.2500  90.5000  10.5000 Du        
   4261 ****        91.2500  90.5000  10.7500 Du        
   4262 ****        91.2500  90.5000  11.0000 Du        
   4263 ****        91.2500  90.5000  11.2500 Du        
   4264 ****        91.2500  90.5000  11.5000 Du        
   4265 ****        91.2500  90.5000  11.7500 Du        
   4266 ****        91.2500  90.7500   8.0000 Du        
   4267 ****        91.2500  90.7500   8.2500 Du        
   4268 ****        91.2500  90.7500   8.5000 Du        
   4269 ****        91.2500  90.7500  11.0000 Du        
   4270 ****        91.2500  90.7500  11.2500 Du        
   4271 ****        91.2500  90.7500  11.5000 Du        
   4272 ****        91.2500  90.7500  11.7500 Du        
   4273 ****        91.5000  86.2500   7.0000 Du        
   4274 ****        91.5000  86.2500   7.2500 Du        
   4275 ****        91.5000  86.2500   7.5000 Du        
   4276 ****        91.5000  86.2500   7.7500 Du        
   4277 ****        91.5000  86.5000   7.0000 Du        
   4278 ****        91.5000  86.5000   7.2500 Du        
   4279 ****        91.5000  86.5000   7.5000 Du        
   4280 ****        91.5000  86.5000   7.7500 Du        
   4281 ****        91.5000  86.5000   8.0000 Du        
   4282 ****        91.5000  86.5000   8.2500 Du        
   4283 ****        91.5000  86.7500   7.0000 Du        
   4284 ****        91.5000  86.7500   7.2500 Du        
   4285 ****        91.5000  86.7500   7.5000 Du        
   4286 ****        91.5000  86.7500   7.7500 Du        
   4287 ****        91.5000  86.7500   8.0000 Du        
   4288 ****        91.5000  86.7500   8.2500 Du        
   4289 ****        91.5000  87.0000   7.0000 Du        
   4290 ****        91.5000  87.0000   7.2500 Du        
   4291 ****        91.5000  87.0000   7.5000 Du        
   4292 ****        91.5000  87.0000   7.7500 Du        
   4293 ****        91.5000  87.0000   8.0000 Du        
   4294 ****        91.5000  87.0000   8.2500 Du        
   4295 ****        91.5000  87.2500   7.0000 Du        
   4296 ****        91.5000  87.2500   7.2500 Du        
   4297 ****        91.5000  87.2500   7.5000 Du        
   4298 ****        91.5000  87.2500   7.7500 Du        
   4299 ****        91.5000  87.2500   8.0000 Du        
   4300 ****        91.5000  87.2500   8.2500 Du        
   4301 ****        91.5000  87.5000   7.2500 Du        
   4302 ****        91.5000  87.5000   7.5000 Du        
   4303 ****        91.5000  87.5000   7.7500 Du        
   4304 ****        91.5000  87.5000   8.0000 Du        
   4305 ****        91.5000  87.7500   7.2500 Du        
   4306 ****        91.5000  87.7500   7.5000 Du        
   4307 ****        91.5000  87.7500   7.7500 Du        
   4308 ****        91.5000  87.7500   8.0000 Du        
   4309 ****        91.5000  88.0000   7.2500 Du        
   4310 ****        91.5000  88.0000   7.5000 Du        
   4311 ****        91.5000  88.0000   7.7500 Du        
   4312 ****        91.5000  88.0000   8.0000 Du        
   4313 ****        91.5000  88.0000  13.0000 Du        
   4314 ****        91.5000  88.0000  13.2500 Du        
   4315 ****        91.5000  88.0000  13.5000 Du        
   4316 ****        91.5000  88.0000  13.7500 Du        
   4317 ****        91.5000  88.2500   7.2500 Du        
   4318 ****        91.5000  88.2500   7.5000 Du        
   4319 ****        91.5000  88.2500   7.7500 Du        
   4320 ****        91.5000  88.2500   8.0000 Du        
   4321 ****        91.5000  88.2500  12.7500 Du        
   4322 ****        91.5000  88.2500  13.0000 Du        
   4323 ****        91.5000  88.2500  13.2500 Du        
   4324 ****        91.5000  88.2500  13.5000 Du        
   4325 ****        91.5000  88.2500  13.7500 Du        
   4326 ****        91.5000  88.2500  14.0000 Du        
   4327 ****        91.5000  88.2500  14.2500 Du        
   4328 ****        91.5000  88.5000   7.5000 Du        
   4329 ****        91.5000  88.5000   7.7500 Du        
   4330 ****        91.5000  88.5000   8.0000 Du        
   4331 ****        91.5000  88.5000  12.7500 Du        
   4332 ****        91.5000  88.5000  13.0000 Du        
   4333 ****        91.5000  88.5000  13.2500 Du        
   4334 ****        91.5000  88.5000  13.5000 Du        
   4335 ****        91.5000  88.5000  13.7500 Du        
   4336 ****        91.5000  88.5000  14.0000 Du        
   4337 ****        91.5000  88.5000  14.2500 Du        
   4338 ****        91.5000  88.7500   7.7500 Du        
   4339 ****        91.5000  88.7500   8.0000 Du        
   4340 ****        91.5000  88.7500  12.2500 Du        
   4341 ****        91.5000  88.7500  12.5000 Du        
   4342 ****        91.5000  88.7500  12.7500 Du        
   4343 ****        91.5000  88.7500  13.0000 Du        
   4344 ****        91.5000  88.7500  13.2500 Du        
   4345 ****        91.5000  88.7500  13.5000 Du        
   4346 ****        91.5000  88.7500  13.7500 Du        
   4347 ****        91.5000  88.7500  14.0000 Du        
   4348 ****        91.5000  88.7500  14.2500 Du        
   4349 ****        91.5000  88.7500  14.5000 Du        
   4350 ****        91.5000  89.0000   7.7500 Du        
   4351 ****        91.5000  89.0000   8.0000 Du        
   4352 ****        91.5000  89.0000   8.2500 Du        
   4353 ****        91.5000  89.0000  12.0000 Du        
   4354 ****        91.5000  89.0000  12.2500 Du        
   4355 ****        91.5000  89.0000  12.5000 Du        
   4356 ****        91.5000  89.0000  12.7500 Du        
   4357 ****        91.5000  89.0000  13.0000 Du        
   4358 ****        91.5000  89.0000  13.2500 Du        
   4359 ****        91.5000  89.0000  13.5000 Du        
   4360 ****        91.5000  89.0000  13.7500 Du        
   4361 ****        91.5000  89.0000  14.0000 Du        
   4362 ****        91.5000  89.0000  14.2500 Du        
   4363 ****        91.5000  89.0000  14.5000 Du        
   4364 ****        91.5000  89.0000  14.7500 Du        
   4365 ****        91.5000  89.2500   8.0000 Du        
   4366 ****        91.5000  89.2500   8.2500 Du        
   4367 ****        91.5000  89.2500  12.0000 Du        
   4368 ****        91.5000  89.2500  12.2500 Du        
   4369 ****        91.5000  89.2500  12.5000 Du        
   4370 ****        91.5000  89.2500  12.7500 Du        
   4371 ****        91.5000  89.2500  13.0000 Du        
   4372 ****        91.5000  89.2500  13.2500 Du        
   4373 ****        91.5000  89.2500  13.5000 Du        
   4374 ****        91.5000  89.2500  13.7500 Du        
   4375 ****        91.5000  89.2500  14.0000 Du        
   4376 ****        91.5000  89.2500  14.2500 Du        
   4377 ****        91.5000  89.2500  14.5000 Du        
   4378 ****        91.5000  89.2500  14.7500 Du        
   4379 ****        91.5000  89.5000   8.0000 Du        
   4380 ****        91.5000  89.5000   8.2500 Du        
   4381 ****        91.5000  89.5000   8.5000 Du        
   4382 ****        91.5000  89.5000   8.7500 Du        
   4383 ****        91.5000  89.5000  11.7500 Du        
   4384 ****        91.5000  89.5000  12.0000 Du        
   4385 ****        91.5000  89.5000  12.2500 Du        
   4386 ****        91.5000  89.5000  12.5000 Du        
   4387 ****        91.5000  89.5000  12.7500 Du        
   4388 ****        91.5000  89.5000  13.0000 Du        
   4389 ****        91.5000  89.5000  13.2500 Du        
   4390 ****        91.5000  89.5000  13.5000 Du        
   4391 ****        91.5000  89.5000  13.7500 Du        
   4392 ****        91.5000  89.5000  14.0000 Du        
   4393 ****        91.5000  89.5000  14.2500 Du        
   4394 ****        91.5000  89.5000  14.5000 Du        
   4395 ****        91.5000  89.5000  14.7500 Du        
   4396 ****        91.5000  89.5000  15.0000 Du        
   4397 ****        91.5000  89.7500   8.0000 Du        
   4398 ****        91.5000  89.7500   8.2500 Du        
   4399 ****        91.5000  89.7500   8.5000 Du        
   4400 ****        91.5000  89.7500   8.7500 Du        
   4401 ****        91.5000  89.7500   9.0000 Du        
   4402 ****        91.5000  89.7500  11.5000 Du        
   4403 ****        91.5000  89.7500  11.7500 Du        
   4404 ****        91.5000  89.7500  12.0000 Du        
   4405 ****        91.5000  89.7500  12.2500 Du        
   4406 ****        91.5000  89.7500  12.5000 Du        
   4407 ****        91.5000  89.7500  12.7500 Du        
   4408 ****        91.5000  89.7500  13.0000 Du        
   4409 ****        91.5000  89.7500  13.2500 Du        
   4410 ****        91.5000  90.0000   8.0000 Du        
   4411 ****        91.5000  90.0000   8.2500 Du        
   4412 ****        91.5000  90.0000   8.5000 Du        
   4413 ****        91.5000  90.0000   8.7500 Du        
   4414 ****        91.5000  90.0000   9.0000 Du        
   4415 ****        91.5000  90.0000   9.2500 Du        
   4416 ****        91.5000  90.0000  11.0000 Du        
   4417 ****        91.5000  90.0000  11.2500 Du        
   4418 ****        91.5000  90.0000  11.5000 Du        
   4419 ****        91.5000  90.0000  11.7500 Du        
   4420 ****        91.5000  90.0000  12.0000 Du        
   4421 ****        91.5000  90.0000  12.2500 Du        
   4422 ****        91.5000  90.0000  12.5000 Du        
   4423 ****        91.5000  90.0000  12.7500 Du        
   4424 ****        91.5000  90.2500   8.0000 Du        
   4425 ****        91.5000  90.2500   8.2500 Du        
   4426 ****        91.5000  90.2500   8.5000 Du        
   4427 ****        91.5000  90.2500   8.7500 Du        
   4428 ****        91.5000  90.2500   9.0000 Du        
   4429 ****        91.5000  90.2500   9.2500 Du        
   4430 ****        91.5000  90.2500  10.7500 Du        
   4431 ****        91.5000  90.2500  11.0000 Du        
   4432 ****        91.5000  90.2500  11.2500 Du        
   4433 ****        91.5000  90.2500  11.5000 Du        
   4434 ****        91.5000  90.2500  11.7500 Du        
   4435 ****        91.5000  90.2500  12.0000 Du        
   4436 ****        91.5000  90.2500  12.2500 Du        
   4437 ****        91.5000  90.5000   8.2500 Du        
   4438 ****        91.5000  90.5000   8.5000 Du        
   4439 ****        91.5000  90.5000   8.7500 Du        
   4440 ****        91.5000  90.5000  11.0000 Du        
   4441 ****        91.5000  90.5000  11.2500 Du        
   4442 ****        91.5000  90.5000  11.5000 Du        
   4443 ****        91.5000  90.5000  11.7500 Du        
   4444 ****        91.5000  90.5000  12.0000 Du        
   4445 ****        91.7500  86.5000   7.2500 Du        
   4446 ****        91.7500  86.5000   7.5000 Du        
   4447 ****        91.7500  86.5000   7.7500 Du        
   4448 ****        91.7500  86.7500   7.2500 Du        
   4449 ****        91.7500  86.7500   7.5000 Du        
   4450 ****        91.7500  86.7500   7.7500 Du        
   4451 ****        91.7500  86.7500   8.0000 Du        
   4452 ****        91.7500  87.0000   7.5000 Du        
   4453 ****        91.7500  87.0000   7.7500 Du        
   4454 ****        91.7500  87.0000   8.0000 Du        
   4455 ****        91.7500  87.2500   7.5000 Du        
   4456 ****        91.7500  87.2500   7.7500 Du        
   4457 ****        91.7500  88.5000  13.5000 Du        
   4458 ****        91.7500  88.5000  13.7500 Du        
   4459 ****        91.7500  88.5000  14.0000 Du        
   4460 ****        91.7500  88.5000  14.2500 Du        
   4461 ****        91.7500  88.7500  13.2500 Du        
   4462 ****        91.7500  88.7500  13.5000 Du        
   4463 ****        91.7500  88.7500  13.7500 Du        
   4464 ****        91.7500  88.7500  14.0000 Du        
   4465 ****        91.7500  88.7500  14.2500 Du        
   4466 ****        91.7500  88.7500  14.5000 Du        
   4467 ****        91.7500  88.7500  14.7500 Du        
   4468 ****        91.7500  89.0000  12.7500 Du        
   4469 ****        91.7500  89.0000  13.0000 Du        
   4470 ****        91.7500  89.0000  13.2500 Du        
   4471 ****        91.7500  89.0000  13.5000 Du        
   4472 ****        91.7500  89.0000  13.7500 Du        
   4473 ****        91.7500  89.0000  14.0000 Du        
   4474 ****        91.7500  89.0000  14.2500 Du        
   4475 ****        91.7500  89.0000  14.5000 Du        
   4476 ****        91.7500  89.0000  14.7500 Du        
   4477 ****        91.7500  89.0000  15.0000 Du        
   4478 ****        91.7500  89.2500  12.2500 Du        
   4479 ****        91.7500  89.2500  12.5000 Du        
   4480 ****        91.7500  89.2500  12.7500 Du        
   4481 ****        91.7500  89.2500  13.0000 Du        
   4482 ****        91.7500  89.2500  13.2500 Du        
   4483 ****        91.7500  89.2500  13.5000 Du        
   4484 ****        91.7500  89.2500  13.7500 Du        
   4485 ****        91.7500  89.2500  14.0000 Du        
   4486 ****        91.7500  89.2500  14.2500 Du        
   4487 ****        91.7500  89.2500  14.5000 Du        
   4488 ****        91.7500  89.2500  14.7500 Du        
   4489 ****        91.7500  89.2500  15.0000 Du        
   4490 ****        91.7500  89.2500  15.2500 Du        
   4491 ****        91.7500  89.5000  12.0000 Du        
   4492 ****        91.7500  89.5000  12.2500 Du        
   4493 ****        91.7500  89.5000  12.5000 Du        
   4494 ****        91.7500  89.5000  12.7500 Du        
   4495 ****        91.7500  89.5000  13.0000 Du        
   4496 ****        91.7500  89.5000  13.2500 Du        
   4497 ****        91.7500  89.5000  13.5000 Du        
   4498 ****        91.7500  89.5000  13.7500 Du        
   4499 ****        91.7500  89.5000  14.0000 Du        
   4500 ****        91.7500  89.5000  14.2500 Du        
   4501 ****        91.7500  89.5000  14.5000 Du        
   4502 ****        91.7500  89.5000  14.7500 Du        
   4503 ****        91.7500  89.5000  15.0000 Du        
   4504 ****        91.7500  89.5000  15.2500 Du        
   4505 ****        91.7500  89.5000  15.5000 Du        
   4506 ****        91.7500  89.7500  11.7500 Du        
   4507 ****        91.7500  89.7500  12.0000 Du        
   4508 ****        91.7500  89.7500  12.2500 Du        
   4509 ****        91.7500  89.7500  12.5000 Du        
   4510 ****        91.7500  89.7500  12.7500 Du        
   4511 ****        91.7500  89.7500  13.0000 Du        
   4512 ****        91.7500  89.7500  13.2500 Du        
   4513 ****        91.7500  89.7500  13.5000 Du        
   4514 ****        91.7500  89.7500  13.7500 Du        
   4515 ****        91.7500  89.7500  14.0000 Du        
   4516 ****        91.7500  89.7500  14.2500 Du        
   4517 ****        91.7500  89.7500  14.5000 Du        
   4518 ****        91.7500  89.7500  14.7500 Du        
   4519 ****        91.7500  89.7500  15.0000 Du        
   4520 ****        91.7500  89.7500  15.2500 Du        
   4521 ****        91.7500  89.7500  15.5000 Du        
   4522 ****        91.7500  89.7500  15.7500 Du        
   4523 ****        91.7500  90.0000   8.5000 Du        
   4524 ****        91.7500  90.0000   8.7500 Du        
   4525 ****        91.7500  90.0000  11.5000 Du        
   4526 ****        91.7500  90.0000  11.7500 Du        
   4527 ****        91.7500  90.0000  12.0000 Du        
   4528 ****        91.7500  90.0000  12.2500 Du        
   4529 ****        91.7500  90.0000  12.5000 Du        
   4530 ****        91.7500  90.0000  12.7500 Du        
   4531 ****        91.7500  90.0000  13.0000 Du        
   4532 ****        91.7500  90.2500   8.5000 Du        
   4533 ****        91.7500  90.2500   8.7500 Du        
   4534 ****        91.7500  90.2500  11.2500 Du        
   4535 ****        91.7500  90.2500  11.5000 Du        
   4536 ****        91.7500  90.2500  11.7500 Du        
   4537 ****        91.7500  90.2500  12.0000 Du        
   4538 ****        91.7500  90.2500  12.2500 Du        
   4539 ****        91.7500  90.2500  12.5000 Du        
   4540 ****        91.7500  90.2500  12.7500 Du        
   4541 ****        91.7500  90.5000  11.7500 Du        
   4542 ****        91.7500  90.5000  12.0000 Du        
   4543 ****        92.0000  88.7500  13.7500 Du        
   4544 ****        92.0000  88.7500  14.0000 Du        
   4545 ****        92.0000  88.7500  14.2500 Du        
   4546 ****        92.0000  88.7500  14.5000 Du        
   4547 ****        92.0000  89.0000  13.5000 Du        
   4548 ****        92.0000  89.0000  13.7500 Du        
   4549 ****        92.0000  89.0000  14.0000 Du        
   4550 ****        92.0000  89.0000  14.2500 Du        
   4551 ****        92.0000  89.0000  14.5000 Du        
   4552 ****        92.0000  89.0000  14.7500 Du        
   4553 ****        92.0000  89.0000  15.0000 Du        
   4554 ****        92.0000  89.2500  13.0000 Du        
   4555 ****        92.0000  89.2500  13.2500 Du        
   4556 ****        92.0000  89.2500  13.5000 Du        
   4557 ****        92.0000  89.2500  13.7500 Du        
   4558 ****        92.0000  89.2500  14.0000 Du        
   4559 ****        92.0000  89.2500  14.2500 Du        
   4560 ****        92.0000  89.2500  14.5000 Du        
   4561 ****        92.0000  89.2500  14.7500 Du        
   4562 ****        92.0000  89.2500  15.0000 Du        
   4563 ****        92.0000  89.2500  15.2500 Du        
   4564 ****        92.0000  89.5000  12.7500 Du        
   4565 ****        92.0000  89.5000  13.0000 Du        
   4566 ****        92.0000  89.5000  13.2500 Du        
   4567 ****        92.0000  89.5000  13.5000 Du        
   4568 ****        92.0000  89.5000  13.7500 Du        
   4569 ****        92.0000  89.5000  14.0000 Du        
   4570 ****        92.0000  89.5000  14.2500 Du        
   4571 ****        92.0000  89.5000  14.5000 Du        
   4572 ****        92.0000  89.5000  14.7500 Du        
   4573 ****        92.0000  89.5000  15.0000 Du        
   4574 ****        92.0000  89.5000  15.2500 Du        
   4575 ****        92.0000  89.5000  15.5000 Du        
   4576 ****        92.0000  89.5000  15.7500 Du        
   4577 ****        92.0000  89.7500  12.2500 Du        
   4578 ****        92.0000  89.7500  12.5000 Du        
   4579 ****        92.0000  89.7500  12.7500 Du        
   4580 ****        92.0000  89.7500  13.0000 Du        
   4581 ****        92.0000  89.7500  13.2500 Du        
   4582 ****        92.0000  89.7500  13.5000 Du        
   4583 ****        92.0000  89.7500  13.7500 Du        
   4584 ****        92.0000  89.7500  14.0000 Du        
   4585 ****        92.0000  89.7500  14.2500 Du        
   4586 ****        92.0000  89.7500  14.5000 Du        
   4587 ****        92.0000  89.7500  14.7500 Du        
   4588 ****        92.0000  89.7500  15.0000 Du        
   4589 ****        92.0000  89.7500  15.2500 Du        
   4590 ****        92.0000  89.7500  15.5000 Du        
   4591 ****        92.0000  89.7500  15.7500 Du        
   4592 ****        92.0000  89.7500  16.0000 Du        
   4593 ****        92.0000  90.0000  11.7500 Du        
   4594 ****        92.0000  90.0000  12.0000 Du        
   4595 ****        92.0000  90.0000  12.2500 Du        
   4596 ****        92.0000  90.0000  12.5000 Du        
   4597 ****        92.0000  90.0000  12.7500 Du        
   4598 ****        92.0000  90.0000  13.0000 Du        
   4599 ****        92.0000  90.0000  13.2500 Du        
   4600 ****        92.0000  90.0000  13.5000 Du        
   4601 ****        92.0000  90.0000  13.7500 Du        
   4602 ****        92.0000  90.0000  14.0000 Du        
   4603 ****        92.0000  90.0000  14.2500 Du        
   4604 ****        92.0000  90.0000  14.5000 Du        
   4605 ****        92.0000  90.0000  14.7500 Du        
   4606 ****        92.0000  90.0000  15.0000 Du        
   4607 ****        92.0000  90.0000  15.2500 Du        
   4608 ****        92.0000  90.0000  15.5000 Du        
   4609 ****        92.0000  90.0000  15.7500 Du        
   4610 ****        92.0000  90.0000  16.0000 Du        
   4611 ****        92.0000  90.2500  11.7500 Du        
   4612 ****        92.0000  90.2500  12.0000 Du        
   4613 ****        92.0000  90.2500  12.2500 Du        
   4614 ****        92.0000  90.2500  12.5000 Du        
   4615 ****        92.0000  90.2500  12.7500 Du        
   4616 ****        92.0000  90.2500  13.0000 Du        
   4617 ****        92.0000  90.5000  12.0000 Du        
   4618 ****        92.0000  90.5000  12.2500 Du        
   4619 ****        92.0000  90.5000  12.5000 Du        
   4620 ****        92.2500  89.0000  14.0000 Du        
   4621 ****        92.2500  89.0000  14.2500 Du        
   4622 ****        92.2500  89.0000  14.5000 Du        
   4623 ****        92.2500  89.0000  14.7500 Du        
   4624 ****        92.2500  89.0000  15.0000 Du        
   4625 ****        92.2500  89.2500  13.5000 Du        
   4626 ****        92.2500  89.2500  13.7500 Du        
   4627 ****        92.2500  89.2500  14.0000 Du        
   4628 ****        92.2500  89.2500  14.2500 Du        
   4629 ****        92.2500  89.2500  14.5000 Du        
   4630 ****        92.2500  89.2500  14.7500 Du        
   4631 ****        92.2500  89.2500  15.0000 Du        
   4632 ****        92.2500  89.2500  15.2500 Du        
   4633 ****        92.2500  89.5000  13.2500 Du        
   4634 ****        92.2500  89.5000  13.5000 Du        
   4635 ****        92.2500  89.5000  13.7500 Du        
   4636 ****        92.2500  89.5000  14.0000 Du        
   4637 ****        92.2500  89.5000  14.2500 Du        
   4638 ****        92.2500  89.5000  14.5000 Du        
   4639 ****        92.2500  89.5000  14.7500 Du        
   4640 ****        92.2500  89.5000  15.0000 Du        
   4641 ****        92.2500  89.5000  15.2500 Du        
   4642 ****        92.2500  89.5000  15.5000 Du        
   4643 ****        92.2500  89.5000  15.7500 Du        
   4644 ****        92.2500  89.7500  12.7500 Du        
   4645 ****        92.2500  89.7500  13.0000 Du        
   4646 ****        92.2500  89.7500  13.2500 Du        
   4647 ****        92.2500  89.7500  13.5000 Du        
   4648 ****        92.2500  89.7500  13.7500 Du        
   4649 ****        92.2500  89.7500  14.0000 Du        
   4650 ****        92.2500  89.7500  14.2500 Du        
   4651 ****        92.2500  89.7500  14.5000 Du        
   4652 ****        92.2500  89.7500  14.7500 Du        
   4653 ****        92.2500  89.7500  15.0000 Du        
   4654 ****        92.2500  89.7500  15.2500 Du        
   4655 ****        92.2500  89.7500  15.5000 Du        
   4656 ****        92.2500  89.7500  15.7500 Du        
   4657 ****        92.2500  89.7500  16.0000 Du        
   4658 ****        92.2500  90.0000  12.2500 Du        
   4659 ****        92.2500  90.0000  12.5000 Du        
   4660 ****        92.2500  90.0000  12.7500 Du        
   4661 ****        92.2500  90.0000  13.0000 Du        
   4662 ****        92.2500  90.0000  13.2500 Du        
   4663 ****        92.2500  90.0000  13.5000 Du        
   4664 ****        92.2500  90.0000  13.7500 Du        
   4665 ****        92.2500  90.0000  14.0000 Du        
   4666 ****        92.2500  90.0000  14.2500 Du        
   4667 ****        92.2500  90.0000  14.5000 Du        
   4668 ****        92.2500  90.0000  14.7500 Du        
   4669 ****        92.2500  90.0000  15.0000 Du        
   4670 ****        92.2500  90.0000  15.2500 Du        
   4671 ****        92.2500  90.0000  15.5000 Du        
   4672 ****        92.2500  90.0000  15.7500 Du        
   4673 ****        92.2500  90.0000  16.0000 Du        
   4674 ****        92.2500  90.2500  12.0000 Du        
   4675 ****        92.2500  90.2500  12.2500 Du        
   4676 ****        92.2500  90.2500  12.5000 Du        
   4677 ****        92.2500  90.2500  12.7500 Du        
   4678 ****        92.2500  90.2500  13.0000 Du        
   4679 ****        92.2500  90.2500  13.2500 Du        
   4680 ****        92.2500  90.2500  13.5000 Du        
   4681 ****        92.2500  90.2500  13.7500 Du        
   4682 ****        92.2500  90.2500  14.0000 Du        
   4683 ****        92.2500  90.2500  14.7500 Du        
   4684 ****        92.2500  90.2500  15.0000 Du        
   4685 ****        92.2500  90.2500  15.2500 Du        
   4686 ****        92.2500  90.2500  15.5000 Du        
   4687 ****        92.2500  90.2500  15.7500 Du        
   4688 ****        92.2500  90.2500  16.0000 Du        
   4689 ****        92.2500  90.5000  12.5000 Du        
   4690 ****        92.2500  90.5000  12.7500 Du        
   4691 ****        92.2500  90.5000  13.0000 Du        
   4692 ****        92.5000  89.2500  14.0000 Du        
   4693 ****        92.5000  89.2500  14.2500 Du        
   4694 ****        92.5000  89.2500  14.5000 Du        
   4695 ****        92.5000  89.2500  14.7500 Du        
   4696 ****        92.5000  89.2500  15.0000 Du        
   4697 ****        92.5000  89.5000  13.7500 Du        
   4698 ****        92.5000  89.5000  14.0000 Du        
   4699 ****        92.5000  89.5000  14.2500 Du        
   4700 ****        92.5000  89.5000  14.5000 Du        
   4701 ****        92.5000  89.5000  14.7500 Du        
   4702 ****        92.5000  89.5000  15.0000 Du        
   4703 ****        92.5000  89.5000  15.2500 Du        
   4704 ****        92.5000  89.5000  15.5000 Du        
   4705 ****        92.5000  89.7500  13.2500 Du        
   4706 ****        92.5000  89.7500  13.5000 Du        
   4707 ****        92.5000  89.7500  13.7500 Du        
   4708 ****        92.5000  89.7500  14.0000 Du        
   4709 ****        92.5000  89.7500  14.2500 Du        
   4710 ****        92.5000  89.7500  14.5000 Du        
   4711 ****        92.5000  89.7500  14.7500 Du        
   4712 ****        92.5000  89.7500  15.0000 Du        
   4713 ****        92.5000  89.7500  15.2500 Du        
   4714 ****        92.5000  89.7500  15.5000 Du        
   4715 ****        92.5000  89.7500  15.7500 Du        
   4716 ****        92.5000  90.0000  12.7500 Du        
   4717 ****        92.5000  90.0000  13.0000 Du        
   4718 ****        92.5000  90.0000  13.2500 Du        
   4719 ****        92.5000  90.0000  13.5000 Du        
   4720 ****        92.5000  90.0000  13.7500 Du        
   4721 ****        92.5000  90.0000  14.0000 Du        
   4722 ****        92.5000  90.0000  14.2500 Du        
   4723 ****        92.5000  90.0000  14.5000 Du        
   4724 ****        92.5000  90.0000  14.7500 Du        
   4725 ****        92.5000  90.0000  15.0000 Du        
   4726 ****        92.5000  90.0000  15.2500 Du        
   4727 ****        92.5000  90.0000  15.5000 Du        
   4728 ****        92.5000  90.0000  15.7500 Du        
   4729 ****        92.5000  90.0000  16.0000 Du        
   4730 ****        92.5000  90.2500  12.5000 Du        
   4731 ****        92.5000  90.2500  12.7500 Du        
   4732 ****        92.5000  90.2500  13.0000 Du        
   4733 ****        92.5000  90.2500  13.2500 Du        
   4734 ****        92.5000  90.2500  13.5000 Du        
   4735 ****        92.5000  90.2500  13.7500 Du        
   4736 ****        92.5000  90.2500  14.0000 Du        
   4737 ****        92.5000  90.2500  14.2500 Du        
   4738 ****        92.5000  90.2500  14.5000 Du        
   4739 ****        92.5000  90.2500  14.7500 Du        
   4740 ****        92.5000  90.2500  15.0000 Du        
   4741 ****        92.5000  90.2500  15.2500 Du        
   4742 ****        92.5000  90.2500  15.5000 Du        
   4743 ****        92.5000  90.2500  15.7500 Du        
   4744 ****        92.5000  90.2500  16.0000 Du        
   4745 ****        92.5000  90.5000  12.7500 Du        
   4746 ****        92.5000  90.5000  13.0000 Du        
   4747 ****        92.5000  90.5000  13.2500 Du        
   4748 ****        92.5000  90.5000  13.5000 Du        
   4749 ****        92.5000  90.5000  13.7500 Du        
   4750 ****        92.5000  90.5000  15.5000 Du        
   4751 ****        92.5000  90.5000  15.7500 Du        
   4752 ****        92.5000  90.5000  16.0000 Du        
   4753 ****        92.7500  89.2500  14.5000 Du        
   4754 ****        92.7500  89.2500  14.7500 Du        
   4755 ****        92.7500  89.5000  14.0000 Du        
   4756 ****        92.7500  89.5000  14.2500 Du        
   4757 ****        92.7500  89.5000  14.5000 Du        
   4758 ****        92.7500  89.5000  14.7500 Du        
   4759 ****        92.7500  89.5000  15.0000 Du        
   4760 ****        92.7500  89.5000  15.2500 Du        
   4761 ****        92.7500  89.7500  13.5000 Du        
   4762 ****        92.7500  89.7500  13.7500 Du        
   4763 ****        92.7500  89.7500  14.0000 Du        
   4764 ****        92.7500  89.7500  14.2500 Du        
   4765 ****        92.7500  89.7500  14.5000 Du        
   4766 ****        92.7500  89.7500  14.7500 Du        
   4767 ****        92.7500  89.7500  15.0000 Du        
   4768 ****        92.7500  89.7500  15.2500 Du        
   4769 ****        92.7500  89.7500  15.5000 Du        
   4770 ****        92.7500  89.7500  15.7500 Du        
   4771 ****        92.7500  90.0000  13.0000 Du        
   4772 ****        92.7500  90.0000  13.2500 Du        
   4773 ****        92.7500  90.0000  13.5000 Du        
   4774 ****        92.7500  90.0000  13.7500 Du        
   4775 ****        92.7500  90.0000  14.0000 Du        
   4776 ****        92.7500  90.0000  14.2500 Du        
   4777 ****        92.7500  90.0000  14.5000 Du        
   4778 ****        92.7500  90.0000  14.7500 Du        
   4779 ****        92.7500  90.0000  15.0000 Du        
   4780 ****        92.7500  90.0000  15.2500 Du        
   4781 ****        92.7500  90.0000  15.5000 Du        
   4782 ****        92.7500  90.0000  15.7500 Du        
   4783 ****        92.7500  90.0000  16.0000 Du        
   4784 ****        92.7500  90.2500  12.7500 Du        
   4785 ****        92.7500  90.2500  13.0000 Du        
   4786 ****        92.7500  90.2500  13.2500 Du        
   4787 ****        92.7500  90.2500  13.5000 Du        
   4788 ****        92.7500  90.2500  13.7500 Du        
   4789 ****        92.7500  90.2500  14.0000 Du        
   4790 ****        92.7500  90.2500  14.2500 Du        
   4791 ****        92.7500  90.2500  14.5000 Du        
   4792 ****        92.7500  90.2500  14.7500 Du        
   4793 ****        92.7500  90.2500  15.0000 Du        
   4794 ****        92.7500  90.2500  15.2500 Du        
   4795 ****        92.7500  90.2500  15.5000 Du        
   4796 ****        92.7500  90.2500  15.7500 Du        
   4797 ****        92.7500  90.2500  16.0000 Du        
   4798 ****        92.7500  90.5000  13.0000 Du        
   4799 ****        92.7500  90.5000  13.2500 Du        
   4800 ****        92.7500  90.5000  13.5000 Du        
   4801 ****        92.7500  90.5000  13.7500 Du        
   4802 ****        92.7500  90.5000  14.0000 Du        
   4803 ****        92.7500  90.5000  14.2500 Du        
   4804 ****        92.7500  90.5000  14.5000 Du        
   4805 ****        92.7500  90.5000  14.7500 Du        
   4806 ****        92.7500  90.5000  15.0000 Du        
   4807 ****        92.7500  90.5000  15.2500 Du        
   4808 ****        92.7500  90.5000  15.5000 Du        
   4809 ****        92.7500  90.5000  15.7500 Du        
   4810 ****        92.7500  90.5000  16.0000 Du        
   4811 ****        92.7500  90.7500  13.2500 Du        
   4812 ****        92.7500  90.7500  13.5000 Du        
   4813 ****        92.7500  90.7500  13.7500 Du        
   4814 ****        92.7500  90.7500  15.7500 Du        
   4815 ****        92.7500  90.7500  16.0000 Du        
   4816 ****        93.0000  89.7500  13.7500 Du        
   4817 ****        93.0000  89.7500  14.0000 Du        
   4818 ****        93.0000  89.7500  14.2500 Du        
   4819 ****        93.0000  89.7500  14.5000 Du        
   4820 ****        93.0000  89.7500  14.7500 Du        
   4821 ****        93.0000  89.7500  15.0000 Du        
   4822 ****        93.0000  90.0000  13.2500 Du        
   4823 ****        93.0000  90.0000  13.5000 Du        
   4824 ****        93.0000  90.0000  13.7500 Du        
   4825 ****        93.0000  90.0000  14.0000 Du        
   4826 ****        93.0000  90.0000  14.2500 Du        
   4827 ****        93.0000  90.0000  14.5000 Du        
   4828 ****        93.0000  90.0000  14.7500 Du        
   4829 ****        93.0000  90.0000  15.0000 Du        
   4830 ****        93.0000  90.0000  15.2500 Du        
   4831 ****        93.0000  90.0000  15.5000 Du        
   4832 ****        93.0000  90.0000  15.7500 Du        
   4833 ****        93.0000  90.2500  13.0000 Du        
   4834 ****        93.0000  90.2500  13.2500 Du        
   4835 ****        93.0000  90.2500  13.5000 Du        
   4836 ****        93.0000  90.2500  13.7500 Du        
   4837 ****        93.0000  90.2500  14.0000 Du        
   4838 ****        93.0000  90.2500  14.2500 Du        
   4839 ****        93.0000  90.2500  14.5000 Du        
   4840 ****        93.0000  90.2500  14.7500 Du        
   4841 ****        93.0000  90.2500  15.0000 Du        
   4842 ****        93.0000  90.2500  15.2500 Du        
   4843 ****        93.0000  90.2500  15.5000 Du        
   4844 ****        93.0000  90.2500  15.7500 Du        
   4845 ****        93.0000  90.5000  13.2500 Du        
   4846 ****        93.0000  90.5000  13.5000 Du        
   4847 ****        93.0000  90.5000  13.7500 Du        
   4848 ****        93.0000  90.5000  14.0000 Du        
   4849 ****        93.0000  90.5000  14.2500 Du        
   4850 ****        93.0000  90.5000  14.5000 Du        
   4851 ****        93.0000  90.5000  14.7500 Du        
   4852 ****        93.0000  90.5000  15.0000 Du        
   4853 ****        93.0000  90.5000  15.2500 Du        
   4854 ****        93.0000  90.5000  15.5000 Du        
   4855 ****        93.0000  90.5000  15.7500 Du        
   4856 ****        93.0000  90.5000  16.0000 Du        
   4857 ****        93.0000  90.7500  13.5000 Du        
   4858 ****        93.0000  90.7500  13.7500 Du        
   4859 ****        93.0000  90.7500  14.0000 Du        
   4860 ****        93.0000  90.7500  14.2500 Du        
   4861 ****        93.0000  90.7500  14.5000 Du        
   4862 ****        93.0000  90.7500  15.5000 Du        
   4863 ****        93.0000  90.7500  15.7500 Du        
   4864 ****        93.0000  90.7500  16.0000 Du        
   4865 ****        93.0000  91.0000  13.7500 Du        
   4866 ****        93.2500  90.2500  13.5000 Du        
   4867 ****        93.2500  90.2500  13.7500 Du        
   4868 ****        93.2500  90.5000  13.5000 Du        
   4869 ****        93.2500  90.5000  13.7500 Du        
   4870 ****        93.2500  90.7500  13.5000 Du        
   4871 ****        93.2500  90.7500  13.7500 Du        
