#       Name:                CT1002167954
#       Creating user name   hitesit
#       Creation time:       Sun Apr 16 02:21:22 2023


#       File generated by GOLD software.
#

@<TRIPOS>MOLECULE
CT1002167954|ligand_prepared|mol2|1|dock5
    29    30     1
SMALL
NO_CHARGES


@<TRIPOS>ATOM
      1 C1          90.7157  88.8932   9.7198 C.3            1 RES1               0.0000
      2 C2          91.0562  88.8042  11.2214 C.ar           1 RES1               0.0000
      3 C3          89.2428  89.2831   9.6369 C.2            1 RES1               0.0000
      4 C4          91.6671  89.9267   9.1271 C.2            1 RES1               0.0000
      5 C5          90.9160  87.5647   8.9539 C.3            1 RES1               0.0000
      6 C6          91.6685  89.8704  11.8736 C.ar           1 RES1               0.0000
      7 C7          90.7624  87.6657  11.9671 C.ar           1 RES1               0.0000
      8 N8          88.9476  90.5613   9.2643 N.am           1 RES1               0.0000
      9 O9          88.3550  88.4926   9.9321 O.2            1 RES1               0.0000
     10 N10         91.1300  91.0903   8.6420 N.am           1 RES1               0.0000
     11 O11         92.8788  89.7510   9.0909 O.2            1 RES1               0.0000
     12 C12         90.9900  87.7324   7.4444 C.3            1 RES1               0.0000
     13 C13         91.9732  89.8020  13.2229 C.ar           1 RES1               0.0000
     14 C14         91.0682  87.5994  13.3164 C.ar           1 RES1               0.0000
     15 C15         89.8166  91.4675   8.7117 C.2            1 RES1               0.0000
     16 C16         91.6730  88.6668  13.9453 C.ar           1 RES1               0.0000
     17 O17         89.4184  92.5542   8.3022 O.2            1 RES1               0.0000
     18 H18         91.8427  87.0924   9.3026 H              1 RES1               0.0000
     19 H19         90.0850  86.8900   9.1939 H              1 RES1               0.0000
     20 H20         91.9145  90.7710  11.3209 H              1 RES1               0.0000
     21 H21         90.2876  86.8134  11.4930 H              1 RES1               0.0000
     22 H22         87.9924  90.8722   9.4100 H              1 RES1               0.0000
     23 H23         91.7684  91.7349   8.1867 H              1 RES1               0.0000
     24 H24         91.1309  86.7705   6.9559 H              1 RES1               0.0000
     25 H25         90.0740  88.1765   7.0603 H              1 RES1               0.0000
     26 H26         91.8213  88.3778   7.1683 H              1 RES1               0.0000
     27 H27         92.4504  90.6443  13.7129 H              1 RES1               0.0000
     28 H28         90.8307  86.7037  13.8808 H              1 RES1               0.0000
     29 H29         91.9115  88.6137  15.0024 H              1 RES1               0.0000
@<TRIPOS>BOND
    1    1    2 1     
    2    1    3 1     
    3    1    4 1     
    4    1    5 1     
    5    2    6 ar    
    6    2    7 ar    
    7    3    8 1     
    8    3    9 2     
    9    4   10 1     
   10    4   11 2     
   11    5   12 1     
   12    5   18 1     
   13    5   19 1     
   14    6   13 ar    
   15    6   20 1     
   16    7   14 ar    
   17    7   21 1     
   18    8   15 1     
   19    8   22 1     
   20   10   15 1     
   21   10   23 1     
   22   12   24 1     
   23   12   25 1     
   24   12   26 1     
   25   13   16 ar    
   26   13   27 1     
   27   14   16 ar    
   28   14   28 1     
   29   15   17 2     
   30   16   29 1     
@<TRIPOS>SUBSTRUCTURE
      1 RES1           1
@<TRIPOS>SET
DONOR_HYDROGENS      STATIC     ATOMS    <user>   **** ""
2 22 23
ATOM$RED        STATIC     ATOMS    COLORGROUP SYSTEM
2 22 23
@<TRIPOS>COMMENT
> <Gold.Version>
2022.3.0

> <Gold.Id.Protein>
unknown|4r3c_clean|pdb

> <Gold.Protein.RotatedTorsions>
[ 4013 4008 4007 4004 ] final  155.46 input   59.99 | X-H torsion
[ 4024 4019 4018 4015 ] final   67.56 input   60.02 | X-H torsion
[ 4700 4695 4694 4691 ] final -127.28 input   59.98 | X-H torsion
[ 3252 3246 3244 3241 ] final   68.54 input   60.02 | X-H torsion

> <Gold.Protein.ActiveResidues>
 ALA190  PRO191  GLU192  ILE193  MET194  LEU195  ASN196  TRP197  MET198  HIS199 
 TYR200  ASN201  THR203  VAL204  TRP207  LEU232  ILE235  LEU236  VAL239  GLY240 
 THR241  PRO242  GLY243  LEU246  LEU247  LYS248  LYS249  ILE250  SER251  SER252 
 ALA255  ARG256  TYR258  ILE259  GLN260  LEU262  MET265  VAL290  LEU291  ASP292 
 SER293  ASP294  LYS295  ARG296 

> <Gold.Protein.RotatedAtoms>
   86.4152   81.8094   10.2998 H   0  0  0  0  0  0  0  0  0  0  0  0  # atno 3252 bound_to 3246
   88.2889   96.5636    4.2502 H   0  0  0  0  0  0  0  0  0  0  0  0  # atno 4013 bound_to 4008
   88.2738  100.3035    9.8530 H   0  0  0  0  0  0  0  0  0  0  0  0  # atno 4024 bound_to 4019
   88.5806   85.2845    8.6897 H   0  0  0  0  0  0  0  0  0  0  0  0  # atno 4700 bound_to 4695
   88.9216   96.8482    5.7224 LP  0  0  0  0  0  0  0  0  0  0  0  0  # atno 5669 bound_to 4008
   89.0264   95.3595    5.0595 LP  0  0  0  0  0  0  0  0  0  0  0  0  # atno 5670 bound_to 4008
   89.7002   99.9335   10.5437 LP  0  0  0  0  0  0  0  0  0  0  0  0  # atno 5673 bound_to 4019
   88.3327   99.1920   11.0403 LP  0  0  0  0  0  0  0  0  0  0  0  0  # atno 5674 bound_to 4019
   88.1092   84.0590    7.7290 LP  0  0  0  0  0  0  0  0  0  0  0  0  # atno 5683 bound_to 4695
   89.6975   84.3212    8.0029 LP  0  0  0  0  0  0  0  0  0  0  0  0  # atno 5684 bound_to 4695
   85.7625   81.8200    8.8094 LP  0  0  0  0  0  0  0  0  0  0  0  0  # atno 5701 bound_to 3246
   87.3555   81.5182    9.0043 LP  0  0  0  0  0  0  0  0  0  0  0  0  # atno 5702 bound_to 3246

> <Gold.Score>
     Fitness  S(hb_ext) S(vdw_ext)  S(hb_int)    S(int)      intcor
     38.92       0.15      29.16       0.00      -1.33      -0.77

> <Gold.Goldscore.Fitness>
38.9170

> <Gold.Goldscore.Internal.Vdw>
-1.2814

> <Gold.Goldscore.Internal.Torsion>
-0.8131

> <Gold.Goldscore.External.Vdw>
29.1596

> <Gold.Goldscore.Internal.HBond>
0.0000

> <Gold.Goldscore.External.HBond>
0.1517

> <Gold.Goldscore.Internal.Correction>
-0.7653

> <Gold.Goldscore.Hbonds>
donor molecule, donor type, donor heavy atom, donor atom, acceptor molecule, acceptor atom, score
      P1  H  4695  4700       L1     9  0.08

> <Gold.Goldscore.Internal.Vdw.Weighted>
-1.2814

> <Gold.Goldscore.Internal.Torsion.Weighted>
-0.8131

> <Gold.Goldscore.External.Vdw.Weighted>
40.0945

> <Gold.Goldscore.Internal.HBond.Weighted>
0.0000

> <Gold.Goldscore.External.HBond.Weighted>
0.1517

> <Gold.Goldscore.Internal.Correction.Weighted>
-0.7653

> <Gold.Rescore>
     Score     S(PLP)   S(hbond)     S(cho)   S(metal)  DE(clash)   DE(tors)     intcor
     27.71     -30.69       0.07       0.00       0.00       0.69       1.25       ----

> <Gold.PLP.Fitness>
27.7092

> <Gold.PLP.PLP>
-30.6883

> <Gold.PLP.part.hbond>
-0.4879

> <Gold.PLP.part.metal>
0.0000

> <Gold.PLP.part.buried>
14.2224

> <Gold.PLP.part.nonpolar>
-44.4642

> <Gold.PLP.part.repulsive>
0.8978

> <Gold.PLP.ligand.clash>
0.6909

> <Gold.PLP.ligand.torsion>
1.2499

> <Gold.PLP.Chemscore.Hbond>
0.0706

> <Gold.PLP.Chemscore.CHOScore>
0.0000

> <Gold.PLP.Chemscore.Metal>
0.0000

> <Gold.PLP.Chemscore.Internal.Correction>
   9.000000E+99

