#       Name:                CT1002167954
#       Creating user name   hitesit
#       Creation time:       Sun Apr 16 02:21:17 2023


#       File generated by GOLD software.
#

@<TRIPOS>MOLECULE
CT1002167954|ligand_prepared|mol2|1|dock1
    29    30     1
SMALL
NO_CHARGES


@<TRIPOS>ATOM
      1 C1          90.5162  90.3702   9.7019 C.3            1 RES1               0.0000
      2 C2          89.9413  91.7605   9.3622 C.ar           1 RES1               0.0000
      3 C3          91.9584  90.3696   9.2035 C.2            1 RES1               0.0000
      4 C4          90.3798  90.2094  11.2119 C.2            1 RES1               0.0000
      5 C5          89.7627  89.2006   9.0268 C.3            1 RES1               0.0000
      6 C6          89.6604  92.1085   8.0444 C.ar           1 RES1               0.0000
      7 C7          89.6846  92.7030  10.3544 C.ar           1 RES1               0.0000
      8 N8          92.9495  90.4509  10.1368 N.am           1 RES1               0.0000
      9 O9          92.2212  90.3381   8.0076 O.2            1 RES1               0.0000
     10 N10         91.5280  90.1361  11.9562 N.am           1 RES1               0.0000
     11 O11         89.2882  90.1623  11.7656 O.2            1 RES1               0.0000
     12 C12         90.2853  87.8274   9.4183 C.3            1 RES1               0.0000
     13 C13         89.1389  93.3525   7.7300 C.ar           1 RES1               0.0000
     14 C14         89.1633  93.9466  10.0378 C.ar           1 RES1               0.0000
     15 C15         92.8064  90.2804  11.4904 C.2            1 RES1               0.0000
     16 C16         88.8896  94.2721   8.7264 C.ar           1 RES1               0.0000
     17 O17         93.7860  90.2568  12.2301 O.2            1 RES1               0.0000
     18 H18         88.7007  89.2637   9.2941 H              1 RES1               0.0000
     19 H19         89.8416  89.3112   7.9382 H              1 RES1               0.0000
     20 H20         89.8523  91.3987   7.2466 H              1 RES1               0.0000
     21 H21         89.8932  92.4692  11.3929 H              1 RES1               0.0000
     22 H22         93.8833  90.6576   9.7970 H              1 RES1               0.0000
     23 H23         91.4196  89.9573  12.9495 H              1 RES1               0.0000
     24 H24         89.7222  87.0430   8.9169 H              1 RES1               0.0000
     25 H25         91.3328  87.7206   9.1441 H              1 RES1               0.0000
     26 H26         90.1986  87.6734  10.4919 H              1 RES1               0.0000
     27 H27         88.9265  93.6043   6.6962 H              1 RES1               0.0000
     28 H28         88.9692  94.6675  10.8251 H              1 RES1               0.0000
     29 H29         88.4807  95.2464   8.4799 H              1 RES1               0.0000
@<TRIPOS>BOND
    1    1    2 1     
    2    1    3 1     
    3    1    4 1     
    4    1    5 1     
    5    2    6 ar    
    6    2    7 ar    
    7    3    8 1     
    8    3    9 2     
    9    4   10 1     
   10    4   11 2     
   11    5   12 1     
   12    5   18 1     
   13    5   19 1     
   14    6   13 ar    
   15    6   20 1     
   16    7   14 ar    
   17    7   21 1     
   18    8   15 1     
   19    8   22 1     
   20   10   15 1     
   21   10   23 1     
   22   12   24 1     
   23   12   25 1     
   24   12   26 1     
   25   13   16 ar    
   26   13   27 1     
   27   14   16 ar    
   28   14   28 1     
   29   15   17 2     
   30   16   29 1     
@<TRIPOS>SUBSTRUCTURE
      1 RES1           1
@<TRIPOS>SET
DONOR_HYDROGENS      STATIC     ATOMS    <user>   **** ""
2 22 23
ATOM$RED        STATIC     ATOMS    COLORGROUP SYSTEM
2 22 23
@<TRIPOS>COMMENT
> <Gold.Version>
2022.3.0

> <Gold.Id.Protein>
unknown|4r3c_clean|pdb

> <Gold.Protein.RotatedTorsions>
[ 4013 4008 4007 4004 ] final  -66.19 input   59.99 | X-H torsion
[ 4024 4019 4018 4015 ] final  -32.78 input   60.02 | X-H torsion
[ 4700 4695 4694 4691 ] final -126.07 input   59.98 | X-H torsion
[ 3252 3246 3244 3241 ] final   74.69 input   60.02 | X-H torsion

> <Gold.Protein.ActiveResidues>
 ALA190  PRO191  GLU192  ILE193  MET194  LEU195  ASN196  TRP197  MET198  HIS199 
 TYR200  ASN201  THR203  VAL204  TRP207  LEU232  ILE235  LEU236  VAL239  GLY240 
 THR241  PRO242  GLY243  LEU246  LEU247  LYS248  LYS249  ILE250  SER251  SER252 
 ALA255  ARG256  TYR258  ILE259  GLN260  LEU262  MET265  VAL290  LEU291  ASP292 
 SER293  ASP294  LYS295  ARG296 

> <Gold.Protein.RotatedAtoms>
   86.5135   81.7904   10.3064 H   0  0  0  0  0  0  0  0  0  0  0  0  # atno 3252 bound_to 3246
   89.1278   95.4627    5.3220 H   0  0  0  0  0  0  0  0  0  0  0  0  # atno 4013 bound_to 4008
   89.6282  100.1392   10.3082 H   0  0  0  0  0  0  0  0  0  0  0  0  # atno 4024 bound_to 4019
   88.5999   85.2875    8.6929 H   0  0  0  0  0  0  0  0  0  0  0  0  # atno 4700 bound_to 4695
   88.3259   96.2789    4.1646 LP  0  0  0  0  0  0  0  0  0  0  0  0  # atno 5669 bound_to 4008
   88.7776   97.0372    5.5385 LP  0  0  0  0  0  0  0  0  0  0  0  0  # atno 5670 bound_to 4008
   88.6358   99.1553   11.1422 LP  0  0  0  0  0  0  0  0  0  0  0  0  # atno 5673 bound_to 4019
   88.0335  100.1357    9.9835 LP  0  0  0  0  0  0  0  0  0  0  0  0  # atno 5674 bound_to 4019
   88.0957   84.0709    7.7375 LP  0  0  0  0  0  0  0  0  0  0  0  0  # atno 5683 bound_to 4695
   89.6916   84.3063    7.9912 LP  0  0  0  0  0  0  0  0  0  0  0  0  # atno 5684 bound_to 4695
   85.7087   81.8376    8.8931 LP  0  0  0  0  0  0  0  0  0  0  0  0  # atno 5701 bound_to 3246
   87.3103   81.5199    8.9138 LP  0  0  0  0  0  0  0  0  0  0  0  0  # atno 5702 bound_to 3246

> <Gold.Score>
     Fitness  S(hb_ext) S(vdw_ext)  S(hb_int)    S(int)      intcor
     47.15       0.49      35.15       0.00      -1.67      -0.78

> <Gold.Goldscore.Fitness>
47.1503

> <Gold.Goldscore.Internal.Vdw>
-2.0674

> <Gold.Goldscore.Internal.Torsion>
-0.3793

> <Gold.Goldscore.External.Vdw>
35.1492

> <Gold.Goldscore.Internal.HBond>
0.0000

> <Gold.Goldscore.External.HBond>
0.4916

> <Gold.Goldscore.Internal.Correction>
-0.7752

> <Gold.Goldscore.Hbonds>
donor molecule, donor type, donor heavy atom, donor atom, acceptor molecule, acceptor atom, score
      L1  H     8    22       P1  3905  0.25

> <Gold.Goldscore.Internal.Vdw.Weighted>
-2.0674

> <Gold.Goldscore.Internal.Torsion.Weighted>
-0.3793

> <Gold.Goldscore.External.Vdw.Weighted>
48.3302

> <Gold.Goldscore.Internal.HBond.Weighted>
0.0000

> <Gold.Goldscore.External.HBond.Weighted>
0.4916

> <Gold.Goldscore.Internal.Correction.Weighted>
-0.7752

> <Gold.Rescore>
     Score     S(PLP)   S(hbond)     S(cho)   S(metal)  DE(clash)   DE(tors)     intcor
     34.27     -36.05       0.00       0.00       0.00       0.62       0.58       ----

> <Gold.PLP.Fitness>
34.2700

> <Gold.PLP.PLP>
-36.0540

> <Gold.PLP.part.hbond>
0.0000

> <Gold.PLP.part.metal>
0.0000

> <Gold.PLP.part.buried>
10.8106

> <Gold.PLP.part.nonpolar>
-47.3825

> <Gold.PLP.part.repulsive>
0.3362

> <Gold.PLP.ligand.clash>
0.6165

> <Gold.PLP.ligand.torsion>
0.5838

> <Gold.PLP.Chemscore.Hbond>
0.0000

> <Gold.PLP.Chemscore.CHOScore>
0.0000

> <Gold.PLP.Chemscore.Metal>
0.0000

> <Gold.Chemscore.Hbonds>
donor molecule, donor type, donor heavy atom, donor atom, acceptor molecule, acceptor atom, score
      L1  H     8    22       P1  3905  0.60

> <Gold.PLP.Chemscore.Internal.Correction>
   9.000000E+99

