#       Name:                CT1002167954
#       Creating user name   hitesit
#       Creation time:       Sun Apr 16 02:21:23 2023


#       File generated by GOLD software.
#

@<TRIPOS>MOLECULE
CT1002167954|ligand_prepared|mol2|1|dock6
    29    30     1
SMALL
NO_CHARGES


@<TRIPOS>ATOM
      1 C1          90.2910  90.1848  10.2947 C.3            1 RES1               0.0000
      2 C2          89.5923  91.5318  10.0187 C.ar           1 RES1               0.0000
      3 C3          89.6372  89.1649   9.3670 C.2            1 RES1               0.0000
      4 C4          91.7745  90.4105  10.0243 C.2            1 RES1               0.0000
      5 C5          90.1408  89.6901  11.7522 C.3            1 RES1               0.0000
      6 C6          89.6953  92.1411   8.7717 C.ar           1 RES1               0.0000
      7 C7          88.8404  92.1747  10.9984 C.ar           1 RES1               0.0000
      8 N8          90.3549  88.7416   8.2873 N.am           1 RES1               0.0000
      9 O9          88.4942  88.7681   9.5578 O.2            1 RES1               0.0000
     10 N10         92.3455  89.7384   8.9755 N.am           1 RES1               0.0000
     11 O11         92.4502  91.1769  10.6998 O.2            1 RES1               0.0000
     12 C12         90.8269  88.3602  12.0221 C.3            1 RES1               0.0000
     13 C13         89.0669  93.3479   8.5126 C.ar           1 RES1               0.0000
     14 C14         88.2130  93.3816  10.7373 C.ar           1 RES1               0.0000
     15 C15         91.6959  88.9378   8.0759 C.2            1 RES1               0.0000
     16 C16         88.3251  93.9687   9.4949 C.ar           1 RES1               0.0000
     17 O17         92.2683  88.4111   7.1261 O.2            1 RES1               0.0000
     18 H18         90.5598  90.4469  12.4268 H              1 RES1               0.0000
     19 H19         89.0731  89.5897  11.9827 H              1 RES1               0.0000
     20 H20         90.2768  91.6686   7.9871 H              1 RES1               0.0000
     21 H21         88.7393  91.7319  11.9835 H              1 RES1               0.0000
     22 H22         89.8475  88.2321   7.5709 H              1 RES1               0.0000
     23 H23         93.3477  89.8446   8.8543 H              1 RES1               0.0000
     24 H24         90.6907  88.0593  13.0587 H              1 RES1               0.0000
     25 H25         90.4171  87.5786  11.3857 H              1 RES1               0.0000
     26 H26         91.8951  88.4308  11.8272 H              1 RES1               0.0000
     27 H27         89.1594  93.8064   7.5336 H              1 RES1               0.0000
     28 H28         87.6308  93.8670  11.5135 H              1 RES1               0.0000
     29 H29         87.8327  94.9139   9.2915 H              1 RES1               0.0000
@<TRIPOS>BOND
    1    1    2 1     
    2    1    3 1     
    3    1    4 1     
    4    1    5 1     
    5    2    6 ar    
    6    2    7 ar    
    7    3    8 1     
    8    3    9 2     
    9    4   10 1     
   10    4   11 2     
   11    5   12 1     
   12    5   18 1     
   13    5   19 1     
   14    6   13 ar    
   15    6   20 1     
   16    7   14 ar    
   17    7   21 1     
   18    8   15 1     
   19    8   22 1     
   20   10   15 1     
   21   10   23 1     
   22   12   24 1     
   23   12   25 1     
   24   12   26 1     
   25   13   16 ar    
   26   13   27 1     
   27   14   16 ar    
   28   14   28 1     
   29   15   17 2     
   30   16   29 1     
@<TRIPOS>SUBSTRUCTURE
      1 RES1           1
@<TRIPOS>SET
DONOR_HYDROGENS      STATIC     ATOMS    <user>   **** ""
2 22 23
ATOM$RED        STATIC     ATOMS    COLORGROUP SYSTEM
2 22 23
@<TRIPOS>COMMENT
> <Gold.Version>
2022.3.0

> <Gold.Id.Protein>
unknown|4r3c_clean|pdb

> <Gold.Protein.RotatedTorsions>
[ 4013 4008 4007 4004 ] final  162.35 input   59.99 | X-H torsion
[ 4024 4019 4018 4015 ] final -141.80 input   60.02 | X-H torsion
[ 4700 4695 4694 4691 ] final  -31.87 input   59.98 | X-H torsion
[ 3252 3246 3244 3241 ] final  -45.83 input   60.02 | X-H torsion

> <Gold.Protein.ActiveResidues>
 ALA190  PRO191  GLU192  ILE193  MET194  LEU195  ASN196  TRP197  MET198  HIS199 
 TYR200  ASN201  THR203  VAL204  TRP207  LEU232  ILE235  LEU236  VAL239  GLY240 
 THR241  PRO242  GLY243  LEU246  LEU247  LYS248  LYS249  ILE250  SER251  SER252 
 ALA255  ARG256  TYR258  ILE259  GLN260  LEU262  MET265  VAL290  LEU291  ASP292 
 SER293  ASP294  LYS295  ARG296 

> <Gold.Protein.RotatedAtoms>
   85.7184   81.8333    8.8896 H   0  0  0  0  0  0  0  0  0  0  0  0  # atno 3252 bound_to 3246
   88.2994   96.4591    4.2101 H   0  0  0  0  0  0  0  0  0  0  0  0  # atno 4013 bound_to 4008
   88.8142   99.1706   11.1594 H   0  0  0  0  0  0  0  0  0  0  0  0  # atno 4024 bound_to 4019
   89.7216   84.6367    8.2478 H   0  0  0  0  0  0  0  0  0  0  0  0  # atno 4700 bound_to 4695
   88.8689   96.9274    5.6610 LP  0  0  0  0  0  0  0  0  0  0  0  0  # atno 5669 bound_to 4008
   89.0685   95.3856    5.1613 LP  0  0  0  0  0  0  0  0  0  0  0  0  # atno 5670 bound_to 4008
   87.9372  100.0211   10.0842 LP  0  0  0  0  0  0  0  0  0  0  0  0  # atno 5673 bound_to 4019
   89.5517  100.2450   10.1845 LP  0  0  0  0  0  0  0  0  0  0  0  0  # atno 5674 bound_to 4019
   88.2171   85.1617    8.5762 LP  0  0  0  0  0  0  0  0  0  0  0  0  # atno 5683 bound_to 4695
   88.4401   83.8711    7.6008 LP  0  0  0  0  0  0  0  0  0  0  0  0  # atno 5684 bound_to 4695
   87.3146   81.5196    8.9214 LP  0  0  0  0  0  0  0  0  0  0  0  0  # atno 5701 bound_to 3246
   86.5055   81.7946   10.3130 LP  0  0  0  0  0  0  0  0  0  0  0  0  # atno 5702 bound_to 3246

> <Gold.Score>
     Fitness  S(hb_ext) S(vdw_ext)  S(hb_int)    S(int)      intcor
     35.27       1.23      24.83       0.00      -0.10      -0.77

> <Gold.Goldscore.Fitness>
35.2744

> <Gold.Goldscore.Internal.Vdw>
-0.5000

> <Gold.Goldscore.Internal.Torsion>
-0.3675

> <Gold.Goldscore.External.Vdw>
24.8336

> <Gold.Goldscore.Internal.HBond>
0.0000

> <Gold.Goldscore.External.HBond>
1.2303

> <Gold.Goldscore.Internal.Correction>
-0.7653

> <Gold.Goldscore.Hbonds>
donor molecule, donor type, donor heavy atom, donor atom, acceptor molecule, acceptor atom, score
      L1  H    10    23       P1  3905  0.62

> <Gold.Goldscore.Internal.Vdw.Weighted>
-0.5000

> <Gold.Goldscore.Internal.Torsion.Weighted>
-0.3675

> <Gold.Goldscore.External.Vdw.Weighted>
34.1462

> <Gold.Goldscore.Internal.HBond.Weighted>
0.0000

> <Gold.Goldscore.External.HBond.Weighted>
1.2303

> <Gold.Goldscore.Internal.Correction.Weighted>
-0.7653

> <Gold.Rescore>
     Score     S(PLP)   S(hbond)     S(cho)   S(metal)  DE(clash)   DE(tors)     intcor
     28.45     -29.78       0.00       0.00       0.00       0.00       0.67       ----

> <Gold.PLP.Fitness>
28.4501

> <Gold.PLP.PLP>
-29.7820

> <Gold.PLP.part.hbond>
-0.0559

> <Gold.PLP.part.metal>
0.0000

> <Gold.PLP.part.buried>
19.5817

> <Gold.PLP.part.nonpolar>
-50.7252

> <Gold.PLP.part.repulsive>
1.5901

> <Gold.PLP.ligand.clash>
0.0000

> <Gold.PLP.ligand.torsion>
0.6660

> <Gold.PLP.Chemscore.Hbond>
0.0000

> <Gold.PLP.Chemscore.CHOScore>
0.0000

> <Gold.PLP.Chemscore.Metal>
0.0000

> <Gold.PLP.Chemscore.Internal.Correction>
   9.000000E+99

