#       Name:                CT1002167954
#       Creating user name   hitesit
#       Creation time:       Sun Apr 16 20:31:18 2023


#       File generated by GOLD software.
#

@<TRIPOS>MOLECULE
CT1002167954|ligand_prepared|mol2|1|dock6
    29    30     1
SMALL
NO_CHARGES


@<TRIPOS>ATOM
      1 C1         208.4159  49.6987  11.2158 C.3            1 RES1               0.0000
      2 C2         207.4980  48.6462  11.8704 C.ar           1 RES1               0.0000
      3 C3         208.9302  49.0736   9.9223 C.2            1 RES1               0.0000
      4 C4         207.5584  50.9422  11.0078 C.2            1 RES1               0.0000
      5 C5         209.6307  50.0962  12.0862 C.3            1 RES1               0.0000
      6 C6         207.8557  48.0438  13.0729 C.ar           1 RES1               0.0000
      7 C7         206.2915  48.2699  11.2861 C.ar           1 RES1               0.0000
      8 N8         208.4096  49.5324   8.7483 N.am           1 RES1               0.0000
      9 O9         209.7509  48.1645   9.9342 O.2            1 RES1               0.0000
     10 N10        207.2970  51.3340   9.7210 N.am           1 RES1               0.0000
     11 O11        207.0930  51.5766  11.9465 O.2            1 RES1               0.0000
     12 C12        210.4853  51.1979  11.4795 C.3            1 RES1               0.0000
     13 C13        207.0356  47.1016  13.6712 C.ar           1 RES1               0.0000
     14 C14        205.4730  47.3272  11.8861 C.ar           1 RES1               0.0000
     15 C15        207.6582  50.6678   8.5817 C.2            1 RES1               0.0000
     16 C16        205.8436  46.7430  13.0786 C.ar           1 RES1               0.0000
     17 O17        207.3390  51.0540   7.4609 O.2            1 RES1               0.0000
     18 H18        209.2687  50.4295  13.0666 H              1 RES1               0.0000
     19 H19        210.2574  49.2097  12.2438 H              1 RES1               0.0000
     20 H20        208.7911  48.3116  13.5529 H              1 RES1               0.0000
     21 H21        205.9801  48.7155  10.3475 H              1 RES1               0.0000
     22 H22        208.5963  48.9801   7.9173 H              1 RES1               0.0000
     23 H23        206.7859  52.2027   9.6013 H              1 RES1               0.0000
     24 H24        211.3235  51.4384  12.1302 H              1 RES1               0.0000
     25 H25        210.8828  50.8907  10.5144 H              1 RES1               0.0000
     26 H26        209.9000  52.1033  11.3324 H              1 RES1               0.0000
     27 H27        207.3325  46.6438  14.6091 H              1 RES1               0.0000
     28 H28        204.5361  47.0476  11.4158 H              1 RES1               0.0000
     29 H29        205.2012  46.0052  13.5477 H              1 RES1               0.0000
@<TRIPOS>BOND
    1    1    2 1     
    2    1    3 1     
    3    1    4 1     
    4    1    5 1     
    5    2    6 ar    
    6    2    7 ar    
    7    3    8 1     
    8    3    9 2     
    9    4   10 1     
   10    4   11 2     
   11    5   12 1     
   12    5   18 1     
   13    5   19 1     
   14    6   13 ar    
   15    6   20 1     
   16    7   14 ar    
   17    7   21 1     
   18    8   15 1     
   19    8   22 1     
   20   10   15 1     
   21   10   23 1     
   22   12   24 1     
   23   12   25 1     
   24   12   26 1     
   25   13   16 ar    
   26   13   27 1     
   27   14   16 ar    
   28   14   28 1     
   29   15   17 2     
   30   16   29 1     
@<TRIPOS>SUBSTRUCTURE
      1 RES1           1
@<TRIPOS>SET
DONOR_HYDROGENS      STATIC     ATOMS    <user>   **** ""
2 22 23
ATOM$RED        STATIC     ATOMS    COLORGROUP SYSTEM
2 22 23
@<TRIPOS>COMMENT
> <Gold.Version>
2022.3.0

> <Gold.Id.Protein>
unknown|4d1n_clean|pdb

> <Gold.Protein.RotatedTorsions>
[ 8321 8305 8306 8307 ] final -124.48 input   94.69 | X-H torsion
[ 8357 8347 8348 8349 ] final  160.82 input   68.57 | X-H torsion
[ 8421 8399 8400 8401 ] final  -89.62 input  113.07 | X-H torsion
[ 8513 8489 8490 8491 ] final  143.34 input   89.94 | X-H torsion
[ 8554 8533 8534 8535 ] final -107.79 input  110.24 | X-H torsion
[ 9082 9052 9051 9049 ] final    0.12 input   60.00 | X-H torsion
[ 8253 8231 8232 8233 ] final -158.04 input   84.65 | X-H torsion
[ 10325 10309 10310 10311 ] final -101.41 input   62.15 | X-H torsion
[ 27198 8308 8307 8306 ] final  -46.83 input   -0.00 | X-H torsion
[ 27205 8350 8349 8348 ] final   25.56 input    0.00 | X-H torsion
[ 27208 8402 8401 8400 ] final -173.93 input    0.00 | X-H torsion
[ 27211 8492 8491 8490 ] final   92.96 input   -0.00 | X-H torsion
[ 27220 8234 8233 8232 ] final  160.30 input    0.00 | X-H torsion
[ 27222 8162 8161 8160 ] final   -6.01 input    0.00 | X-H torsion
[ 27225 10312 10311 10310 ] final  105.97 input    0.00 | X-H torsion

> <Gold.Protein.ActiveResidues>
 ASP403  LEU406  ILE407  VAL431  PHE432  ASP433  ALA434  ARG435  ASP436  CYS437 
 TYR446  ASN449  THR465  ILE466 

> <Gold.Protein.RotatedAtoms>
  219.6792   45.8457   10.3875 H   0  0  0  0  0  0  0  0  0  0  0  0  # atno 8253 bound_to 8231
  216.3653   45.7830   10.7093 H   0  0  0  0  0  0  0  0  0  0  0  0  # atno 8321 bound_to 8305
  213.8784   44.4114    9.9189 H   0  0  0  0  0  0  0  0  0  0  0  0  # atno 8357 bound_to 8347
  210.6509   43.5069   10.2541 H   0  0  0  0  0  0  0  0  0  0  0  0  # atno 8421 bound_to 8399
  208.5109   45.8167    9.8441 H   0  0  0  0  0  0  0  0  0  0  0  0  # atno 8513 bound_to 8489
  207.1568   44.2430    7.3509 H   0  0  0  0  0  0  0  0  0  0  0  0  # atno 8554 bound_to 8533
  211.8030   46.4951    6.4145 H   0  0  0  0  0  0  0  0  0  0  0  0  # atno 9082 bound_to 9052
  216.0846   40.6184   10.9099 H   0  0  0  0  0  0  0  0  0  0  0  0  # atno 10325 bound_to 10309
  215.6456   46.8706    9.5421 LP  0  0  0  0  0  0  0  0  0  0  0  0  # atno 27197 bound_to 8305
  212.5510   47.3896    9.4338 LP  0  0  0  0  0  0  0  0  0  0  0  0  # atno 27198 bound_to 8308
  212.8074   46.1942    8.2069 LP  0  0  0  0  0  0  0  0  0  0  0  0  # atno 27199 bound_to 8308
  212.5264   44.8453   10.9392 LP  0  0  0  0  0  0  0  0  0  0  0  0  # atno 27204 bound_to 8347
  210.3363   41.8866    8.7851 LP  0  0  0  0  0  0  0  0  0  0  0  0  # atno 27205 bound_to 8350
  208.9181   42.6695    9.3981 LP  0  0  0  0  0  0  0  0  0  0  0  0  # atno 27206 bound_to 8350
  210.7228   45.1276   10.9057 LP  0  0  0  0  0  0  0  0  0  0  0  0  # atno 27207 bound_to 8399
  205.7876   44.2164   10.4977 LP  0  0  0  0  0  0  0  0  0  0  0  0  # atno 27208 bound_to 8402
  206.4965   43.6262   11.9637 LP  0  0  0  0  0  0  0  0  0  0  0  0  # atno 27209 bound_to 8402
  208.0269   44.1369    9.8097 LP  0  0  0  0  0  0  0  0  0  0  0  0  # atno 27210 bound_to 8489
  205.7457   44.8546    5.9240 LP  0  0  0  0  0  0  0  0  0  0  0  0  # atno 27211 bound_to 8492
  204.6610   44.1336    7.0658 LP  0  0  0  0  0  0  0  0  0  0  0  0  # atno 27212 bound_to 8492
  207.4982   43.0756    8.6079 LP  0  0  0  0  0  0  0  0  0  0  0  0  # atno 27217 bound_to 8533
  210.5310   45.5822    6.8580 LP  0  0  0  0  0  0  0  0  0  0  0  0  # atno 27218 bound_to 9052
  210.6126   46.1947    5.3464 LP  0  0  0  0  0  0  0  0  0  0  0  0  # atno 27219 bound_to 9052
  215.4244   43.9593   11.2491 LP  0  0  0  0  0  0  0  0  0  0  0  0  # atno 27220 bound_to 8234
  216.6617   43.3407   10.2067 LP  0  0  0  0  0  0  0  0  0  0  0  0  # atno 27221 bound_to 8234
  219.1721   48.2661   11.6933 LP  0  0  0  0  0  0  0  0  0  0  0  0  # atno 27222 bound_to 8162
  218.2248   47.7764   10.3285 LP  0  0  0  0  0  0  0  0  0  0  0  0  # atno 27223 bound_to 8162
  218.6256   44.7665   11.2640 LP  0  0  0  0  0  0  0  0  0  0  0  0  # atno 27224 bound_to 8231
  212.5454   42.4535   10.8108 LP  0  0  0  0  0  0  0  0  0  0  0  0  # atno 27225 bound_to 10312
  212.4106   42.7143   12.5178 LP  0  0  0  0  0  0  0  0  0  0  0  0  # atno 27226 bound_to 10312

> <Gold.Score>
     Fitness  S(hb_ext) S(vdw_ext)  S(hb_int)    S(int)      intcor
     25.04       3.99      15.84       0.00      -0.74      -0.76

> <Gold.Goldscore.Fitness>
25.0352

> <Gold.Goldscore.Internal.Vdw>
-1.1163

> <Gold.Goldscore.Internal.Torsion>
-0.3874

> <Gold.Goldscore.External.Vdw>
15.8430

> <Gold.Goldscore.Internal.HBond>
0.0000

> <Gold.Goldscore.External.HBond>
3.9900

> <Gold.Goldscore.Internal.Correction>
-0.7650

> <Gold.Goldscore.Hbonds>
donor molecule, donor type, donor heavy atom, donor atom, acceptor molecule, acceptor atom, score
      P1  H  8489  8513       L1     9  0.03
      L1  H     8    22       P1  8496  0.65

> <Gold.Goldscore.Internal.Vdw.Weighted>
-1.1163

> <Gold.Goldscore.Internal.Torsion.Weighted>
-0.3874

> <Gold.Goldscore.External.Vdw.Weighted>
21.7841

> <Gold.Goldscore.Internal.HBond.Weighted>
0.0000

> <Gold.Goldscore.External.HBond.Weighted>
3.9900

> <Gold.Goldscore.Internal.Correction.Weighted>
-0.7650

> <Gold.Rescore>
     Score     S(PLP)   S(hbond)     S(cho)   S(metal)  DE(clash)   DE(tors)     intcor
     25.01     -22.06       1.00       0.00       0.00       0.00       0.02       ----

> <Gold.PLP.Fitness>
25.0079

> <Gold.PLP.PLP>
-22.0561

> <Gold.PLP.part.hbond>
-1.0000

> <Gold.PLP.part.metal>
0.0000

> <Gold.PLP.part.buried>
-4.5529

> <Gold.PLP.part.nonpolar>
-17.5736

> <Gold.PLP.part.repulsive>
0.3818

> <Gold.PLP.ligand.clash>
0.0000

> <Gold.PLP.ligand.torsion>
0.0241

> <Gold.PLP.Chemscore.Hbond>
1.0000

> <Gold.PLP.Chemscore.CHOScore>
0.0000

> <Gold.PLP.Chemscore.Metal>
0.0000

> <Gold.Chemscore.Hbonds>
donor molecule, donor type, donor heavy atom, donor atom, acceptor molecule, acceptor atom, score
      L1  H     8    22       P1  8496  1.00

> <Gold.PLP.Chemscore.Internal.Correction>
   9.000000E+99

