#       Name:                CT1002167954
#       Creating user name   hitesit
#       Creation time:       Sun Apr 16 20:31:17 2023


#       File generated by GOLD software.
#

@<TRIPOS>MOLECULE
CT1002167954|ligand_prepared|mol2|1|dock3
    29    30     1
SMALL
NO_CHARGES


@<TRIPOS>ATOM
      1 C1         207.7268  49.1660  11.5959 C.3            1 RES1               0.0000
      2 C2         208.8083  48.8102  10.5555 C.ar           1 RES1               0.0000
      3 C3         206.6501  48.0912  11.4793 C.2            1 RES1               0.0000
      4 C4         208.4301  49.1981  12.9483 C.2            1 RES1               0.0000
      5 C5         207.0694  50.5468  11.3664 C.3            1 RES1               0.0000
      6 C6         209.4442  49.8091   9.8244 C.ar           1 RES1               0.0000
      7 C7         209.1821  47.4901  10.3180 C.ar           1 RES1               0.0000
      8 N8         206.5803  47.1566  12.4701 N.am           1 RES1               0.0000
      9 O9         205.8993  48.0410  10.5129 O.2            1 RES1               0.0000
     10 N10        208.0765  48.2559  13.8784 N.am           1 RES1               0.0000
     11 O11        209.2990  50.0204  13.2110 O.2            1 RES1               0.0000
     12 C12        205.8371  50.7892  12.2237 C.3            1 RES1               0.0000
     13 C13        210.4204  49.5000   8.8918 C.ar           1 RES1               0.0000
     14 C14        210.1585  47.1831   9.3848 C.ar           1 RES1               0.0000
     15 C15        207.2055  47.2176  13.6897 C.2            1 RES1               0.0000
     16 C16        210.7785  48.1870   8.6717 C.ar           1 RES1               0.0000
     17 O17        206.9799  46.3782  14.5566 O.2            1 RES1               0.0000
     18 H18        207.8078  51.3294  11.5802 H              1 RES1               0.0000
     19 H19        206.7867  50.6321  10.3099 H              1 RES1               0.0000
     20 H20        209.1739  50.8479   9.9822 H              1 RES1               0.0000
     21 H21        208.7070  46.6839  10.8666 H              1 RES1               0.0000
     22 H22        206.0108  46.3365  12.2874 H              1 RES1               0.0000
     23 H23        208.5019  48.3360  14.7965 H              1 RES1               0.0000
     24 H24        205.4151  51.7719  12.0235 H              1 RES1               0.0000
     25 H25        205.0717  50.0436  12.0187 H              1 RES1               0.0000
     26 H26        206.0867  50.7367  13.2815 H              1 RES1               0.0000
     27 H27        210.9045  50.2936   8.3322 H              1 RES1               0.0000
     28 H28        210.4367  46.1483   9.2144 H              1 RES1               0.0000
     29 H29        211.5436  47.9451   7.9414 H              1 RES1               0.0000
@<TRIPOS>BOND
    1    1    2 1     
    2    1    3 1     
    3    1    4 1     
    4    1    5 1     
    5    2    6 ar    
    6    2    7 ar    
    7    3    8 1     
    8    3    9 2     
    9    4   10 1     
   10    4   11 2     
   11    5   12 1     
   12    5   18 1     
   13    5   19 1     
   14    6   13 ar    
   15    6   20 1     
   16    7   14 ar    
   17    7   21 1     
   18    8   15 1     
   19    8   22 1     
   20   10   15 1     
   21   10   23 1     
   22   12   24 1     
   23   12   25 1     
   24   12   26 1     
   25   13   16 ar    
   26   13   27 1     
   27   14   16 ar    
   28   14   28 1     
   29   15   17 2     
   30   16   29 1     
@<TRIPOS>SUBSTRUCTURE
      1 RES1           1
@<TRIPOS>SET
DONOR_HYDROGENS      STATIC     ATOMS    <user>   **** ""
2 22 23
ATOM$RED        STATIC     ATOMS    COLORGROUP SYSTEM
2 22 23
@<TRIPOS>COMMENT
> <Gold.Version>
2022.3.0

> <Gold.Id.Protein>
unknown|4d1n_clean|pdb

> <Gold.Protein.RotatedTorsions>
[ 8321 8305 8306 8307 ] final  -13.11 input   94.69 | X-H torsion
[ 8357 8347 8348 8349 ] final  -78.07 input   68.57 | X-H torsion
[ 8421 8399 8400 8401 ] final  -60.92 input  113.07 | X-H torsion
[ 8513 8489 8490 8491 ] final  -59.80 input   89.94 | X-H torsion
[ 8554 8533 8534 8535 ] final  105.20 input  110.24 | X-H torsion
[ 9082 9052 9051 9049 ] final -173.69 input   60.00 | X-H torsion
[ 8253 8231 8232 8233 ] final  169.66 input   84.65 | X-H torsion
[ 10325 10309 10310 10311 ] final -146.67 input   62.15 | X-H torsion
[ 27198 8308 8307 8306 ] final -160.60 input   -0.00 | X-H torsion
[ 27205 8350 8349 8348 ] final   63.77 input    0.00 | X-H torsion
[ 27208 8402 8401 8400 ] final  107.97 input    0.00 | X-H torsion
[ 27211 8492 8491 8490 ] final  165.24 input   -0.00 | X-H torsion
[ 27220 8234 8233 8232 ] final   40.42 input    0.00 | X-H torsion
[ 27222 8162 8161 8160 ] final -122.28 input    0.00 | X-H torsion
[ 27225 10312 10311 10310 ] final   84.93 input    0.00 | X-H torsion

> <Gold.Protein.ActiveResidues>
 ASP403  LEU406  ILE407  VAL431  PHE432  ASP433  ALA434  ARG435  ASP436  CYS437 
 TYR446  ASN449  THR465  ILE466 

> <Gold.Protein.RotatedAtoms>
  219.7554   45.4007   10.2014 H   0  0  0  0  0  0  0  0  0  0  0  0  # atno 8253 bound_to 8231
  215.6617   45.8908    9.4242 H   0  0  0  0  0  0  0  0  0  0  0  0  # atno 8321 bound_to 8305
  212.7828   45.4107   10.3444 H   0  0  0  0  0  0  0  0  0  0  0  0  # atno 8357 bound_to 8347
  210.4481   43.7541    9.9535 H   0  0  0  0  0  0  0  0  0  0  0  0  # atno 8421 bound_to 8399
  207.8327   44.2372   10.0853 H   0  0  0  0  0  0  0  0  0  0  0  0  # atno 8513 bound_to 8489
  207.9468   43.1854    8.4233 H   0  0  0  0  0  0  0  0  0  0  0  0  # atno 8554 bound_to 8533
  210.1668   45.6492    6.0925 H   0  0  0  0  0  0  0  0  0  0  0  0  # atno 9082 bound_to 9052
  216.4974   40.8960   11.3806 H   0  0  0  0  0  0  0  0  0  0  0  0  # atno 10325 bound_to 10309
  216.3267   46.7663   10.7860 LP  0  0  0  0  0  0  0  0  0  0  0  0  # atno 27197 bound_to 8305
  211.9959   46.2769    8.6864 LP  0  0  0  0  0  0  0  0  0  0  0  0  # atno 27198 bound_to 8308
  213.3625   47.3068    8.9544 LP  0  0  0  0  0  0  0  0  0  0  0  0  # atno 27199 bound_to 8308
  213.5935   43.8721   10.5248 LP  0  0  0  0  0  0  0  0  0  0  0  0  # atno 27204 bound_to 8347
  210.2305   41.6958    9.3083 LP  0  0  0  0  0  0  0  0  0  0  0  0  # atno 27205 bound_to 8350
  209.0238   42.8603    8.8749 LP  0  0  0  0  0  0  0  0  0  0  0  0  # atno 27206 bound_to 8350
  210.9204   44.8867   11.1986 LP  0  0  0  0  0  0  0  0  0  0  0  0  # atno 27207 bound_to 8399
  205.9640   44.7433   11.4369 LP  0  0  0  0  0  0  0  0  0  0  0  0  # atno 27208 bound_to 8402
  206.3201   43.0992   11.0245 LP  0  0  0  0  0  0  0  0  0  0  0  0  # atno 27209 bound_to 8402
  208.6871   45.6747    9.5749 LP  0  0  0  0  0  0  0  0  0  0  0  0  # atno 27210 bound_to 8489
  205.5458   43.8573    6.0182 LP  0  0  0  0  0  0  0  0  0  0  0  0  # atno 27211 bound_to 8492
  204.8608   45.1309    6.9716 LP  0  0  0  0  0  0  0  0  0  0  0  0  # atno 27212 bound_to 8492
  206.7302   44.1038    7.5654 LP  0  0  0  0  0  0  0  0  0  0  0  0  # atno 27217 bound_to 8533
  211.3591   46.5806    5.4933 LP  0  0  0  0  0  0  0  0  0  0  0  0  # atno 27218 bound_to 9052
  211.4318   46.0479    7.0352 LP  0  0  0  0  0  0  0  0  0  0  0  0  # atno 27219 bound_to 9052
  216.8553   43.5759   11.0190 LP  0  0  0  0  0  0  0  0  0  0  0  0  # atno 27220 bound_to 8234
  215.2308   43.7241   10.4367 LP  0  0  0  0  0  0  0  0  0  0  0  0  # atno 27221 bound_to 8234
  217.8852   47.7743   11.1775 LP  0  0  0  0  0  0  0  0  0  0  0  0  # atno 27222 bound_to 8162
  219.5116   48.2681   10.8443 LP  0  0  0  0  0  0  0  0  0  0  0  0  # atno 27223 bound_to 8162
  218.5504   45.2056   11.4476 LP  0  0  0  0  0  0  0  0  0  0  0  0  # atno 27224 bound_to 8231
  212.8202   42.5987   10.8689 LP  0  0  0  0  0  0  0  0  0  0  0  0  # atno 27225 bound_to 10312
  212.1357   42.5691   12.4597 LP  0  0  0  0  0  0  0  0  0  0  0  0  # atno 27226 bound_to 10312

> <Gold.Score>
     Fitness  S(hb_ext) S(vdw_ext)  S(hb_int)    S(int)      intcor
     30.82       0.00      22.88       0.00      -0.64      -0.78

> <Gold.Goldscore.Fitness>
30.8237

> <Gold.Goldscore.Internal.Vdw>
-0.8595

> <Gold.Goldscore.Internal.Torsion>
-0.5539

> <Gold.Goldscore.External.Vdw>
22.8801

> <Gold.Goldscore.Internal.HBond>
0.0000

> <Gold.Goldscore.External.HBond>
0.0000

> <Gold.Goldscore.Internal.Correction>
-0.7769

> <Gold.Goldscore.Internal.Vdw.Weighted>
-0.8595

> <Gold.Goldscore.Internal.Torsion.Weighted>
-0.5539

> <Gold.Goldscore.External.Vdw.Weighted>
31.4601

> <Gold.Goldscore.Internal.HBond.Weighted>
0.0000

> <Gold.Goldscore.External.HBond.Weighted>
0.0000

> <Gold.Goldscore.Internal.Correction.Weighted>
-0.7769

> <Gold.Rescore>
     Score     S(PLP)   S(hbond)     S(cho)   S(metal)  DE(clash)   DE(tors)     intcor
     26.25     -26.44       0.00       0.00       0.00       0.00       0.10       ----

> <Gold.PLP.Fitness>
26.2493

> <Gold.PLP.PLP>
-26.4430

> <Gold.PLP.part.hbond>
-1.3227

> <Gold.PLP.part.metal>
0.0000

> <Gold.PLP.part.buried>
-5.9282

> <Gold.PLP.part.nonpolar>
-20.4883

> <Gold.PLP.part.repulsive>
0.5869

> <Gold.PLP.ligand.clash>
0.0000

> <Gold.PLP.ligand.torsion>
0.0969

> <Gold.PLP.Chemscore.Hbond>
0.0000

> <Gold.PLP.Chemscore.CHOScore>
0.0000

> <Gold.PLP.Chemscore.Metal>
0.0000

> <Gold.PLP.Chemscore.Internal.Correction>
   9.000000E+99

