#       Name:                CT1002167954
#       Creating user name   hitesit
#       Creation time:       Sun Apr 16 20:31:16 2023


#       File generated by GOLD software.
#

@<TRIPOS>MOLECULE
CT1002167954|ligand_prepared|mol2|1|dock2
    29    30     1
SMALL
NO_CHARGES


@<TRIPOS>ATOM
      1 C1         206.4345  48.1381  13.7277 C.3            1 RES1               0.0000
      2 C2         207.6650  48.3585  12.8244 C.ar           1 RES1               0.0000
      3 C3         206.9753  47.8277  15.1203 C.2            1 RES1               0.0000
      4 C4         205.6135  49.4206  13.6507 C.2            1 RES1               0.0000
      5 C5         205.5319  46.9654  13.2787 C.3            1 RES1               0.0000
      6 C6         208.6392  49.2906  13.1691 C.ar           1 RES1               0.0000
      7 C7         207.8409  47.6366  11.6469 C.ar           1 RES1               0.0000
      8 N8         206.8697  48.8004  16.0704 N.am           1 RES1               0.0000
      9 O9         207.5218  46.7604  15.3703 O.2            1 RES1               0.0000
     10 N10        205.4898  50.1730  14.7892 N.am           1 RES1               0.0000
     11 O11        205.0866  49.7948  12.6103 O.2            1 RES1               0.0000
     12 C12        204.3859  46.6729  14.2344 C.3            1 RES1               0.0000
     13 C13        209.7505  49.4918  12.3672 C.ar           1 RES1               0.0000
     14 C14        208.9528  47.8396  10.8463 C.ar           1 RES1               0.0000
     15 C15        206.1062  49.9370  15.9878 C.2            1 RES1               0.0000
     16 C16        209.9083  48.7662  11.2057 C.ar           1 RES1               0.0000
     17 O17        205.9896  50.6897  16.9506 O.2            1 RES1               0.0000
     18 H18        205.1167  47.1977  12.2902 H              1 RES1               0.0000
     19 H19        206.1481  46.0632  13.1799 H              1 RES1               0.0000
     20 H20        208.5309  49.8727  14.0782 H              1 RES1               0.0000
     21 H21        207.1016  46.9031  11.3437 H              1 RES1               0.0000
     22 H22        207.4083  48.6707  16.9209 H              1 RES1               0.0000
     23 H23        204.8818  50.9842  14.7386 H              1 RES1               0.0000
     24 H24        203.7842  45.8419  13.8723 H              1 RES1               0.0000
     25 H25        204.7633  46.4133  15.2213 H              1 RES1               0.0000
     26 H26        203.7381  47.5411  14.3369 H              1 RES1               0.0000
     27 H27        210.4988  50.2233  12.6538 H              1 RES1               0.0000
     28 H28        209.0726  47.2667   9.9327 H              1 RES1               0.0000
     29 H29        210.7791  48.9237  10.5779 H              1 RES1               0.0000
@<TRIPOS>BOND
    1    1    2 1     
    2    1    3 1     
    3    1    4 1     
    4    1    5 1     
    5    2    6 ar    
    6    2    7 ar    
    7    3    8 1     
    8    3    9 2     
    9    4   10 1     
   10    4   11 2     
   11    5   12 1     
   12    5   18 1     
   13    5   19 1     
   14    6   13 ar    
   15    6   20 1     
   16    7   14 ar    
   17    7   21 1     
   18    8   15 1     
   19    8   22 1     
   20   10   15 1     
   21   10   23 1     
   22   12   24 1     
   23   12   25 1     
   24   12   26 1     
   25   13   16 ar    
   26   13   27 1     
   27   14   16 ar    
   28   14   28 1     
   29   15   17 2     
   30   16   29 1     
@<TRIPOS>SUBSTRUCTURE
      1 RES1           1
@<TRIPOS>SET
DONOR_HYDROGENS      STATIC     ATOMS    <user>   **** ""
2 22 23
ATOM$RED        STATIC     ATOMS    COLORGROUP SYSTEM
2 22 23
@<TRIPOS>COMMENT
> <Gold.Version>
2022.3.0

> <Gold.Id.Protein>
unknown|4d1n_clean|pdb

> <Gold.Protein.RotatedTorsions>
[ 8321 8305 8306 8307 ] final  101.62 input   94.69 | X-H torsion
[ 8357 8347 8348 8349 ] final  166.16 input   68.57 | X-H torsion
[ 8421 8399 8400 8401 ] final   23.61 input  113.07 | X-H torsion
[ 8513 8489 8490 8491 ] final -119.91 input   89.94 | X-H torsion
[ 8554 8533 8534 8535 ] final  115.46 input  110.24 | X-H torsion
[ 9082 9052 9051 9049 ] final  127.23 input   60.00 | X-H torsion
[ 8253 8231 8232 8233 ] final   53.75 input   84.65 | X-H torsion
[ 10325 10309 10310 10311 ] final -132.16 input   62.15 | X-H torsion
[ 27198 8308 8307 8306 ] final   78.93 input   -0.00 | X-H torsion
[ 27205 8350 8349 8348 ] final   54.95 input    0.00 | X-H torsion
[ 27208 8402 8401 8400 ] final  121.06 input    0.00 | X-H torsion
[ 27211 8492 8491 8490 ] final   64.72 input   -0.00 | X-H torsion
[ 27220 8234 8233 8232 ] final  -76.31 input    0.00 | X-H torsion
[ 27222 8162 8161 8160 ] final   -0.32 input    0.00 | X-H torsion
[ 27225 10312 10311 10310 ] final  -26.92 input    0.00 | X-H torsion

> <Gold.Protein.ActiveResidues>
 ASP403  LEU406  ILE407  VAL431  PHE432  ASP433  ALA434  ARG435  ASP436  CYS437 
 TYR446  ASN449  THR465  ILE466 

> <Gold.Protein.RotatedAtoms>
  218.8601   44.4835   10.9583 H   0  0  0  0  0  0  0  0  0  0  0  0  # atno 8253 bound_to 8231
  215.8801   47.2164   10.0863 H   0  0  0  0  0  0  0  0  0  0  0  0  # atno 8321 bound_to 8305
  213.8698   44.4852    9.8827 H   0  0  0  0  0  0  0  0  0  0  0  0  # atno 8357 bound_to 8347
  210.3003   44.9307   10.0640 H   0  0  0  0  0  0  0  0  0  0  0  0  # atno 8421 bound_to 8399
  207.7287   44.9975   10.5306 H   0  0  0  0  0  0  0  0  0  0  0  0  # atno 8513 bound_to 8489
  208.0497   43.2614    8.3298 H   0  0  0  0  0  0  0  0  0  0  0  0  # atno 8554 bound_to 8533
  210.5289   46.1255    5.3892 H   0  0  0  0  0  0  0  0  0  0  0  0  # atno 9082 bound_to 9052
  216.3949   40.7560   11.2377 H   0  0  0  0  0  0  0  0  0  0  0  0  # atno 10325 bound_to 10309
  216.1153   45.4831   10.1452 LP  0  0  0  0  0  0  0  0  0  0  0  0  # atno 27197 bound_to 8305
  213.4059   46.6856    8.3615 LP  0  0  0  0  0  0  0  0  0  0  0  0  # atno 27198 bound_to 8308
  211.9525   46.8981    9.2793 LP  0  0  0  0  0  0  0  0  0  0  0  0  # atno 27199 bound_to 8308
  212.5348   44.7735   10.9744 LP  0  0  0  0  0  0  0  0  0  0  0  0  # atno 27204 bound_to 8347
  210.2816   41.7190    9.1876 LP  0  0  0  0  0  0  0  0  0  0  0  0  # atno 27205 bound_to 8350
  208.9728   42.8371    8.9956 LP  0  0  0  0  0  0  0  0  0  0  0  0  # atno 27206 bound_to 8350
  211.0645   43.7401   11.0909 LP  0  0  0  0  0  0  0  0  0  0  0  0  # atno 27207 bound_to 8399
  205.8950   44.7510   11.2520 LP  0  0  0  0  0  0  0  0  0  0  0  0  # atno 27208 bound_to 8402
  206.3891   43.0915   11.2095 LP  0  0  0  0  0  0  0  0  0  0  0  0  # atno 27209 bound_to 8402
  208.7884   44.9344    9.1413 LP  0  0  0  0  0  0  0  0  0  0  0  0  # atno 27210 bound_to 8489
  205.5930   45.1825    6.1424 LP  0  0  0  0  0  0  0  0  0  0  0  0  # atno 27211 bound_to 8492
  204.8136   43.8057    6.8473 LP  0  0  0  0  0  0  0  0  0  0  0  0  # atno 27212 bound_to 8492
  206.6301   44.0299    7.6563 LP  0  0  0  0  0  0  0  0  0  0  0  0  # atno 27217 bound_to 8533
  211.8067   46.5410    6.3073 LP  0  0  0  0  0  0  0  0  0  0  0  0  # atno 27218 bound_to 9052
  210.6197   45.6079    6.9293 LP  0  0  0  0  0  0  0  0  0  0  0  0  # atno 27219 bound_to 9052
  215.8981   43.4028    9.9107 LP  0  0  0  0  0  0  0  0  0  0  0  0  # atno 27220 bound_to 8234
  216.1880   43.8972   11.5451 LP  0  0  0  0  0  0  0  0  0  0  0  0  # atno 27221 bound_to 8234
  219.2365   48.2802   11.6382 LP  0  0  0  0  0  0  0  0  0  0  0  0  # atno 27222 bound_to 8162
  218.1604   47.7623   10.3837 LP  0  0  0  0  0  0  0  0  0  0  0  0  # atno 27223 bound_to 8162
  219.4338   46.1107   10.7007 LP  0  0  0  0  0  0  0  0  0  0  0  0  # atno 27224 bound_to 8231
  213.0022   42.9512   12.2476 LP  0  0  0  0  0  0  0  0  0  0  0  0  # atno 27225 bound_to 10312
  211.9538   42.2166   11.0809 LP  0  0  0  0  0  0  0  0  0  0  0  0  # atno 27226 bound_to 10312

> <Gold.Score>
     Fitness  S(hb_ext) S(vdw_ext)  S(hb_int)    S(int)      intcor
     28.96       0.00      21.11       0.00      -0.07      -0.78

> <Gold.Goldscore.Fitness>
28.9574

> <Gold.Goldscore.Internal.Vdw>
-0.4341

> <Gold.Goldscore.Internal.Torsion>
-0.4082

> <Gold.Goldscore.External.Vdw>
21.1075

> <Gold.Goldscore.Internal.HBond>
0.0000

> <Gold.Goldscore.External.HBond>
0.0000

> <Gold.Goldscore.Internal.Correction>
-0.7769

> <Gold.Goldscore.Internal.Vdw.Weighted>
-0.4341

> <Gold.Goldscore.Internal.Torsion.Weighted>
-0.4082

> <Gold.Goldscore.External.Vdw.Weighted>
29.0228

> <Gold.Goldscore.Internal.HBond.Weighted>
0.0000

> <Gold.Goldscore.External.HBond.Weighted>
0.0000

> <Gold.Goldscore.Internal.Correction.Weighted>
-0.7769

> <Gold.Rescore>
     Score     S(PLP)   S(hbond)     S(cho)   S(metal)  DE(clash)   DE(tors)     intcor
     21.72     -21.74       0.00       0.00       0.00       0.00       0.01       ----

> <Gold.PLP.Fitness>
21.7152

> <Gold.PLP.PLP>
-21.7369

> <Gold.PLP.part.hbond>
-1.9167

> <Gold.PLP.part.metal>
0.0000

> <Gold.PLP.part.buried>
-1.2423

> <Gold.PLP.part.nonpolar>
-19.1845

> <Gold.PLP.part.repulsive>
0.1956

> <Gold.PLP.ligand.clash>
0.0000

> <Gold.PLP.ligand.torsion>
0.0108

> <Gold.PLP.Chemscore.Hbond>
0.0000

> <Gold.PLP.Chemscore.CHOScore>
0.0000

> <Gold.PLP.Chemscore.Metal>
0.0000

> <Gold.PLP.Chemscore.Internal.Correction>
   9.000000E+99

