#       Name:                CT1002167954
#       Creating user name   hitesit
#       Creation time:       Sun Apr 16 20:22:43 2023


#       File generated by GOLD software.
#

@<TRIPOS>MOLECULE
CT1002167954|ligand_prepared|mol2|1|dock3
    29    30     1
SMALL
NO_CHARGES


@<TRIPOS>ATOM
      1 C1         142.8634 141.6372 169.3151 C.3            1 RES1               0.0000
      2 C2         144.2592 141.2345 169.8333 C.ar           1 RES1               0.0000
      3 C3         142.4536 140.5645 168.3102 C.2            1 RES1               0.0000
      4 C4         141.9604 141.7189 170.5409 C.2            1 RES1               0.0000
      5 C5         142.8326 143.0114 168.6065 C.3            1 RES1               0.0000
      6 C6         144.5513 139.9048 170.1221 C.ar           1 RES1               0.0000
      7 C7         145.2638 142.1793 170.0248 C.ar           1 RES1               0.0000
      8 N8         141.4984 139.6703 168.6949 N.am           1 RES1               0.0000
      9 O9         142.9887 140.4802 167.2117 O.2            1 RES1               0.0000
     10 N10        140.9346 140.8162 170.6440 N.am           1 RES1               0.0000
     11 O11        142.1381 142.5461 171.4265 O.2            1 RES1               0.0000
     12 C12        141.5127 143.3154 167.9154 C.3            1 RES1               0.0000
     13 C13        145.8034 139.5327 170.5827 C.ar           1 RES1               0.0000
     14 C14        146.5151 141.8050 170.4858 C.ar           1 RES1               0.0000
     15 C15        140.6814 139.7761 169.7917 C.2            1 RES1               0.0000
     16 C16        146.7862 140.4823 170.7645 C.ar           1 RES1               0.0000
     17 O17        139.7725 138.9729 169.9808 O.2            1 RES1               0.0000
     18 H18        143.0319 143.7953 169.3476 H              1 RES1               0.0000
     19 H19        143.6368 143.0425 167.8610 H              1 RES1               0.0000
     20 H20        143.7898 139.1439 169.9875 H              1 RES1               0.0000
     21 H21        145.0728 143.2259 169.8132 H              1 RES1               0.0000
     22 H22        141.3807 138.8468 168.1133 H              1 RES1               0.0000
     23 H23        140.3009 140.9303 171.4287 H              1 RES1               0.0000
     24 H24        141.5448 144.2908 167.4344 H              1 RES1               0.0000
     25 H25        141.2951 142.5692 167.1541 H              1 RES1               0.0000
     26 H26        140.6938 143.3176 168.6317 H              1 RES1               0.0000
     27 H27        146.0112 138.4905 170.8019 H              1 RES1               0.0000
     28 H28        147.2854 142.5558 170.6280 H              1 RES1               0.0000
     29 H29        147.7670 140.1904 171.1250 H              1 RES1               0.0000
@<TRIPOS>BOND
    1    1    2 1     
    2    1    3 1     
    3    1    4 1     
    4    1    5 1     
    5    2    6 ar    
    6    2    7 ar    
    7    3    8 1     
    8    3    9 2     
    9    4   10 1     
   10    4   11 2     
   11    5   12 1     
   12    5   18 1     
   13    5   19 1     
   14    6   13 ar    
   15    6   20 1     
   16    7   14 ar    
   17    7   21 1     
   18    8   15 1     
   19    8   22 1     
   20   10   15 1     
   21   10   23 1     
   22   12   24 1     
   23   12   25 1     
   24   12   26 1     
   25   13   16 ar    
   26   13   27 1     
   27   14   16 ar    
   28   14   28 1     
   29   15   17 2     
   30   16   29 1     
@<TRIPOS>SUBSTRUCTURE
      1 RES1           1
@<TRIPOS>SET
DONOR_HYDROGENS      STATIC     ATOMS    <user>   **** ""
2 22 23
ATOM$RED        STATIC     ATOMS    COLORGROUP SYSTEM
2 22 23
@<TRIPOS>COMMENT
> <Gold.Version>
2022.3.0

> <Gold.Id.Protein>
unknown|7rmh_cavity_clean|pdb

> <Gold.Protein.RotatedTorsions>
[ 5151 5142 5141 5139 ] final   43.75 input   59.98 | X-H torsion
[ 5186 5181 5180 5177 ] final   73.72 input   59.99 | X-H torsion
[ 6481 6474 6475 6476 ] final  171.80 input  103.68 | X-H torsion
[  676  663  664  665 ] final -178.56 input  108.58 | X-H torsion
[  692  687  686  683 ] final  169.34 input   59.99 | X-H torsion
[  713  708  707  706 ] final    3.80 input   60.01 | X-H torsion
[ 1581 1565 1566 1567 ] final  -87.05 input  115.26 | X-H torsion
[ 2436 2427 2428 2429 ] final   66.88 input   99.19 | X-H torsion
[ 2461 2452 2451 2449 ] final  -72.07 input   60.00 | X-H torsion
[ 2493 2473 2474 2475 ] final -138.49 input  111.54 | X-H torsion
[ 1670 1661 1660 1658 ] final   19.23 input   59.97 | X-H torsion
[ 1788 1769 1770 1771 ] final -102.11 input  122.82 | X-H torsion
[ 4502 4497 4496 4493 ] final  -43.56 input   59.97 | X-H torsion
[ 1878 1867 1866 1863 ] final   10.32 input   59.99 | X-H torsion
[ 1879 1868 1869 1870 ] final -157.41 input   29.02 | X-H torsion
[ 1883 1873 1872 1869 ] final   15.45 input   60.02 | X-H torsion
[ 1328 1317 1316 1315 ] final -169.58 input   60.01 | X-H torsion
[ 4472 4458 4456 4453 ] final -147.00 input   59.98 | X-H torsion
[ 4473 4459 4460 4461 ] final -142.22 input   43.99 | X-H torsion
[ 4479 4465 4463 4460 ] final   14.28 input   60.01 | X-H torsion
[ 14767 6477 6476 6475 ] final -134.22 input   -0.00 | X-H torsion
[ 14784  666  665  664 ] final    3.34 input   -0.00 | X-H torsion
[ 14799 1568 1567 1566 ] final  -16.13 input    0.00 | X-H torsion
[ 14808 2430 2429 2428 ] final  -56.63 input    0.00 | X-H torsion
[ 14821 2476 2475 2474 ] final  -46.21 input    0.00 | X-H torsion
[ 14872 1772 1771 1770 ] final   35.32 input    0.00 | X-H torsion
[ 14899 1871 1870 1869 ] final  161.44 input    0.00 | X-H torsion
[ 14944 4462 4461 4460 ] final -152.39 input    0.00 | X-H torsion

> <Gold.Protein.ActiveResidues>
 LEU46   GLY47   ALA48   ASP49   ASN50   SER51   LYS53   VAL224  GLY225  GLY226 
 GLN227  ARG228  ASP229  GLU230  ARG231  ARG232  LYS233  TRP234  ILE235  GLN236 
 CYS237  PHE246  VAL247  VAL248  ASP249  ASP252  TYR253  ASN264  ARG265  LEU266 
 GLN267  GLU268  ALA269  LEU270  ASN271  LEU272  LYS274  SER275  ASN278  ASN279 
 ARG280  TRP281  ASP310  TYR311  PHE312  GLU344  ARG347  ILE348  ALA351  ILE18  
 TRP63   THR65   ASP66   SER67   ARG68   LEU69   TYR105  ALA106  PRO107  SER108 
 GLY109  ASN110  CYS149  ARG150  PHE151  ASP154  ASN155  GLN156  LEU192  ALA193 
 PRO194  ASP195  THR196  ARG197  LEU198  VAL200  ILE229  ASN230  ALA231  CYS233 
 PHE235 

> <Gold.Protein.RotatedAtoms>
  125.5025  142.1641  126.2232 H   0  0  0  0  0  0  0  0  0  0  0  0  # atno 676  bound_to 663 
  151.7532  116.2792  166.9923 H   0  0  0  0  0  0  0  0  0  0  0  0  # atno 692  bound_to 687 
  153.0787  121.5779  167.3309 H   0  0  0  0  0  0  0  0  0  0  0  0  # atno 713  bound_to 708 
  153.4860  121.4642  168.9329 H   0  0  0  0  0  0  0  0  0  0  0  0  # atno 714  bound_to 708 
  154.2977  122.5174  167.9441 H   0  0  0  0  0  0  0  0  0  0  0  0  # atno 715  bound_to 708 
  139.5022  137.2034  174.3823 H   0  0  0  0  0  0  0  0  0  0  0  0  # atno 1328 bound_to 1317
  139.6336  135.8082  173.4969 H   0  0  0  0  0  0  0  0  0  0  0  0  # atno 1329 bound_to 1317
  140.6554  136.0791  174.7736 H   0  0  0  0  0  0  0  0  0  0  0  0  # atno 1330 bound_to 1317
  133.9212  122.9050  131.2282 H   0  0  0  0  0  0  0  0  0  0  0  0  # atno 1581 bound_to 1565
  146.1262  101.2135  167.7229 H   0  0  0  0  0  0  0  0  0  0  0  0  # atno 1670 bound_to 1661
  137.3814  134.1192   98.8766 H   0  0  0  0  0  0  0  0  0  0  0  0  # atno 1788 bound_to 1769
  140.0486  122.8945  167.9359 H   0  0  0  0  0  0  0  0  0  0  0  0  # atno 1878 bound_to 1867
  138.3984  146.7708  169.6327 H   0  0  0  0  0  0  0  0  0  0  0  0  # atno 1879 bound_to 1868
  140.1959  147.7239  168.7963 H   0  0  0  0  0  0  0  0  0  0  0  0  # atno 1883 bound_to 1873
  127.5454  132.0441  140.4484 H   0  0  0  0  0  0  0  0  0  0  0  0  # atno 2436 bound_to 2427
  145.2866  102.7740  176.8579 H   0  0  0  0  0  0  0  0  0  0  0  0  # atno 2461 bound_to 2452
  127.4628  136.7698  139.5450 H   0  0  0  0  0  0  0  0  0  0  0  0  # atno 2493 bound_to 2473
  152.8024  163.4268  172.2628 H   0  0  0  0  0  0  0  0  0  0  0  0  # atno 4472 bound_to 4458
  138.0047  144.2271  140.5669 H   0  0  0  0  0  0  0  0  0  0  0  0  # atno 4473 bound_to 4459
  137.7278  142.5016  141.6779 H   0  0  0  0  0  0  0  0  0  0  0  0  # atno 4479 bound_to 4465
  146.4586  165.0568  167.4268 H   0  0  0  0  0  0  0  0  0  0  0  0  # atno 4502 bound_to 4497
  156.2562  161.4779  164.6948 H   0  0  0  0  0  0  0  0  0  0  0  0  # atno 5151 bound_to 5142
  159.1633  163.5175  174.4499 H   0  0  0  0  0  0  0  0  0  0  0  0  # atno 5186 bound_to 5181
  145.8642  139.6173  106.2049 H   0  0  0  0  0  0  0  0  0  0  0  0  # atno 6481 bound_to 6474
  157.1771  161.6879  166.0196 LP  0  0  0  0  0  0  0  0  0  0  0  0  # atno 14720 bound_to 5142
  155.7499  162.4693  165.8815 LP  0  0  0  0  0  0  0  0  0  0  0  0  # atno 14721 bound_to 5142
  159.1275  165.0413  173.8797 LP  0  0  0  0  0  0  0  0  0  0  0  0  # atno 14728 bound_to 5181
  160.5552  164.3328  174.2354 LP  0  0  0  0  0  0  0  0  0  0  0  0  # atno 14729 bound_to 5181
  145.4300  137.9337  106.2754 LP  0  0  0  0  0  0  0  0  0  0  0  0  # atno 14766 bound_to 6474
  143.1228  136.7697  109.4635 LP  0  0  0  0  0  0  0  0  0  0  0  0  # atno 14767 bound_to 6477
  142.5979  138.4176  109.5588 LP  0  0  0  0  0  0  0  0  0  0  0  0  # atno 14768 bound_to 6477
  124.9403  143.4582  127.2493 LP  0  0  0  0  0  0  0  0  0  0  0  0  # atno 14783 bound_to 663 
  128.6925  143.9365  128.8825 LP  0  0  0  0  0  0  0  0  0  0  0  0  # atno 14784 bound_to 666 
  128.0410  145.4325  129.4635 LP  0  0  0  0  0  0  0  0  0  0  0  0  # atno 14785 bound_to 666 
  153.2827  116.0289  167.4869 LP  0  0  0  0  0  0  0  0  0  0  0  0  # atno 14790 bound_to 687 
  152.0398  115.8070  168.5226 LP  0  0  0  0  0  0  0  0  0  0  0  0  # atno 14791 bound_to 687 
  133.2597  121.3731  131.7492 LP  0  0  0  0  0  0  0  0  0  0  0  0  # atno 14798 bound_to 1565
  134.5739  122.1045  127.4249 LP  0  0  0  0  0  0  0  0  0  0  0  0  # atno 14799 bound_to 1568
  133.0618  121.5588  126.7801 LP  0  0  0  0  0  0  0  0  0  0  0  0  # atno 14800 bound_to 1568
  126.5873  131.7335  139.0193 LP  0  0  0  0  0  0  0  0  0  0  0  0  # atno 14807 bound_to 2427
  123.8183  134.6746  140.3416 LP  0  0  0  0  0  0  0  0  0  0  0  0  # atno 14808 bound_to 2430
  124.2900  135.1662  141.9341 LP  0  0  0  0  0  0  0  0  0  0  0  0  # atno 14809 bound_to 2430
  144.8746  101.2594  176.4295 LP  0  0  0  0  0  0  0  0  0  0  0  0  # atno 14814 bound_to 2452
  144.3513  101.8816  177.8457 LP  0  0  0  0  0  0  0  0  0  0  0  0  # atno 14815 bound_to 2452
  126.3851  135.4274  139.2546 LP  0  0  0  0  0  0  0  0  0  0  0  0  # atno 14820 bound_to 2473
  124.2556  138.6886  137.3725 LP  0  0  0  0  0  0  0  0  0  0  0  0  # atno 14821 bound_to 2476
  123.3978  137.5188  136.4261 LP  0  0  0  0  0  0  0  0  0  0  0  0  # atno 14822 bound_to 2476
  145.1252  100.1007  168.3610 LP  0  0  0  0  0  0  0  0  0  0  0  0  # atno 14837 bound_to 1661
  146.6214  100.3087  168.9814 LP  0  0  0  0  0  0  0  0  0  0  0  0  # atno 14838 bound_to 1661
  136.2944  135.4899   98.8859 LP  0  0  0  0  0  0  0  0  0  0  0  0  # atno 14871 bound_to 1769
  136.5328  133.3252   94.7928 LP  0  0  0  0  0  0  0  0  0  0  0  0  # atno 14872 bound_to 1772
  137.6801  134.5596   94.3930 LP  0  0  0  0  0  0  0  0  0  0  0  0  # atno 14873 bound_to 1772
  145.5679  166.4160  167.3377 LP  0  0  0  0  0  0  0  0  0  0  0  0  # atno 14890 bound_to 4497
  147.1654  166.5033  167.6651 LP  0  0  0  0  0  0  0  0  0  0  0  0  # atno 14891 bound_to 4497
  139.9861  122.2188  169.4151 LP  0  0  0  0  0  0  0  0  0  0  0  0  # atno 14896 bound_to 1867
  140.4380  123.7788  169.2456 LP  0  0  0  0  0  0  0  0  0  0  0  0  # atno 14897 bound_to 1867
  136.8924  147.6529  169.5302 LP  0  0  0  0  0  0  0  0  0  0  0  0  # atno 14898 bound_to 1868
  135.7108  150.3344  170.8544 LP  0  0  0  0  0  0  0  0  0  0  0  0  # atno 14899 bound_to 1871
  136.1744  149.4949  169.4121 LP  0  0  0  0  0  0  0  0  0  0  0  0  # atno 14900 bound_to 1871
  141.2130  148.9919  168.7248 LP  0  0  0  0  0  0  0  0  0  0  0  0  # atno 14901 bound_to 1873
  140.2889  148.6090  167.4341 LP  0  0  0  0  0  0  0  0  0  0  0  0  # atno 14902 bound_to 1873
  153.1727  162.6341  170.8909 LP  0  0  0  0  0  0  0  0  0  0  0  0  # atno 14941 bound_to 4458
  151.6339  162.6518  171.4372 LP  0  0  0  0  0  0  0  0  0  0  0  0  # atno 14942 bound_to 4458
  137.9298  143.5621  138.9481 LP  0  0  0  0  0  0  0  0  0  0  0  0  # atno 14943 bound_to 4459
  140.2626  142.5656  136.9767 LP  0  0  0  0  0  0  0  0  0  0  0  0  # atno 14944 bound_to 4462
  139.1049  143.6057  137.7369 LP  0  0  0  0  0  0  0  0  0  0  0  0  # atno 14945 bound_to 4462
  138.4268  141.3214  142.5537 LP  0  0  0  0  0  0  0  0  0  0  0  0  # atno 14946 bound_to 4465
  137.2399  140.9602  141.4920 LP  0  0  0  0  0  0  0  0  0  0  0  0  # atno 14947 bound_to 4465

> <Gold.Score>
     Fitness  S(hb_ext) S(vdw_ext)  S(hb_int)    S(int)      intcor
     33.90       1.82      23.47       0.00      -0.18      -0.76

> <Gold.Goldscore.Fitness>
33.9044

> <Gold.Goldscore.Internal.Vdw>
-0.4601

> <Gold.Goldscore.Internal.Torsion>
-0.4893

> <Gold.Goldscore.External.Vdw>
23.4694

> <Gold.Goldscore.Internal.HBond>
0.0000

> <Gold.Goldscore.External.HBond>
1.8184

> <Gold.Goldscore.Internal.Correction>
-0.7650

> <Gold.Goldscore.Hbonds>
donor molecule, donor type, donor heavy atom, donor atom, acceptor molecule, acceptor atom, score
      L1  H     8    22       P1  1382  0.91

> <Gold.Goldscore.Internal.Vdw.Weighted>
-0.4601

> <Gold.Goldscore.Internal.Torsion.Weighted>
-0.4893

> <Gold.Goldscore.External.Vdw.Weighted>
32.2705

> <Gold.Goldscore.Internal.HBond.Weighted>
0.0000

> <Gold.Goldscore.External.HBond.Weighted>
1.8184

> <Gold.Goldscore.Internal.Correction.Weighted>
-0.7650

> <Gold.Rescore>
     Score     S(PLP)   S(hbond)     S(cho)   S(metal)  DE(clash)   DE(tors)     intcor
     34.54     -34.05       0.84       0.00       0.00       0.00       1.03       ----

> <Gold.PLP.Fitness>
34.5389

> <Gold.PLP.PLP>
-34.0540

> <Gold.PLP.part.hbond>
-2.5031

> <Gold.PLP.part.metal>
0.0000

> <Gold.PLP.part.buried>
-5.7738

> <Gold.PLP.part.nonpolar>
-27.6562

> <Gold.PLP.part.repulsive>
0.5931

> <Gold.PLP.ligand.clash>
0.0000

> <Gold.PLP.ligand.torsion>
1.0251

> <Gold.PLP.Chemscore.Hbond>
0.8450

> <Gold.PLP.Chemscore.CHOScore>
0.0000

> <Gold.PLP.Chemscore.Metal>
0.0000

> <Gold.Chemscore.Hbonds>
donor molecule, donor type, donor heavy atom, donor atom, acceptor molecule, acceptor atom, score
      L1  H     8    22       P1  1382  1.00

> <Gold.PLP.Chemscore.Internal.Correction>
   9.000000E+99

