#       Name:                CT1002167954
#       Creating user name   hitesit
#       Creation time:       Sun Apr 16 20:25:09 2023


#       File generated by GOLD software.
#

@<TRIPOS>MOLECULE
CT1002167954|ligand_prepared|mol2|1|dock10
    29    30     1
SMALL
NO_CHARGES


@<TRIPOS>ATOM
      1 C1         143.1900 141.7477 169.4450 C.3            1 RES1               0.0000
      2 C2         144.1372 140.5692 169.7498 C.ar           1 RES1               0.0000
      3 C3         143.7830 142.9664 170.1460 C.2            1 RES1               0.0000
      4 C4         143.1351 141.8690 167.9262 C.2            1 RES1               0.0000
      5 C5         141.7469 141.5386 169.9601 C.3            1 RES1               0.0000
      6 C6         143.7469 139.2598 169.4858 C.ar           1 RES1               0.0000
      7 C7         145.4031 140.7757 170.2915 C.ar           1 RES1               0.0000
      8 N8         144.3891 143.9093 169.3691 N.am           1 RES1               0.0000
      9 O9         143.7542 143.0792 171.3653 O.2            1 RES1               0.0000
     10 N10        143.6550 143.0000 167.3532 N.am           1 RES1               0.0000
     11 O11        142.6612 140.9881 167.2193 O.2            1 RES1               0.0000
     12 C12        140.8578 142.7626 169.8067 C.3            1 RES1               0.0000
     13 C13        144.5925 138.1954 169.7509 C.ar           1 RES1               0.0000
     14 C14        146.2471 139.7098 170.5561 C.ar           1 RES1               0.0000
     15 C15        144.3073 144.0118 168.0037 C.2            1 RES1               0.0000
     16 C16        145.8432 138.4196 170.2858 C.ar           1 RES1               0.0000
     17 O17        144.7958 144.9706 167.4128 O.2            1 RES1               0.0000
     18 H18        141.2942 140.7026 169.4128 H              1 RES1               0.0000
     19 H19        141.7872 141.2623 171.0210 H              1 RES1               0.0000
     20 H20        142.7654 139.0637 169.0672 H              1 RES1               0.0000
     21 H21        145.7417 141.7820 170.5133 H              1 RES1               0.0000
     22 H22        144.9557 144.6022 169.8477 H              1 RES1               0.0000
     23 H23        143.5456 143.0967 166.3487 H              1 RES1               0.0000
     24 H24        139.8570 142.5620 170.1833 H              1 RES1               0.0000
     25 H25        141.2649 143.6068 170.3593 H              1 RES1               0.0000
     26 H26        140.7749 143.0505 168.7607 H              1 RES1               0.0000
     27 H27        144.2693 137.1818 169.5377 H              1 RES1               0.0000
     28 H28        147.2304 139.8909 170.9776 H              1 RES1               0.0000
     29 H29        146.5056 137.5857 170.4931 H              1 RES1               0.0000
@<TRIPOS>BOND
    1    1    2 1     
    2    1    3 1     
    3    1    4 1     
    4    1    5 1     
    5    2    6 ar    
    6    2    7 ar    
    7    3    8 1     
    8    3    9 2     
    9    4   10 1     
   10    4   11 2     
   11    5   12 1     
   12    5   18 1     
   13    5   19 1     
   14    6   13 ar    
   15    6   20 1     
   16    7   14 ar    
   17    7   21 1     
   18    8   15 1     
   19    8   22 1     
   20   10   15 1     
   21   10   23 1     
   22   12   24 1     
   23   12   25 1     
   24   12   26 1     
   25   13   16 ar    
   26   13   27 1     
   27   14   16 ar    
   28   14   28 1     
   29   15   17 2     
   30   16   29 1     
@<TRIPOS>SUBSTRUCTURE
      1 RES1           1
@<TRIPOS>SET
DONOR_HYDROGENS      STATIC     ATOMS    <user>   **** ""
2 22 23
ATOM$RED        STATIC     ATOMS    COLORGROUP SYSTEM
2 22 23
@<TRIPOS>COMMENT
> <Gold.Version>
2022.3.0

> <Gold.Id.Protein>
unknown|7rmh_cavity_clean|pdb

> <Gold.Protein.RotatedTorsions>
[ 5151 5142 5141 5139 ] final  -30.62 input   59.98 | X-H torsion
[ 5186 5181 5180 5177 ] final  -84.70 input   59.99 | X-H torsion
[ 6481 6474 6475 6476 ] final  -13.28 input  103.68 | X-H torsion
[  676  663  664  665 ] final -113.62 input  108.58 | X-H torsion
[  692  687  686  683 ] final    0.84 input   59.99 | X-H torsion
[  713  708  707  706 ] final -118.63 input   60.01 | X-H torsion
[ 1581 1565 1566 1567 ] final  -45.96 input  115.26 | X-H torsion
[ 2436 2427 2428 2429 ] final   33.57 input   99.19 | X-H torsion
[ 2461 2452 2451 2449 ] final  126.86 input   60.00 | X-H torsion
[ 2493 2473 2474 2475 ] final -146.85 input  111.54 | X-H torsion
[ 1670 1661 1660 1658 ] final   88.06 input   59.97 | X-H torsion
[ 1788 1769 1770 1771 ] final  -64.14 input  122.82 | X-H torsion
[ 4502 4497 4496 4493 ] final  -66.46 input   59.97 | X-H torsion
[ 1878 1867 1866 1863 ] final -143.54 input   59.99 | X-H torsion
[ 1879 1868 1869 1870 ] final -161.96 input   29.02 | X-H torsion
[ 1883 1873 1872 1869 ] final  171.00 input   60.02 | X-H torsion
[ 1328 1317 1316 1315 ] final  -89.37 input   60.01 | X-H torsion
[ 4472 4458 4456 4453 ] final -102.36 input   59.98 | X-H torsion
[ 4473 4459 4460 4461 ] final   71.68 input   43.99 | X-H torsion
[ 4479 4465 4463 4460 ] final -161.41 input   60.01 | X-H torsion
[ 14767 6477 6476 6475 ] final  115.49 input   -0.00 | X-H torsion
[ 14784  666  665  664 ] final -101.80 input   -0.00 | X-H torsion
[ 14799 1568 1567 1566 ] final  -83.38 input    0.00 | X-H torsion
[ 14808 2430 2429 2428 ] final  -41.35 input    0.00 | X-H torsion
[ 14821 2476 2475 2474 ] final  158.91 input    0.00 | X-H torsion
[ 14872 1772 1771 1770 ] final   68.15 input    0.00 | X-H torsion
[ 14899 1871 1870 1869 ] final   77.44 input    0.00 | X-H torsion
[ 14944 4462 4461 4460 ] final  -32.19 input    0.00 | X-H torsion

> <Gold.Protein.ActiveResidues>
 LEU46   GLY47   ALA48   ASP49   ASN50   SER51   LYS53   VAL224  GLY225  GLY226 
 GLN227  ARG228  ASP229  GLU230  ARG231  ARG232  LYS233  TRP234  ILE235  GLN236 
 CYS237  PHE246  VAL247  VAL248  ASP249  ASP252  TYR253  ASN264  ARG265  LEU266 
 GLN267  GLU268  ALA269  LEU270  ASN271  LEU272  LYS274  SER275  ASN278  ASN279 
 ARG280  TRP281  ASP310  TYR311  PHE312  GLU344  ARG347  ILE348  ALA351  ILE18  
 TRP63   THR65   ASP66   SER67   ARG68   LEU69   TYR105  ALA106  PRO107  SER108 
 GLY109  ASN110  CYS149  ARG150  PHE151  ASP154  ASN155  GLN156  LEU192  ALA193 
 PRO194  ASP195  THR196  ARG197  LEU198  VAL200  ILE229  ASN230  ALA231  CYS233 
 PHE235 

> <Gold.Protein.RotatedAtoms>
  125.4051  142.0647  127.1555 H   0  0  0  0  0  0  0  0  0  0  0  0  # atno 676  bound_to 663 
  153.0906  115.8255  168.2060 H   0  0  0  0  0  0  0  0  0  0  0  0  # atno 692  bound_to 687 
  154.3068  122.5143  167.9832 H   0  0  0  0  0  0  0  0  0  0  0  0  # atno 713  bound_to 708 
  153.0991  121.6036  167.3068 H   0  0  0  0  0  0  0  0  0  0  0  0  # atno 714  bound_to 708 
  153.4564  121.4419  168.9167 H   0  0  0  0  0  0  0  0  0  0  0  0  # atno 715  bound_to 708 
  139.2765  136.3520  173.5192 H   0  0  0  0  0  0  0  0  0  0  0  0  # atno 1328 bound_to 1317
  140.5360  135.6289  174.3182 H   0  0  0  0  0  0  0  0  0  0  0  0  # atno 1329 bound_to 1317
  139.9793  137.1089  174.8155 H   0  0  0  0  0  0  0  0  0  0  0  0  # atno 1330 bound_to 1317
  133.3413  122.8347  131.0168 H   0  0  0  0  0  0  0  0  0  0  0  0  # atno 1581 bound_to 1565
  146.8181  100.8967  168.4580 H   0  0  0  0  0  0  0  0  0  0  0  0  # atno 1670 bound_to 1661
  137.6330  134.5604   98.6017 H   0  0  0  0  0  0  0  0  0  0  0  0  # atno 1788 bound_to 1769
  140.1383  122.6329  169.7391 H   0  0  0  0  0  0  0  0  0  0  0  0  # atno 1878 bound_to 1867
  138.4089  146.7864  169.5650 H   0  0  0  0  0  0  0  0  0  0  0  0  # atno 1879 bound_to 1868
  140.6800  149.0022  167.5802 H   0  0  0  0  0  0  0  0  0  0  0  0  # atno 1883 bound_to 1873
  127.5522  132.4703  140.1733 H   0  0  0  0  0  0  0  0  0  0  0  0  # atno 2436 bound_to 2427
  144.5100  101.1020  176.9554 H   0  0  0  0  0  0  0  0  0  0  0  0  # atno 2461 bound_to 2452
  127.5480  136.7044  139.4748 H   0  0  0  0  0  0  0  0  0  0  0  0  # atno 2493 bound_to 2473
  152.1060  163.2840  172.2718 H   0  0  0  0  0  0  0  0  0  0  0  0  # atno 4472 bound_to 4458
  137.6468  143.2364  139.2244 H   0  0  0  0  0  0  0  0  0  0  0  0  # atno 4473 bound_to 4459
  137.9211  140.7092  142.1797 H   0  0  0  0  0  0  0  0  0  0  0  0  # atno 4479 bound_to 4465
  146.0974  165.1108  167.3575 H   0  0  0  0  0  0  0  0  0  0  0  0  # atno 4502 bound_to 4497
  157.1442  161.3377  165.3815 H   0  0  0  0  0  0  0  0  0  0  0  0  # atno 5151 bound_to 5142
  159.7328  165.1671  173.8684 H   0  0  0  0  0  0  0  0  0  0  0  0  # atno 5186 bound_to 5181
  145.5059  137.9208  106.3068 H   0  0  0  0  0  0  0  0  0  0  0  0  # atno 6481 bound_to 6474
  156.3239  162.3787  166.3254 LP  0  0  0  0  0  0  0  0  0  0  0  0  # atno 14720 bound_to 5142
  155.7086  161.9199  164.8840 LP  0  0  0  0  0  0  0  0  0  0  0  0  # atno 14721 bound_to 5142
  160.3631  163.7765  174.4315 LP  0  0  0  0  0  0  0  0  0  0  0  0  # atno 14728 bound_to 5181
  158.7461  163.9365  174.2690 LP  0  0  0  0  0  0  0  0  0  0  0  0  # atno 14729 bound_to 5181
  145.7888  139.6326  106.1734 LP  0  0  0  0  0  0  0  0  0  0  0  0  # atno 14766 bound_to 6474
  142.0537  137.6701  109.2054 LP  0  0  0  0  0  0  0  0  0  0  0  0  # atno 14767 bound_to 6477
  143.6670  137.5172  109.8169 LP  0  0  0  0  0  0  0  0  0  0  0  0  # atno 14768 bound_to 6477
  125.0365  143.5563  126.3291 LP  0  0  0  0  0  0  0  0  0  0  0  0  # atno 14783 bound_to 663 
  127.7757  144.4593  129.7646 LP  0  0  0  0  0  0  0  0  0  0  0  0  # atno 14784 bound_to 666 
  128.9579  144.9097  128.5815 LP  0  0  0  0  0  0  0  0  0  0  0  0  # atno 14785 bound_to 666 
  151.4836  115.9957  168.0178 LP  0  0  0  0  0  0  0  0  0  0  0  0  # atno 14790 bound_to 687 
  152.4915  116.2973  166.7689 LP  0  0  0  0  0  0  0  0  0  0  0  0  # atno 14791 bound_to 687 
  133.8251  121.4416  131.9553 LP  0  0  0  0  0  0  0  0  0  0  0  0  # atno 14798 bound_to 1565
  133.8067  122.6702  127.3185 LP  0  0  0  0  0  0  0  0  0  0  0  0  # atno 14799 bound_to 1568
  133.8290  120.9931  126.8865 LP  0  0  0  0  0  0  0  0  0  0  0  0  # atno 14800 bound_to 1568
  126.5807  131.3179  139.2875 LP  0  0  0  0  0  0  0  0  0  0  0  0  # atno 14807 bound_to 2427
  123.7227  134.4998  140.4572 LP  0  0  0  0  0  0  0  0  0  0  0  0  # atno 14808 bound_to 2430
  124.3856  135.3410  141.8185 LP  0  0  0  0  0  0  0  0  0  0  0  0  # atno 14809 bound_to 2430
  144.6296  102.4808  177.8108 LP  0  0  0  0  0  0  0  0  0  0  0  0  # atno 14814 bound_to 2452
  145.3788  102.3450  176.3662 LP  0  0  0  0  0  0  0  0  0  0  0  0  # atno 14815 bound_to 2452
  126.3013  135.4916  139.3236 LP  0  0  0  0  0  0  0  0  0  0  0  0  # atno 14820 bound_to 2473
  123.1849  137.5458  136.7356 LP  0  0  0  0  0  0  0  0  0  0  0  0  # atno 14821 bound_to 2476
  124.4685  138.6617  137.0629 LP  0  0  0  0  0  0  0  0  0  0  0  0  # atno 14822 bound_to 2476
  145.3919  100.8717  167.6752 LP  0  0  0  0  0  0  0  0  0  0  0  0  # atno 14837 bound_to 1661
  145.6576   99.8569  168.9266 LP  0  0  0  0  0  0  0  0  0  0  0  0  # atno 14838 bound_to 1661
  136.0500  135.0615   99.1528 LP  0  0  0  0  0  0  0  0  0  0  0  0  # atno 14871 bound_to 1769
  136.3112  133.6214   94.4723 LP  0  0  0  0  0  0  0  0  0  0  0  0  # atno 14872 bound_to 1772
  137.9017  134.2633   94.7135 LP  0  0  0  0  0  0  0  0  0  0  0  0  # atno 14873 bound_to 1772
  145.7921  166.7088  167.4019 LP  0  0  0  0  0  0  0  0  0  0  0  0  # atno 14890 bound_to 4497
  147.3049  166.1560  167.6707 LP  0  0  0  0  0  0  0  0  0  0  0  0  # atno 14891 bound_to 4497
  140.4110  123.8576  168.7026 LP  0  0  0  0  0  0  0  0  0  0  0  0  # atno 14896 bound_to 1867
  139.9228  122.4035  168.1424 LP  0  0  0  0  0  0  0  0  0  0  0  0  # atno 14897 bound_to 1867
  136.8821  147.6377  169.5962 LP  0  0  0  0  0  0  0  0  0  0  0  0  # atno 14898 bound_to 1868
  135.7557  149.2059  170.5944 LP  0  0  0  0  0  0  0  0  0  0  0  0  # atno 14899 bound_to 1871
  136.1295  150.6235  169.6721 LP  0  0  0  0  0  0  0  0  0  0  0  0  # atno 14900 bound_to 1871
  139.9535  147.7235  168.2764 LP  0  0  0  0  0  0  0  0  0  0  0  0  # atno 14901 bound_to 1873
  141.0606  148.5896  169.1075 LP  0  0  0  0  0  0  0  0  0  0  0  0  # atno 14902 bound_to 1873
  153.4643  163.0273  171.4136 LP  0  0  0  0  0  0  0  0  0  0  0  0  # atno 14941 bound_to 4458
  152.0437  162.4026  170.9055 LP  0  0  0  0  0  0  0  0  0  0  0  0  # atno 14942 bound_to 4458
  138.2746  144.5167  140.2418 LP  0  0  0  0  0  0  0  0  0  0  0  0  # atno 14943 bound_to 4459
  138.9179  142.7721  137.6118 LP  0  0  0  0  0  0  0  0  0  0  0  0  # atno 14944 bound_to 4462
  140.4497  143.3993  137.1018 LP  0  0  0  0  0  0  0  0  0  0  0  0  # atno 14945 bound_to 4462
  137.1489  141.8039  141.2558 LP  0  0  0  0  0  0  0  0  0  0  0  0  # atno 14946 bound_to 4465
  138.3232  142.2826  142.2846 LP  0  0  0  0  0  0  0  0  0  0  0  0  # atno 14947 bound_to 4465

> <Gold.Score>
     Fitness  S(hb_ext) S(vdw_ext)  S(hb_int)    S(int)      intcor
     33.59       0.00      25.42       0.00      -1.36      -0.76

> <Gold.Goldscore.Fitness>
33.5880

> <Gold.Goldscore.Internal.Vdw>
-1.6764

> <Gold.Goldscore.Internal.Torsion>
-0.4455

> <Gold.Goldscore.External.Vdw>
25.4192

> <Gold.Goldscore.Internal.HBond>
0.0000

> <Gold.Goldscore.External.HBond>
0.0000

> <Gold.Goldscore.Internal.Correction>
-0.7585

> <Gold.Goldscore.Internal.Vdw.Weighted>
-1.6764

> <Gold.Goldscore.Internal.Torsion.Weighted>
-0.4455

> <Gold.Goldscore.External.Vdw.Weighted>
34.9514

> <Gold.Goldscore.Internal.HBond.Weighted>
0.0000

> <Gold.Goldscore.External.HBond.Weighted>
0.0000

> <Gold.Goldscore.Internal.Correction.Weighted>
-0.7585

> <Gold.Rescore>
     Score     S(PLP)   S(hbond)     S(cho)   S(metal)  DE(clash)   DE(tors)     intcor
     29.33     -30.91       0.00       0.00       0.00       0.92       0.33       ----

> <Gold.PLP.Fitness>
29.3336

> <Gold.PLP.PLP>
-30.9090

> <Gold.PLP.part.hbond>
-1.0000

> <Gold.PLP.part.metal>
0.0000

> <Gold.PLP.part.buried>
-6.2912

> <Gold.PLP.part.nonpolar>
-27.8953

> <Gold.PLP.part.repulsive>
3.4566

> <Gold.PLP.ligand.clash>
0.9218

> <Gold.PLP.ligand.torsion>
0.3268

> <Gold.PLP.Chemscore.Hbond>
0.0000

> <Gold.PLP.Chemscore.CHOScore>
0.0000

> <Gold.PLP.Chemscore.Metal>
0.0000

> <Gold.PLP.Chemscore.Internal.Correction>
   9.000000E+99

