#       Name:                GA Fitting Points
#       Creating user name   hitesit
#       Creation time:       Sun Apr 16 02:21:53 2023


#       Fitting Points Used by GA Software.
#

@<TRIPOS>MOLECULE
GA Fitting Points
 12698    0    0
SMALL
NO_CHARGES


@<TRIPOS>ATOM
      1 ****       144.2500 100.5000 138.0000 Du        
      2 ****       144.5000 100.0000 137.7500 Du        
      3 ****       144.5000 100.0000 138.0000 Du        
      4 ****       144.5000 100.0000 138.2500 Du        
      5 ****       144.5000 100.2500 137.7500 Du        
      6 ****       144.5000 100.2500 138.0000 Du        
      7 ****       144.5000 100.2500 138.2500 Du        
      8 ****       144.5000 100.5000 137.7500 Du        
      9 ****       144.5000 100.5000 138.0000 Du        
     10 ****       144.5000 100.5000 138.2500 Du        
     11 ****       144.5000 100.7500 138.0000 Du        
     12 ****       144.5000 111.7500 138.2500 Du        
     13 ****       144.5000 111.7500 138.5000 Du        
     14 ****       144.5000 111.7500 138.7500 Du        
     15 ****       144.5000 112.0000 138.2500 Du        
     16 ****       144.5000 112.0000 138.5000 Du        
     17 ****       144.5000 112.0000 138.7500 Du        
     18 ****       144.5000 112.2500 138.5000 Du        
     19 ****       144.7500  99.7500 138.0000 Du        
     20 ****       144.7500  99.7500 138.2500 Du        
     21 ****       144.7500 100.0000 137.7500 Du        
     22 ****       144.7500 100.0000 138.0000 Du        
     23 ****       144.7500 100.0000 138.2500 Du        
     24 ****       144.7500 100.0000 138.5000 Du        
     25 ****       144.7500 100.2500 137.7500 Du        
     26 ****       144.7500 100.2500 138.0000 Du        
     27 ****       144.7500 100.2500 138.2500 Du        
     28 ****       144.7500 100.5000 137.5000 Du        
     29 ****       144.7500 100.5000 137.7500 Du        
     30 ****       144.7500 100.5000 138.0000 Du        
     31 ****       144.7500 100.5000 138.2500 Du        
     32 ****       144.7500 100.7500 137.7500 Du        
     33 ****       144.7500 100.7500 138.0000 Du        
     34 ****       144.7500 100.7500 138.2500 Du        
     35 ****       144.7500 101.0000 138.0000 Du        
     36 ****       144.7500 111.2500 138.0000 Du        
     37 ****       144.7500 111.2500 138.2500 Du        
     38 ****       144.7500 111.5000 138.0000 Du        
     39 ****       144.7500 111.5000 138.2500 Du        
     40 ****       144.7500 111.5000 138.5000 Du        
     41 ****       144.7500 111.5000 138.7500 Du        
     42 ****       144.7500 111.7500 138.0000 Du        
     43 ****       144.7500 111.7500 138.2500 Du        
     44 ****       144.7500 111.7500 138.5000 Du        
     45 ****       144.7500 111.7500 138.7500 Du        
     46 ****       144.7500 111.7500 139.0000 Du        
     47 ****       144.7500 112.0000 138.0000 Du        
     48 ****       144.7500 112.0000 138.2500 Du        
     49 ****       144.7500 112.0000 138.5000 Du        
     50 ****       144.7500 112.0000 138.7500 Du        
     51 ****       144.7500 112.0000 139.0000 Du        
     52 ****       144.7500 112.2500 138.0000 Du        
     53 ****       144.7500 112.2500 138.2500 Du        
     54 ****       144.7500 112.2500 138.5000 Du        
     55 ****       144.7500 112.2500 138.7500 Du        
     56 ****       144.7500 112.5000 138.2500 Du        
     57 ****       145.0000  99.7500 138.0000 Du        
     58 ****       145.0000  99.7500 138.2500 Du        
     59 ****       145.0000  99.7500 138.5000 Du        
     60 ****       145.0000 100.0000 137.7500 Du        
     61 ****       145.0000 100.0000 138.0000 Du        
     62 ****       145.0000 100.0000 138.2500 Du        
     63 ****       145.0000 100.0000 138.5000 Du        
     64 ****       145.0000 100.2500 137.5000 Du        
     65 ****       145.0000 100.2500 137.7500 Du        
     66 ****       145.0000 100.2500 138.0000 Du        
     67 ****       145.0000 100.2500 138.2500 Du        
     68 ****       145.0000 100.2500 138.5000 Du        
     69 ****       145.0000 100.5000 137.2500 Du        
     70 ****       145.0000 100.5000 137.5000 Du        
     71 ****       145.0000 100.5000 137.7500 Du        
     72 ****       145.0000 100.5000 138.0000 Du        
     73 ****       145.0000 100.5000 138.2500 Du        
     74 ****       145.0000 100.7500 137.5000 Du        
     75 ****       145.0000 100.7500 137.7500 Du        
     76 ****       145.0000 100.7500 138.0000 Du        
     77 ****       145.0000 100.7500 138.2500 Du        
     78 ****       145.0000 101.0000 137.5000 Du        
     79 ****       145.0000 101.0000 137.7500 Du        
     80 ****       145.0000 101.0000 138.0000 Du        
     81 ****       145.0000 101.2500 137.7500 Du        
     82 ****       145.0000 111.0000 138.0000 Du        
     83 ****       145.0000 111.0000 138.2500 Du        
     84 ****       145.0000 111.2500 137.7500 Du        
     85 ****       145.0000 111.2500 138.0000 Du        
     86 ****       145.0000 111.2500 138.2500 Du        
     87 ****       145.0000 111.2500 138.5000 Du        
     88 ****       145.0000 111.2500 138.7500 Du        
     89 ****       145.0000 111.5000 137.7500 Du        
     90 ****       145.0000 111.5000 138.0000 Du        
     91 ****       145.0000 111.5000 138.2500 Du        
     92 ****       145.0000 111.5000 138.5000 Du        
     93 ****       145.0000 111.5000 138.7500 Du        
     94 ****       145.0000 111.5000 139.0000 Du        
     95 ****       145.0000 111.7500 137.7500 Du        
     96 ****       145.0000 111.7500 138.0000 Du        
     97 ****       145.0000 111.7500 138.2500 Du        
     98 ****       145.0000 111.7500 138.5000 Du        
     99 ****       145.0000 111.7500 138.7500 Du        
    100 ****       145.0000 111.7500 139.0000 Du        
    101 ****       145.0000 111.7500 139.2500 Du        
    102 ****       145.0000 112.0000 137.7500 Du        
    103 ****       145.0000 112.0000 138.0000 Du        
    104 ****       145.0000 112.0000 138.2500 Du        
    105 ****       145.0000 112.0000 138.5000 Du        
    106 ****       145.0000 112.0000 138.7500 Du        
    107 ****       145.0000 112.0000 139.0000 Du        
    108 ****       145.0000 112.2500 138.0000 Du        
    109 ****       145.0000 112.2500 138.2500 Du        
    110 ****       145.0000 112.2500 138.5000 Du        
    111 ****       145.0000 112.2500 138.7500 Du        
    112 ****       145.0000 112.2500 139.0000 Du        
    113 ****       145.0000 112.5000 138.0000 Du        
    114 ****       145.0000 112.5000 138.2500 Du        
    115 ****       145.0000 112.5000 138.5000 Du        
    116 ****       145.2500  99.7500 138.0000 Du        
    117 ****       145.2500  99.7500 138.2500 Du        
    118 ****       145.2500  99.7500 138.5000 Du        
    119 ****       145.2500  99.7500 138.7500 Du        
    120 ****       145.2500 100.0000 137.5000 Du        
    121 ****       145.2500 100.0000 137.7500 Du        
    122 ****       145.2500 100.0000 138.0000 Du        
    123 ****       145.2500 100.0000 138.2500 Du        
    124 ****       145.2500 100.0000 138.5000 Du        
    125 ****       145.2500 100.2500 137.2500 Du        
    126 ****       145.2500 100.2500 137.5000 Du        
    127 ****       145.2500 100.2500 137.7500 Du        
    128 ****       145.2500 100.2500 138.0000 Du        
    129 ****       145.2500 100.2500 138.2500 Du        
    130 ****       145.2500 100.2500 138.5000 Du        
    131 ****       145.2500 100.5000 137.0000 Du        
    132 ****       145.2500 100.5000 137.2500 Du        
    133 ****       145.2500 100.5000 137.5000 Du        
    134 ****       145.2500 100.5000 137.7500 Du        
    135 ****       145.2500 100.5000 138.0000 Du        
    136 ****       145.2500 100.5000 138.2500 Du        
    137 ****       145.2500 100.7500 137.2500 Du        
    138 ****       145.2500 100.7500 137.5000 Du        
    139 ****       145.2500 100.7500 137.7500 Du        
    140 ****       145.2500 100.7500 138.0000 Du        
    141 ****       145.2500 100.7500 138.2500 Du        
    142 ****       145.2500 101.0000 137.2500 Du        
    143 ****       145.2500 101.0000 137.5000 Du        
    144 ****       145.2500 101.0000 137.7500 Du        
    145 ****       145.2500 101.0000 138.0000 Du        
    146 ****       145.2500 101.2500 137.5000 Du        
    147 ****       145.2500 101.2500 137.7500 Du        
    148 ****       145.2500 101.2500 138.0000 Du        
    149 ****       145.2500 101.5000 137.5000 Du        
    150 ****       145.2500 101.5000 137.7500 Du        
    151 ****       145.2500 110.7500 138.2500 Du        
    152 ****       145.2500 111.0000 137.7500 Du        
    153 ****       145.2500 111.0000 138.0000 Du        
    154 ****       145.2500 111.0000 138.2500 Du        
    155 ****       145.2500 111.0000 138.5000 Du        
    156 ****       145.2500 111.2500 137.7500 Du        
    157 ****       145.2500 111.2500 138.0000 Du        
    158 ****       145.2500 111.2500 138.2500 Du        
    159 ****       145.2500 111.2500 138.5000 Du        
    160 ****       145.2500 111.2500 138.7500 Du        
    161 ****       145.2500 111.5000 137.7500 Du        
    162 ****       145.2500 111.5000 138.0000 Du        
    163 ****       145.2500 111.5000 138.2500 Du        
    164 ****       145.2500 111.5000 138.5000 Du        
    165 ****       145.2500 111.5000 138.7500 Du        
    166 ****       145.2500 111.5000 139.0000 Du        
    167 ****       145.2500 111.7500 137.7500 Du        
    168 ****       145.2500 111.7500 138.0000 Du        
    169 ****       145.2500 111.7500 138.2500 Du        
    170 ****       145.2500 111.7500 138.5000 Du        
    171 ****       145.2500 111.7500 138.7500 Du        
    172 ****       145.2500 111.7500 139.0000 Du        
    173 ****       145.2500 112.0000 137.7500 Du        
    174 ****       145.2500 112.0000 138.0000 Du        
    175 ****       145.2500 112.0000 138.2500 Du        
    176 ****       145.2500 112.0000 138.5000 Du        
    177 ****       145.2500 112.0000 138.7500 Du        
    178 ****       145.2500 112.0000 139.0000 Du        
    179 ****       145.2500 112.2500 137.7500 Du        
    180 ****       145.2500 112.2500 138.0000 Du        
    181 ****       145.2500 112.2500 138.2500 Du        
    182 ****       145.2500 112.2500 138.5000 Du        
    183 ****       145.2500 112.2500 138.7500 Du        
    184 ****       145.2500 112.2500 139.0000 Du        
    185 ****       145.2500 112.5000 138.0000 Du        
    186 ****       145.2500 112.5000 138.2500 Du        
    187 ****       145.2500 112.5000 138.5000 Du        
    188 ****       145.5000  99.0000 142.2500 Du        
    189 ****       145.5000  99.0000 142.5000 Du        
    190 ****       145.5000  99.0000 142.7500 Du        
    191 ****       145.5000  99.2500 142.2500 Du        
    192 ****       145.5000  99.2500 142.5000 Du        
    193 ****       145.5000  99.2500 142.7500 Du        
    194 ****       145.5000  99.5000 142.0000 Du        
    195 ****       145.5000  99.5000 142.2500 Du        
    196 ****       145.5000  99.5000 142.5000 Du        
    197 ****       145.5000  99.5000 142.7500 Du        
    198 ****       145.5000 100.0000 137.5000 Du        
    199 ****       145.5000 100.0000 137.7500 Du        
    200 ****       145.5000 100.0000 138.0000 Du        
    201 ****       145.5000 100.0000 138.2500 Du        
    202 ****       145.5000 100.0000 138.5000 Du        
    203 ****       145.5000 100.0000 138.7500 Du        
    204 ****       145.5000 100.2500 137.0000 Du        
    205 ****       145.5000 100.2500 137.2500 Du        
    206 ****       145.5000 100.2500 137.5000 Du        
    207 ****       145.5000 100.2500 137.7500 Du        
    208 ****       145.5000 100.2500 138.0000 Du        
    209 ****       145.5000 100.2500 138.2500 Du        
    210 ****       145.5000 100.2500 138.5000 Du        
    211 ****       145.5000 100.5000 136.7500 Du        
    212 ****       145.5000 100.5000 137.0000 Du        
    213 ****       145.5000 100.5000 137.2500 Du        
    214 ****       145.5000 100.5000 137.5000 Du        
    215 ****       145.5000 100.5000 137.7500 Du        
    216 ****       145.5000 100.5000 138.0000 Du        
    217 ****       145.5000 100.5000 138.2500 Du        
    218 ****       145.5000 100.5000 138.5000 Du        
    219 ****       145.5000 100.7500 136.7500 Du        
    220 ****       145.5000 100.7500 137.0000 Du        
    221 ****       145.5000 100.7500 137.2500 Du        
    222 ****       145.5000 100.7500 137.5000 Du        
    223 ****       145.5000 100.7500 137.7500 Du        
    224 ****       145.5000 100.7500 138.0000 Du        
    225 ****       145.5000 100.7500 138.2500 Du        
    226 ****       145.5000 101.0000 136.7500 Du        
    227 ****       145.5000 101.0000 137.0000 Du        
    228 ****       145.5000 101.0000 137.2500 Du        
    229 ****       145.5000 101.0000 137.5000 Du        
    230 ****       145.5000 101.0000 137.7500 Du        
    231 ****       145.5000 101.0000 138.0000 Du        
    232 ****       145.5000 101.2500 137.0000 Du        
    233 ****       145.5000 101.2500 137.2500 Du        
    234 ****       145.5000 101.2500 137.5000 Du        
    235 ****       145.5000 101.2500 137.7500 Du        
    236 ****       145.5000 101.2500 138.0000 Du        
    237 ****       145.5000 101.5000 137.0000 Du        
    238 ****       145.5000 101.5000 137.2500 Du        
    239 ****       145.5000 101.5000 137.5000 Du        
    240 ****       145.5000 101.5000 137.7500 Du        
    241 ****       145.5000 101.7500 137.2500 Du        
    242 ****       145.5000 101.7500 137.5000 Du        
    243 ****       145.5000 110.7500 138.2500 Du        
    244 ****       145.5000 110.7500 138.5000 Du        
    245 ****       145.5000 111.0000 138.0000 Du        
    246 ****       145.5000 111.0000 138.2500 Du        
    247 ****       145.5000 111.0000 138.5000 Du        
    248 ****       145.5000 111.0000 138.7500 Du        
    249 ****       145.5000 111.2500 137.7500 Du        
    250 ****       145.5000 111.2500 138.0000 Du        
    251 ****       145.5000 111.2500 138.2500 Du        
    252 ****       145.5000 111.2500 138.5000 Du        
    253 ****       145.5000 111.2500 138.7500 Du        
    254 ****       145.5000 111.5000 137.7500 Du        
    255 ****       145.5000 111.5000 138.0000 Du        
    256 ****       145.5000 111.5000 138.2500 Du        
    257 ****       145.5000 111.5000 138.5000 Du        
    258 ****       145.5000 111.5000 138.7500 Du        
    259 ****       145.5000 111.5000 139.0000 Du        
    260 ****       145.5000 111.7500 137.7500 Du        
    261 ****       145.5000 111.7500 138.0000 Du        
    262 ****       145.5000 111.7500 138.2500 Du        
    263 ****       145.5000 111.7500 138.5000 Du        
    264 ****       145.5000 111.7500 138.7500 Du        
    265 ****       145.5000 111.7500 139.0000 Du        
    266 ****       145.5000 112.0000 137.7500 Du        
    267 ****       145.5000 112.0000 138.0000 Du        
    268 ****       145.5000 112.0000 138.2500 Du        
    269 ****       145.5000 112.0000 138.5000 Du        
    270 ****       145.5000 112.0000 138.7500 Du        
    271 ****       145.5000 112.0000 139.0000 Du        
    272 ****       145.5000 112.2500 138.0000 Du        
    273 ****       145.5000 112.2500 138.2500 Du        
    274 ****       145.5000 112.2500 138.5000 Du        
    275 ****       145.5000 112.2500 138.7500 Du        
    276 ****       145.5000 112.2500 139.0000 Du        
    277 ****       145.5000 112.5000 138.0000 Du        
    278 ****       145.5000 112.5000 138.2500 Du        
    279 ****       145.5000 112.5000 138.5000 Du        
    280 ****       145.5000 112.5000 138.7500 Du        
    281 ****       145.7500  98.7500 142.0000 Du        
    282 ****       145.7500  98.7500 142.2500 Du        
    283 ****       145.7500  98.7500 142.5000 Du        
    284 ****       145.7500  98.7500 142.7500 Du        
    285 ****       145.7500  99.0000 141.7500 Du        
    286 ****       145.7500  99.0000 142.0000 Du        
    287 ****       145.7500  99.0000 142.2500 Du        
    288 ****       145.7500  99.0000 142.5000 Du        
    289 ****       145.7500  99.0000 142.7500 Du        
    290 ****       145.7500  99.0000 143.0000 Du        
    291 ****       145.7500  99.2500 141.5000 Du        
    292 ****       145.7500  99.2500 141.7500 Du        
    293 ****       145.7500  99.2500 142.0000 Du        
    294 ****       145.7500  99.2500 142.2500 Du        
    295 ****       145.7500  99.2500 142.5000 Du        
    296 ****       145.7500  99.2500 142.7500 Du        
    297 ****       145.7500  99.5000 141.5000 Du        
    298 ****       145.7500  99.5000 141.7500 Du        
    299 ****       145.7500  99.5000 142.0000 Du        
    300 ****       145.7500  99.5000 142.2500 Du        
    301 ****       145.7500  99.5000 142.5000 Du        
    302 ****       145.7500  99.5000 142.7500 Du        
    303 ****       145.7500  99.7500 138.5000 Du        
    304 ****       145.7500  99.7500 141.7500 Du        
    305 ****       145.7500  99.7500 142.0000 Du        
    306 ****       145.7500  99.7500 142.2500 Du        
    307 ****       145.7500  99.7500 142.5000 Du        
    308 ****       145.7500 100.0000 137.5000 Du        
    309 ****       145.7500 100.0000 137.7500 Du        
    310 ****       145.7500 100.0000 138.0000 Du        
    311 ****       145.7500 100.0000 138.2500 Du        
    312 ****       145.7500 100.0000 138.5000 Du        
    313 ****       145.7500 100.0000 138.7500 Du        
    314 ****       145.7500 100.0000 142.2500 Du        
    315 ****       145.7500 100.2500 136.7500 Du        
    316 ****       145.7500 100.2500 137.0000 Du        
    317 ****       145.7500 100.2500 137.2500 Du        
    318 ****       145.7500 100.2500 137.5000 Du        
    319 ****       145.7500 100.2500 137.7500 Du        
    320 ****       145.7500 100.2500 138.0000 Du        
    321 ****       145.7500 100.2500 138.2500 Du        
    322 ****       145.7500 100.2500 138.5000 Du        
    323 ****       145.7500 100.5000 136.2500 Du        
    324 ****       145.7500 100.5000 136.5000 Du        
    325 ****       145.7500 100.5000 136.7500 Du        
    326 ****       145.7500 100.5000 137.0000 Du        
    327 ****       145.7500 100.5000 137.2500 Du        
    328 ****       145.7500 100.5000 137.5000 Du        
    329 ****       145.7500 100.5000 137.7500 Du        
    330 ****       145.7500 100.5000 138.0000 Du        
    331 ****       145.7500 100.5000 138.2500 Du        
    332 ****       145.7500 100.5000 138.5000 Du        
    333 ****       145.7500 100.7500 136.2500 Du        
    334 ****       145.7500 100.7500 136.5000 Du        
    335 ****       145.7500 100.7500 136.7500 Du        
    336 ****       145.7500 100.7500 137.0000 Du        
    337 ****       145.7500 100.7500 137.2500 Du        
    338 ****       145.7500 100.7500 137.5000 Du        
    339 ****       145.7500 100.7500 137.7500 Du        
    340 ****       145.7500 100.7500 138.0000 Du        
    341 ****       145.7500 100.7500 138.2500 Du        
    342 ****       145.7500 101.0000 136.5000 Du        
    343 ****       145.7500 101.0000 136.7500 Du        
    344 ****       145.7500 101.0000 137.0000 Du        
    345 ****       145.7500 101.0000 137.2500 Du        
    346 ****       145.7500 101.0000 137.5000 Du        
    347 ****       145.7500 101.0000 137.7500 Du        
    348 ****       145.7500 101.0000 138.0000 Du        
    349 ****       145.7500 101.0000 138.2500 Du        
    350 ****       145.7500 101.2500 136.5000 Du        
    351 ****       145.7500 101.2500 136.7500 Du        
    352 ****       145.7500 101.2500 137.0000 Du        
    353 ****       145.7500 101.2500 137.2500 Du        
    354 ****       145.7500 101.2500 137.5000 Du        
    355 ****       145.7500 101.2500 137.7500 Du        
    356 ****       145.7500 101.2500 138.0000 Du        
    357 ****       145.7500 101.5000 136.7500 Du        
    358 ****       145.7500 101.5000 137.0000 Du        
    359 ****       145.7500 101.5000 137.2500 Du        
    360 ****       145.7500 101.5000 137.5000 Du        
    361 ****       145.7500 101.5000 137.7500 Du        
    362 ****       145.7500 101.5000 138.0000 Du        
    363 ****       145.7500 101.7500 136.7500 Du        
    364 ****       145.7500 101.7500 137.0000 Du        
    365 ****       145.7500 101.7500 137.2500 Du        
    366 ****       145.7500 101.7500 137.5000 Du        
    367 ****       145.7500 101.7500 137.7500 Du        
    368 ****       145.7500 110.7500 138.2500 Du        
    369 ****       145.7500 110.7500 138.5000 Du        
    370 ****       145.7500 110.7500 138.7500 Du        
    371 ****       145.7500 111.0000 138.0000 Du        
    372 ****       145.7500 111.0000 138.2500 Du        
    373 ****       145.7500 111.0000 138.5000 Du        
    374 ****       145.7500 111.0000 138.7500 Du        
    375 ****       145.7500 111.2500 137.7500 Du        
    376 ****       145.7500 111.2500 138.0000 Du        
    377 ****       145.7500 111.2500 138.2500 Du        
    378 ****       145.7500 111.2500 138.5000 Du        
    379 ****       145.7500 111.2500 138.7500 Du        
    380 ****       145.7500 111.5000 137.7500 Du        
    381 ****       145.7500 111.5000 138.0000 Du        
    382 ****       145.7500 111.5000 138.2500 Du        
    383 ****       145.7500 111.5000 138.5000 Du        
    384 ****       145.7500 111.5000 138.7500 Du        
    385 ****       145.7500 111.7500 137.7500 Du        
    386 ****       145.7500 111.7500 138.0000 Du        
    387 ****       145.7500 111.7500 138.2500 Du        
    388 ****       145.7500 111.7500 138.5000 Du        
    389 ****       145.7500 111.7500 138.7500 Du        
    390 ****       145.7500 112.0000 137.7500 Du        
    391 ****       145.7500 112.0000 138.0000 Du        
    392 ****       145.7500 112.0000 138.2500 Du        
    393 ****       145.7500 112.0000 138.5000 Du        
    394 ****       145.7500 112.0000 138.7500 Du        
    395 ****       145.7500 112.2500 138.0000 Du        
    396 ****       145.7500 112.2500 138.2500 Du        
    397 ****       145.7500 112.2500 138.5000 Du        
    398 ****       145.7500 112.2500 138.7500 Du        
    399 ****       145.7500 112.5000 138.2500 Du        
    400 ****       145.7500 112.5000 138.5000 Du        
    401 ****       145.7500 112.5000 138.7500 Du        
    402 ****       146.0000  98.7500 141.7500 Du        
    403 ****       146.0000  98.7500 142.0000 Du        
    404 ****       146.0000  98.7500 142.2500 Du        
    405 ****       146.0000  98.7500 142.5000 Du        
    406 ****       146.0000  98.7500 142.7500 Du        
    407 ****       146.0000  99.0000 141.2500 Du        
    408 ****       146.0000  99.0000 141.5000 Du        
    409 ****       146.0000  99.0000 141.7500 Du        
    410 ****       146.0000  99.0000 142.0000 Du        
    411 ****       146.0000  99.0000 142.2500 Du        
    412 ****       146.0000  99.0000 142.5000 Du        
    413 ****       146.0000  99.0000 142.7500 Du        
    414 ****       146.0000  99.0000 143.0000 Du        
    415 ****       146.0000  99.2500 141.0000 Du        
    416 ****       146.0000  99.2500 141.2500 Du        
    417 ****       146.0000  99.2500 141.5000 Du        
    418 ****       146.0000  99.2500 141.7500 Du        
    419 ****       146.0000  99.2500 142.0000 Du        
    420 ****       146.0000  99.2500 142.2500 Du        
    421 ****       146.0000  99.2500 142.5000 Du        
    422 ****       146.0000  99.2500 142.7500 Du        
    423 ****       146.0000  99.5000 140.5000 Du        
    424 ****       146.0000  99.5000 140.7500 Du        
    425 ****       146.0000  99.5000 141.0000 Du        
    426 ****       146.0000  99.5000 141.2500 Du        
    427 ****       146.0000  99.5000 141.5000 Du        
    428 ****       146.0000  99.5000 141.7500 Du        
    429 ****       146.0000  99.5000 142.0000 Du        
    430 ****       146.0000  99.5000 142.2500 Du        
    431 ****       146.0000  99.5000 142.5000 Du        
    432 ****       146.0000  99.5000 142.7500 Du        
    433 ****       146.0000  99.7500 138.5000 Du        
    434 ****       146.0000  99.7500 141.0000 Du        
    435 ****       146.0000  99.7500 141.2500 Du        
    436 ****       146.0000  99.7500 141.5000 Du        
    437 ****       146.0000  99.7500 141.7500 Du        
    438 ****       146.0000  99.7500 142.0000 Du        
    439 ****       146.0000  99.7500 142.2500 Du        
    440 ****       146.0000  99.7500 142.5000 Du        
    441 ****       146.0000 100.0000 137.5000 Du        
    442 ****       146.0000 100.0000 137.7500 Du        
    443 ****       146.0000 100.0000 138.0000 Du        
    444 ****       146.0000 100.0000 138.2500 Du        
    445 ****       146.0000 100.0000 138.5000 Du        
    446 ****       146.0000 100.0000 138.7500 Du        
    447 ****       146.0000 100.0000 141.7500 Du        
    448 ****       146.0000 100.0000 142.0000 Du        
    449 ****       146.0000 100.0000 142.2500 Du        
    450 ****       146.0000 100.0000 142.5000 Du        
    451 ****       146.0000 100.2500 136.5000 Du        
    452 ****       146.0000 100.2500 136.7500 Du        
    453 ****       146.0000 100.2500 137.0000 Du        
    454 ****       146.0000 100.2500 137.2500 Du        
    455 ****       146.0000 100.2500 137.5000 Du        
    456 ****       146.0000 100.2500 137.7500 Du        
    457 ****       146.0000 100.2500 138.0000 Du        
    458 ****       146.0000 100.2500 138.2500 Du        
    459 ****       146.0000 100.2500 138.5000 Du        
    460 ****       146.0000 100.2500 138.7500 Du        
    461 ****       146.0000 100.5000 136.2500 Du        
    462 ****       146.0000 100.5000 136.5000 Du        
    463 ****       146.0000 100.5000 136.7500 Du        
    464 ****       146.0000 100.5000 137.0000 Du        
    465 ****       146.0000 100.5000 137.2500 Du        
    466 ****       146.0000 100.5000 137.5000 Du        
    467 ****       146.0000 100.5000 137.7500 Du        
    468 ****       146.0000 100.5000 138.0000 Du        
    469 ****       146.0000 100.5000 138.2500 Du        
    470 ****       146.0000 100.5000 138.5000 Du        
    471 ****       146.0000 100.7500 136.0000 Du        
    472 ****       146.0000 100.7500 136.2500 Du        
    473 ****       146.0000 100.7500 136.5000 Du        
    474 ****       146.0000 100.7500 136.7500 Du        
    475 ****       146.0000 100.7500 137.0000 Du        
    476 ****       146.0000 100.7500 137.2500 Du        
    477 ****       146.0000 100.7500 137.5000 Du        
    478 ****       146.0000 100.7500 137.7500 Du        
    479 ****       146.0000 100.7500 138.0000 Du        
    480 ****       146.0000 100.7500 138.2500 Du        
    481 ****       146.0000 100.7500 138.5000 Du        
    482 ****       146.0000 101.0000 136.0000 Du        
    483 ****       146.0000 101.0000 136.2500 Du        
    484 ****       146.0000 101.0000 136.5000 Du        
    485 ****       146.0000 101.0000 136.7500 Du        
    486 ****       146.0000 101.0000 137.0000 Du        
    487 ****       146.0000 101.0000 137.2500 Du        
    488 ****       146.0000 101.0000 137.5000 Du        
    489 ****       146.0000 101.0000 137.7500 Du        
    490 ****       146.0000 101.0000 138.0000 Du        
    491 ****       146.0000 101.0000 138.2500 Du        
    492 ****       146.0000 101.2500 136.2500 Du        
    493 ****       146.0000 101.2500 136.5000 Du        
    494 ****       146.0000 101.2500 136.7500 Du        
    495 ****       146.0000 101.2500 137.0000 Du        
    496 ****       146.0000 101.2500 137.2500 Du        
    497 ****       146.0000 101.2500 137.5000 Du        
    498 ****       146.0000 101.2500 137.7500 Du        
    499 ****       146.0000 101.2500 138.0000 Du        
    500 ****       146.0000 101.5000 136.5000 Du        
    501 ****       146.0000 101.5000 136.7500 Du        
    502 ****       146.0000 101.5000 137.0000 Du        
    503 ****       146.0000 101.5000 137.2500 Du        
    504 ****       146.0000 101.5000 137.5000 Du        
    505 ****       146.0000 101.5000 137.7500 Du        
    506 ****       146.0000 101.5000 138.0000 Du        
    507 ****       146.0000 101.7500 136.7500 Du        
    508 ****       146.0000 101.7500 137.0000 Du        
    509 ****       146.0000 101.7500 137.2500 Du        
    510 ****       146.0000 101.7500 137.5000 Du        
    511 ****       146.0000 101.7500 137.7500 Du        
    512 ****       146.0000 102.0000 137.0000 Du        
    513 ****       146.0000 110.7500 138.2500 Du        
    514 ****       146.0000 110.7500 138.5000 Du        
    515 ****       146.0000 111.0000 138.0000 Du        
    516 ****       146.0000 111.0000 138.2500 Du        
    517 ****       146.0000 111.0000 138.5000 Du        
    518 ****       146.0000 111.0000 138.7500 Du        
    519 ****       146.0000 111.2500 138.0000 Du        
    520 ****       146.0000 111.2500 138.2500 Du        
    521 ****       146.0000 111.2500 138.5000 Du        
    522 ****       146.0000 111.2500 138.7500 Du        
    523 ****       146.0000 111.5000 137.7500 Du        
    524 ****       146.0000 111.5000 138.0000 Du        
    525 ****       146.0000 111.5000 138.2500 Du        
    526 ****       146.0000 111.5000 138.5000 Du        
    527 ****       146.0000 111.5000 138.7500 Du        
    528 ****       146.0000 111.7500 137.7500 Du        
    529 ****       146.0000 111.7500 138.0000 Du        
    530 ****       146.0000 111.7500 138.2500 Du        
    531 ****       146.0000 111.7500 138.5000 Du        
    532 ****       146.0000 111.7500 138.7500 Du        
    533 ****       146.0000 112.0000 138.0000 Du        
    534 ****       146.0000 112.0000 138.2500 Du        
    535 ****       146.0000 112.0000 138.5000 Du        
    536 ****       146.0000 112.0000 138.7500 Du        
    537 ****       146.0000 112.2500 138.2500 Du        
    538 ****       146.0000 112.2500 138.5000 Du        
    539 ****       146.0000 112.2500 138.7500 Du        
    540 ****       146.0000 112.5000 138.5000 Du        
    541 ****       146.0000 112.5000 138.7500 Du        
    542 ****       146.2500  98.5000 142.5000 Du        
    543 ****       146.2500  98.7500 141.5000 Du        
    544 ****       146.2500  98.7500 141.7500 Du        
    545 ****       146.2500  98.7500 142.0000 Du        
    546 ****       146.2500  98.7500 142.2500 Du        
    547 ****       146.2500  98.7500 142.5000 Du        
    548 ****       146.2500  98.7500 142.7500 Du        
    549 ****       146.2500  98.7500 143.0000 Du        
    550 ****       146.2500  99.0000 141.2500 Du        
    551 ****       146.2500  99.0000 141.5000 Du        
    552 ****       146.2500  99.0000 141.7500 Du        
    553 ****       146.2500  99.0000 142.0000 Du        
    554 ****       146.2500  99.0000 142.2500 Du        
    555 ****       146.2500  99.0000 142.5000 Du        
    556 ****       146.2500  99.0000 142.7500 Du        
    557 ****       146.2500  99.0000 143.0000 Du        
    558 ****       146.2500  99.2500 141.0000 Du        
    559 ****       146.2500  99.2500 141.2500 Du        
    560 ****       146.2500  99.2500 141.5000 Du        
    561 ****       146.2500  99.2500 141.7500 Du        
    562 ****       146.2500  99.2500 142.0000 Du        
    563 ****       146.2500  99.2500 142.2500 Du        
    564 ****       146.2500  99.2500 142.5000 Du        
    565 ****       146.2500  99.2500 142.7500 Du        
    566 ****       146.2500  99.5000 140.5000 Du        
    567 ****       146.2500  99.5000 140.7500 Du        
    568 ****       146.2500  99.5000 141.0000 Du        
    569 ****       146.2500  99.5000 141.2500 Du        
    570 ****       146.2500  99.5000 141.5000 Du        
    571 ****       146.2500  99.5000 141.7500 Du        
    572 ****       146.2500  99.5000 142.0000 Du        
    573 ****       146.2500  99.5000 142.2500 Du        
    574 ****       146.2500  99.5000 142.5000 Du        
    575 ****       146.2500  99.5000 142.7500 Du        
    576 ****       146.2500  99.7500 140.7500 Du        
    577 ****       146.2500  99.7500 141.0000 Du        
    578 ****       146.2500  99.7500 141.2500 Du        
    579 ****       146.2500  99.7500 141.5000 Du        
    580 ****       146.2500  99.7500 141.7500 Du        
    581 ****       146.2500  99.7500 142.0000 Du        
    582 ****       146.2500  99.7500 142.2500 Du        
    583 ****       146.2500  99.7500 142.5000 Du        
    584 ****       146.2500 100.0000 137.7500 Du        
    585 ****       146.2500 100.0000 138.0000 Du        
    586 ****       146.2500 100.0000 138.2500 Du        
    587 ****       146.2500 100.0000 138.5000 Du        
    588 ****       146.2500 100.0000 138.7500 Du        
    589 ****       146.2500 100.0000 141.5000 Du        
    590 ****       146.2500 100.0000 141.7500 Du        
    591 ****       146.2500 100.0000 142.0000 Du        
    592 ****       146.2500 100.0000 142.2500 Du        
    593 ****       146.2500 100.0000 142.5000 Du        
    594 ****       146.2500 100.2500 136.5000 Du        
    595 ****       146.2500 100.2500 136.7500 Du        
    596 ****       146.2500 100.2500 137.0000 Du        
    597 ****       146.2500 100.2500 137.2500 Du        
    598 ****       146.2500 100.2500 137.5000 Du        
    599 ****       146.2500 100.2500 137.7500 Du        
    600 ****       146.2500 100.2500 138.0000 Du        
    601 ****       146.2500 100.2500 138.2500 Du        
    602 ****       146.2500 100.2500 138.5000 Du        
    603 ****       146.2500 100.2500 138.7500 Du        
    604 ****       146.2500 100.5000 136.2500 Du        
    605 ****       146.2500 100.5000 136.5000 Du        
    606 ****       146.2500 100.5000 136.7500 Du        
    607 ****       146.2500 100.5000 137.0000 Du        
    608 ****       146.2500 100.5000 137.2500 Du        
    609 ****       146.2500 100.5000 137.5000 Du        
    610 ****       146.2500 100.5000 137.7500 Du        
    611 ****       146.2500 100.5000 138.0000 Du        
    612 ****       146.2500 100.5000 138.2500 Du        
    613 ****       146.2500 100.5000 138.5000 Du        
    614 ****       146.2500 100.5000 138.7500 Du        
    615 ****       146.2500 100.7500 136.2500 Du        
    616 ****       146.2500 100.7500 136.5000 Du        
    617 ****       146.2500 100.7500 136.7500 Du        
    618 ****       146.2500 100.7500 137.0000 Du        
    619 ****       146.2500 100.7500 137.2500 Du        
    620 ****       146.2500 100.7500 137.5000 Du        
    621 ****       146.2500 100.7500 137.7500 Du        
    622 ****       146.2500 100.7500 138.0000 Du        
    623 ****       146.2500 100.7500 138.2500 Du        
    624 ****       146.2500 100.7500 138.5000 Du        
    625 ****       146.2500 101.0000 136.2500 Du        
    626 ****       146.2500 101.0000 136.5000 Du        
    627 ****       146.2500 101.0000 136.7500 Du        
    628 ****       146.2500 101.0000 137.0000 Du        
    629 ****       146.2500 101.0000 137.2500 Du        
    630 ****       146.2500 101.0000 137.5000 Du        
    631 ****       146.2500 101.0000 137.7500 Du        
    632 ****       146.2500 101.0000 138.0000 Du        
    633 ****       146.2500 101.0000 138.2500 Du        
    634 ****       146.2500 101.2500 136.5000 Du        
    635 ****       146.2500 101.2500 136.7500 Du        
    636 ****       146.2500 101.2500 137.0000 Du        
    637 ****       146.2500 101.2500 137.2500 Du        
    638 ****       146.2500 101.2500 137.5000 Du        
    639 ****       146.2500 101.2500 137.7500 Du        
    640 ****       146.2500 101.2500 138.0000 Du        
    641 ****       146.2500 101.2500 138.2500 Du        
    642 ****       146.2500 101.5000 136.7500 Du        
    643 ****       146.2500 101.5000 137.0000 Du        
    644 ****       146.2500 101.5000 137.2500 Du        
    645 ****       146.2500 101.5000 137.5000 Du        
    646 ****       146.2500 101.5000 137.7500 Du        
    647 ****       146.2500 101.5000 138.0000 Du        
    648 ****       146.2500 101.7500 137.0000 Du        
    649 ****       146.2500 101.7500 137.2500 Du        
    650 ****       146.2500 101.7500 137.5000 Du        
    651 ****       146.2500 101.7500 137.7500 Du        
    652 ****       146.2500 110.7500 138.2500 Du        
    653 ****       146.2500 110.7500 138.5000 Du        
    654 ****       146.2500 111.0000 138.0000 Du        
    655 ****       146.2500 111.0000 138.2500 Du        
    656 ****       146.2500 111.0000 138.5000 Du        
    657 ****       146.2500 111.2500 138.0000 Du        
    658 ****       146.2500 111.2500 138.2500 Du        
    659 ****       146.2500 111.2500 138.5000 Du        
    660 ****       146.2500 111.5000 137.7500 Du        
    661 ****       146.2500 111.5000 138.0000 Du        
    662 ****       146.2500 111.5000 138.2500 Du        
    663 ****       146.2500 111.5000 138.5000 Du        
    664 ****       146.2500 111.7500 138.0000 Du        
    665 ****       146.2500 111.7500 138.2500 Du        
    666 ****       146.2500 111.7500 138.5000 Du        
    667 ****       146.2500 112.0000 138.0000 Du        
    668 ****       146.2500 112.0000 138.2500 Du        
    669 ****       146.2500 112.0000 138.5000 Du        
    670 ****       146.2500 112.0000 138.7500 Du        
    671 ****       146.2500 112.2500 138.2500 Du        
    672 ****       146.2500 112.2500 138.5000 Du        
    673 ****       146.2500 112.2500 138.7500 Du        
    674 ****       146.5000  98.5000 142.5000 Du        
    675 ****       146.5000  98.5000 142.7500 Du        
    676 ****       146.5000  98.5000 143.0000 Du        
    677 ****       146.5000  98.7500 141.7500 Du        
    678 ****       146.5000  98.7500 142.0000 Du        
    679 ****       146.5000  98.7500 142.2500 Du        
    680 ****       146.5000  98.7500 142.5000 Du        
    681 ****       146.5000  98.7500 142.7500 Du        
    682 ****       146.5000  98.7500 143.0000 Du        
    683 ****       146.5000  98.7500 143.2500 Du        
    684 ****       146.5000  99.0000 141.0000 Du        
    685 ****       146.5000  99.0000 141.2500 Du        
    686 ****       146.5000  99.0000 141.5000 Du        
    687 ****       146.5000  99.0000 141.7500 Du        
    688 ****       146.5000  99.0000 142.0000 Du        
    689 ****       146.5000  99.0000 142.2500 Du        
    690 ****       146.5000  99.0000 142.5000 Du        
    691 ****       146.5000  99.0000 142.7500 Du        
    692 ****       146.5000  99.0000 143.0000 Du        
    693 ****       146.5000  99.2500 141.0000 Du        
    694 ****       146.5000  99.2500 141.2500 Du        
    695 ****       146.5000  99.2500 141.5000 Du        
    696 ****       146.5000  99.2500 141.7500 Du        
    697 ****       146.5000  99.2500 142.0000 Du        
    698 ****       146.5000  99.2500 142.2500 Du        
    699 ****       146.5000  99.2500 142.5000 Du        
    700 ****       146.5000  99.2500 142.7500 Du        
    701 ****       146.5000  99.2500 143.0000 Du        
    702 ****       146.5000  99.5000 140.7500 Du        
    703 ****       146.5000  99.5000 141.0000 Du        
    704 ****       146.5000  99.5000 141.2500 Du        
    705 ****       146.5000  99.5000 141.5000 Du        
    706 ****       146.5000  99.5000 141.7500 Du        
    707 ****       146.5000  99.5000 142.0000 Du        
    708 ****       146.5000  99.5000 142.2500 Du        
    709 ****       146.5000  99.5000 142.5000 Du        
    710 ****       146.5000  99.5000 142.7500 Du        
    711 ****       146.5000  99.7500 141.2500 Du        
    712 ****       146.5000  99.7500 141.5000 Du        
    713 ****       146.5000  99.7500 141.7500 Du        
    714 ****       146.5000  99.7500 142.0000 Du        
    715 ****       146.5000  99.7500 142.2500 Du        
    716 ****       146.5000  99.7500 142.5000 Du        
    717 ****       146.5000  99.7500 142.7500 Du        
    718 ****       146.5000 100.0000 138.2500 Du        
    719 ****       146.5000 100.0000 141.7500 Du        
    720 ****       146.5000 100.0000 142.0000 Du        
    721 ****       146.5000 100.0000 142.2500 Du        
    722 ****       146.5000 100.0000 142.5000 Du        
    723 ****       146.5000 100.2500 137.5000 Du        
    724 ****       146.5000 100.2500 137.7500 Du        
    725 ****       146.5000 100.2500 138.0000 Du        
    726 ****       146.5000 100.2500 138.2500 Du        
    727 ****       146.5000 100.2500 138.5000 Du        
    728 ****       146.5000 100.5000 136.7500 Du        
    729 ****       146.5000 100.5000 137.0000 Du        
    730 ****       146.5000 100.5000 137.2500 Du        
    731 ****       146.5000 100.5000 137.5000 Du        
    732 ****       146.5000 100.5000 137.7500 Du        
    733 ****       146.5000 100.5000 138.0000 Du        
    734 ****       146.5000 100.5000 138.2500 Du        
    735 ****       146.5000 100.5000 138.5000 Du        
    736 ****       146.5000 100.7500 136.5000 Du        
    737 ****       146.5000 100.7500 136.7500 Du        
    738 ****       146.5000 100.7500 137.0000 Du        
    739 ****       146.5000 100.7500 137.2500 Du        
    740 ****       146.5000 100.7500 137.5000 Du        
    741 ****       146.5000 100.7500 137.7500 Du        
    742 ****       146.5000 100.7500 138.0000 Du        
    743 ****       146.5000 100.7500 138.2500 Du        
    744 ****       146.5000 100.7500 138.5000 Du        
    745 ****       146.5000 101.0000 136.7500 Du        
    746 ****       146.5000 101.0000 137.0000 Du        
    747 ****       146.5000 101.0000 137.2500 Du        
    748 ****       146.5000 101.0000 137.5000 Du        
    749 ****       146.5000 101.0000 137.7500 Du        
    750 ****       146.5000 101.0000 138.0000 Du        
    751 ****       146.5000 101.0000 138.2500 Du        
    752 ****       146.5000 101.2500 137.0000 Du        
    753 ****       146.5000 101.2500 137.2500 Du        
    754 ****       146.5000 101.2500 137.5000 Du        
    755 ****       146.5000 101.2500 137.7500 Du        
    756 ****       146.5000 101.2500 138.0000 Du        
    757 ****       146.5000 101.2500 138.2500 Du        
    758 ****       146.5000 101.5000 137.2500 Du        
    759 ****       146.5000 101.5000 137.5000 Du        
    760 ****       146.5000 101.5000 137.7500 Du        
    761 ****       146.5000 101.5000 138.0000 Du        
    762 ****       146.5000 111.0000 138.2500 Du        
    763 ****       146.5000 111.0000 138.5000 Du        
    764 ****       146.5000 111.2500 138.0000 Du        
    765 ****       146.5000 111.2500 138.2500 Du        
    766 ****       146.5000 111.2500 138.5000 Du        
    767 ****       146.5000 111.5000 138.0000 Du        
    768 ****       146.5000 111.5000 138.2500 Du        
    769 ****       146.5000 111.5000 138.5000 Du        
    770 ****       146.5000 111.7500 138.0000 Du        
    771 ****       146.5000 111.7500 138.2500 Du        
    772 ****       146.5000 111.7500 138.5000 Du        
    773 ****       146.5000 112.0000 138.2500 Du        
    774 ****       146.5000 112.0000 138.5000 Du        
    775 ****       146.7500  98.5000 142.2500 Du        
    776 ****       146.7500  98.5000 142.5000 Du        
    777 ****       146.7500  98.5000 142.7500 Du        
    778 ****       146.7500  98.5000 143.0000 Du        
    779 ****       146.7500  98.5000 143.2500 Du        
    780 ****       146.7500  98.7500 141.5000 Du        
    781 ****       146.7500  98.7500 141.7500 Du        
    782 ****       146.7500  98.7500 142.0000 Du        
    783 ****       146.7500  98.7500 142.2500 Du        
    784 ****       146.7500  98.7500 142.5000 Du        
    785 ****       146.7500  98.7500 142.7500 Du        
    786 ****       146.7500  98.7500 143.0000 Du        
    787 ****       146.7500  98.7500 143.2500 Du        
    788 ****       146.7500  98.7500 143.5000 Du        
    789 ****       146.7500  99.0000 141.2500 Du        
    790 ****       146.7500  99.0000 141.5000 Du        
    791 ****       146.7500  99.0000 141.7500 Du        
    792 ****       146.7500  99.0000 142.0000 Du        
    793 ****       146.7500  99.0000 142.2500 Du        
    794 ****       146.7500  99.0000 142.5000 Du        
    795 ****       146.7500  99.0000 142.7500 Du        
    796 ****       146.7500  99.0000 143.0000 Du        
    797 ****       146.7500  99.0000 143.2500 Du        
    798 ****       146.7500  99.2500 141.2500 Du        
    799 ****       146.7500  99.2500 141.5000 Du        
    800 ****       146.7500  99.2500 141.7500 Du        
    801 ****       146.7500  99.2500 142.0000 Du        
    802 ****       146.7500  99.2500 142.2500 Du        
    803 ****       146.7500  99.2500 142.5000 Du        
    804 ****       146.7500  99.2500 142.7500 Du        
    805 ****       146.7500  99.2500 143.0000 Du        
    806 ****       146.7500  99.5000 141.2500 Du        
    807 ****       146.7500  99.5000 141.5000 Du        
    808 ****       146.7500  99.5000 141.7500 Du        
    809 ****       146.7500  99.5000 142.0000 Du        
    810 ****       146.7500  99.5000 142.2500 Du        
    811 ****       146.7500  99.5000 142.5000 Du        
    812 ****       146.7500  99.5000 142.7500 Du        
    813 ****       146.7500  99.7500 141.7500 Du        
    814 ****       146.7500  99.7500 142.0000 Du        
    815 ****       146.7500  99.7500 142.2500 Du        
    816 ****       146.7500  99.7500 142.5000 Du        
    817 ****       146.7500  99.7500 142.7500 Du        
    818 ****       146.7500 100.0000 142.0000 Du        
    819 ****       146.7500 100.0000 142.2500 Du        
    820 ****       146.7500 100.0000 142.5000 Du        
    821 ****       146.7500 100.2500 137.5000 Du        
    822 ****       146.7500 100.2500 137.7500 Du        
    823 ****       146.7500 100.2500 138.0000 Du        
    824 ****       146.7500 100.2500 138.2500 Du        
    825 ****       146.7500 100.5000 137.0000 Du        
    826 ****       146.7500 100.5000 137.2500 Du        
    827 ****       146.7500 100.5000 137.5000 Du        
    828 ****       146.7500 100.5000 137.7500 Du        
    829 ****       146.7500 100.5000 138.0000 Du        
    830 ****       146.7500 100.5000 138.2500 Du        
    831 ****       146.7500 100.7500 137.0000 Du        
    832 ****       146.7500 100.7500 137.2500 Du        
    833 ****       146.7500 100.7500 137.5000 Du        
    834 ****       146.7500 100.7500 137.7500 Du        
    835 ****       146.7500 100.7500 138.0000 Du        
    836 ****       146.7500 100.7500 138.2500 Du        
    837 ****       146.7500 101.0000 137.0000 Du        
    838 ****       146.7500 101.0000 137.2500 Du        
    839 ****       146.7500 101.0000 137.5000 Du        
    840 ****       146.7500 101.0000 137.7500 Du        
    841 ****       146.7500 101.0000 138.0000 Du        
    842 ****       146.7500 101.0000 138.2500 Du        
    843 ****       146.7500 101.2500 137.2500 Du        
    844 ****       146.7500 101.2500 137.5000 Du        
    845 ****       146.7500 101.2500 137.7500 Du        
    846 ****       146.7500 101.2500 138.0000 Du        
    847 ****       146.7500 111.0000 138.2500 Du        
    848 ****       146.7500 111.2500 138.0000 Du        
    849 ****       146.7500 111.2500 138.2500 Du        
    850 ****       146.7500 111.5000 138.0000 Du        
    851 ****       146.7500 111.5000 138.2500 Du        
    852 ****       146.7500 111.7500 138.0000 Du        
    853 ****       146.7500 111.7500 138.2500 Du        
    854 ****       146.7500 111.7500 138.5000 Du        
    855 ****       146.7500 112.0000 138.2500 Du        
    856 ****       146.7500 112.0000 138.5000 Du        
    857 ****       146.7500 120.5000 140.0000 Du        
    858 ****       146.7500 120.7500 139.7500 Du        
    859 ****       146.7500 120.7500 140.0000 Du        
    860 ****       146.7500 121.0000 139.7500 Du        
    861 ****       146.7500 121.0000 140.0000 Du        
    862 ****       146.7500 121.2500 139.7500 Du        
    863 ****       146.7500 121.2500 140.0000 Du        
    864 ****       147.0000  98.5000 142.0000 Du        
    865 ****       147.0000  98.5000 142.2500 Du        
    866 ****       147.0000  98.5000 142.5000 Du        
    867 ****       147.0000  98.5000 142.7500 Du        
    868 ****       147.0000  98.5000 143.0000 Du        
    869 ****       147.0000  98.5000 143.2500 Du        
    870 ****       147.0000  98.5000 143.5000 Du        
    871 ****       147.0000  98.5000 143.7500 Du        
    872 ****       147.0000  98.7500 141.7500 Du        
    873 ****       147.0000  98.7500 142.0000 Du        
    874 ****       147.0000  98.7500 142.2500 Du        
    875 ****       147.0000  98.7500 142.5000 Du        
    876 ****       147.0000  98.7500 142.7500 Du        
    877 ****       147.0000  98.7500 143.0000 Du        
    878 ****       147.0000  98.7500 143.2500 Du        
    879 ****       147.0000  98.7500 143.5000 Du        
    880 ****       147.0000  99.0000 141.5000 Du        
    881 ****       147.0000  99.0000 141.7500 Du        
    882 ****       147.0000  99.0000 142.0000 Du        
    883 ****       147.0000  99.0000 142.2500 Du        
    884 ****       147.0000  99.0000 142.5000 Du        
    885 ****       147.0000  99.0000 142.7500 Du        
    886 ****       147.0000  99.0000 143.0000 Du        
    887 ****       147.0000  99.0000 143.2500 Du        
    888 ****       147.0000  99.0000 143.5000 Du        
    889 ****       147.0000  99.2500 141.5000 Du        
    890 ****       147.0000  99.2500 141.7500 Du        
    891 ****       147.0000  99.2500 142.0000 Du        
    892 ****       147.0000  99.2500 142.2500 Du        
    893 ****       147.0000  99.2500 142.5000 Du        
    894 ****       147.0000  99.2500 142.7500 Du        
    895 ****       147.0000  99.2500 143.0000 Du        
    896 ****       147.0000  99.2500 143.2500 Du        
    897 ****       147.0000  99.5000 141.7500 Du        
    898 ****       147.0000  99.5000 142.0000 Du        
    899 ****       147.0000  99.5000 142.2500 Du        
    900 ****       147.0000  99.5000 142.5000 Du        
    901 ****       147.0000  99.5000 142.7500 Du        
    902 ****       147.0000  99.5000 143.0000 Du        
    903 ****       147.0000  99.7500 142.0000 Du        
    904 ****       147.0000  99.7500 142.2500 Du        
    905 ****       147.0000  99.7500 142.5000 Du        
    906 ****       147.0000  99.7500 142.7500 Du        
    907 ****       147.0000 100.0000 142.2500 Du        
    908 ****       147.0000 100.0000 142.5000 Du        
    909 ****       147.0000 100.2500 137.5000 Du        
    910 ****       147.0000 100.2500 137.7500 Du        
    911 ****       147.0000 100.2500 138.0000 Du        
    912 ****       147.0000 100.5000 137.2500 Du        
    913 ****       147.0000 100.5000 137.5000 Du        
    914 ****       147.0000 100.5000 137.7500 Du        
    915 ****       147.0000 100.5000 138.0000 Du        
    916 ****       147.0000 100.7500 137.2500 Du        
    917 ****       147.0000 100.7500 137.5000 Du        
    918 ****       147.0000 100.7500 137.7500 Du        
    919 ****       147.0000 100.7500 138.0000 Du        
    920 ****       147.0000 101.0000 137.5000 Du        
    921 ****       147.0000 101.0000 137.7500 Du        
    922 ****       147.0000 101.0000 138.0000 Du        
    923 ****       147.0000 111.2500 138.0000 Du        
    924 ****       147.0000 111.2500 138.2500 Du        
    925 ****       147.0000 111.5000 138.0000 Du        
    926 ****       147.0000 111.5000 138.2500 Du        
    927 ****       147.0000 111.7500 138.0000 Du        
    928 ****       147.0000 111.7500 138.2500 Du        
    929 ****       147.0000 119.0000 140.0000 Du        
    930 ****       147.0000 119.0000 140.2500 Du        
    931 ****       147.0000 119.0000 140.5000 Du        
    932 ****       147.0000 119.0000 140.7500 Du        
    933 ****       147.0000 119.2500 140.0000 Du        
    934 ****       147.0000 119.2500 140.2500 Du        
    935 ****       147.0000 119.2500 140.5000 Du        
    936 ****       147.0000 119.2500 140.7500 Du        
    937 ****       147.0000 119.5000 140.0000 Du        
    938 ****       147.0000 119.5000 140.2500 Du        
    939 ****       147.0000 119.5000 140.5000 Du        
    940 ****       147.0000 119.7500 140.0000 Du        
    941 ****       147.0000 119.7500 140.2500 Du        
    942 ****       147.0000 119.7500 140.5000 Du        
    943 ****       147.0000 120.0000 140.0000 Du        
    944 ****       147.0000 120.0000 140.2500 Du        
    945 ****       147.0000 120.2500 139.7500 Du        
    946 ****       147.0000 120.2500 140.0000 Du        
    947 ****       147.0000 120.2500 140.2500 Du        
    948 ****       147.0000 120.5000 139.7500 Du        
    949 ****       147.0000 120.5000 140.0000 Du        
    950 ****       147.0000 120.5000 140.2500 Du        
    951 ****       147.0000 120.7500 139.5000 Du        
    952 ****       147.0000 120.7500 139.7500 Du        
    953 ****       147.0000 120.7500 140.0000 Du        
    954 ****       147.0000 120.7500 140.2500 Du        
    955 ****       147.0000 121.0000 139.5000 Du        
    956 ****       147.0000 121.0000 139.7500 Du        
    957 ****       147.0000 121.0000 140.0000 Du        
    958 ****       147.0000 121.0000 140.2500 Du        
    959 ****       147.0000 121.2500 139.5000 Du        
    960 ****       147.0000 121.2500 139.7500 Du        
    961 ****       147.0000 121.2500 140.0000 Du        
    962 ****       147.0000 121.2500 140.2500 Du        
    963 ****       147.0000 121.5000 139.5000 Du        
    964 ****       147.0000 121.5000 139.7500 Du        
    965 ****       147.0000 121.5000 140.0000 Du        
    966 ****       147.0000 121.5000 140.2500 Du        
    967 ****       147.0000 121.5000 140.5000 Du        
    968 ****       147.0000 121.7500 139.7500 Du        
    969 ****       147.0000 121.7500 140.0000 Du        
    970 ****       147.0000 121.7500 140.2500 Du        
    971 ****       147.0000 121.7500 140.5000 Du        
    972 ****       147.0000 121.7500 140.7500 Du        
    973 ****       147.0000 122.0000 140.0000 Du        
    974 ****       147.0000 122.0000 140.2500 Du        
    975 ****       147.0000 122.0000 140.5000 Du        
    976 ****       147.0000 122.0000 140.7500 Du        
    977 ****       147.0000 122.0000 141.0000 Du        
    978 ****       147.0000 122.2500 140.2500 Du        
    979 ****       147.0000 122.2500 140.5000 Du        
    980 ****       147.0000 122.2500 140.7500 Du        
    981 ****       147.0000 122.2500 141.0000 Du        
    982 ****       147.0000 122.2500 141.2500 Du        
    983 ****       147.0000 122.5000 140.5000 Du        
    984 ****       147.0000 122.5000 140.7500 Du        
    985 ****       147.0000 122.5000 141.0000 Du        
    986 ****       147.0000 122.5000 141.2500 Du        
    987 ****       147.0000 122.7500 140.7500 Du        
    988 ****       147.0000 122.7500 141.0000 Du        
    989 ****       147.0000 122.7500 141.2500 Du        
    990 ****       147.2500  98.5000 142.0000 Du        
    991 ****       147.2500  98.5000 142.2500 Du        
    992 ****       147.2500  98.5000 142.5000 Du        
    993 ****       147.2500  98.5000 142.7500 Du        
    994 ****       147.2500  98.5000 143.0000 Du        
    995 ****       147.2500  98.5000 143.2500 Du        
    996 ****       147.2500  98.5000 143.5000 Du        
    997 ****       147.2500  98.5000 143.7500 Du        
    998 ****       147.2500  98.7500 141.7500 Du        
    999 ****       147.2500  98.7500 142.0000 Du        
   1000 ****       147.2500  98.7500 142.2500 Du        
   1001 ****       147.2500  98.7500 142.5000 Du        
   1002 ****       147.2500  98.7500 142.7500 Du        
   1003 ****       147.2500  98.7500 143.0000 Du        
   1004 ****       147.2500  98.7500 143.2500 Du        
   1005 ****       147.2500  98.7500 143.5000 Du        
   1006 ****       147.2500  98.7500 143.7500 Du        
   1007 ****       147.2500  99.0000 141.7500 Du        
   1008 ****       147.2500  99.0000 142.0000 Du        
   1009 ****       147.2500  99.0000 142.2500 Du        
   1010 ****       147.2500  99.0000 142.5000 Du        
   1011 ****       147.2500  99.0000 142.7500 Du        
   1012 ****       147.2500  99.0000 143.0000 Du        
   1013 ****       147.2500  99.0000 143.2500 Du        
   1014 ****       147.2500  99.0000 143.5000 Du        
   1015 ****       147.2500  99.2500 142.0000 Du        
   1016 ****       147.2500  99.2500 142.2500 Du        
   1017 ****       147.2500  99.2500 142.5000 Du        
   1018 ****       147.2500  99.2500 142.7500 Du        
   1019 ****       147.2500  99.2500 143.0000 Du        
   1020 ****       147.2500  99.2500 143.2500 Du        
   1021 ****       147.2500  99.5000 142.0000 Du        
   1022 ****       147.2500  99.5000 142.2500 Du        
   1023 ****       147.2500  99.5000 142.5000 Du        
   1024 ****       147.2500  99.5000 142.7500 Du        
   1025 ****       147.2500  99.5000 143.0000 Du        
   1026 ****       147.2500  99.7500 142.2500 Du        
   1027 ****       147.2500  99.7500 142.5000 Du        
   1028 ****       147.2500  99.7500 142.7500 Du        
   1029 ****       147.2500 100.0000 142.5000 Du        
   1030 ****       147.2500 111.2500 138.0000 Du        
   1031 ****       147.2500 111.5000 138.0000 Du        
   1032 ****       147.2500 111.5000 138.2500 Du        
   1033 ****       147.2500 111.7500 138.2500 Du        
   1034 ****       147.2500 118.5000 139.7500 Du        
   1035 ****       147.2500 118.5000 140.0000 Du        
   1036 ****       147.2500 118.5000 140.2500 Du        
   1037 ****       147.2500 118.7500 139.7500 Du        
   1038 ****       147.2500 118.7500 140.0000 Du        
   1039 ****       147.2500 118.7500 140.2500 Du        
   1040 ****       147.2500 118.7500 140.5000 Du        
   1041 ****       147.2500 118.7500 140.7500 Du        
   1042 ****       147.2500 118.7500 141.0000 Du        
   1043 ****       147.2500 119.0000 139.7500 Du        
   1044 ****       147.2500 119.0000 140.0000 Du        
   1045 ****       147.2500 119.0000 140.2500 Du        
   1046 ****       147.2500 119.0000 140.5000 Du        
   1047 ****       147.2500 119.0000 140.7500 Du        
   1048 ****       147.2500 119.0000 141.0000 Du        
   1049 ****       147.2500 119.2500 139.7500 Du        
   1050 ****       147.2500 119.2500 140.0000 Du        
   1051 ****       147.2500 119.2500 140.2500 Du        
   1052 ****       147.2500 119.2500 140.5000 Du        
   1053 ****       147.2500 119.2500 140.7500 Du        
   1054 ****       147.2500 119.2500 141.0000 Du        
   1055 ****       147.2500 119.5000 139.7500 Du        
   1056 ****       147.2500 119.5000 140.0000 Du        
   1057 ****       147.2500 119.5000 140.2500 Du        
   1058 ****       147.2500 119.5000 140.5000 Du        
   1059 ****       147.2500 119.5000 140.7500 Du        
   1060 ****       147.2500 119.7500 139.7500 Du        
   1061 ****       147.2500 119.7500 140.0000 Du        
   1062 ****       147.2500 119.7500 140.2500 Du        
   1063 ****       147.2500 119.7500 140.5000 Du        
   1064 ****       147.2500 119.7500 140.7500 Du        
   1065 ****       147.2500 120.0000 139.7500 Du        
   1066 ****       147.2500 120.0000 140.0000 Du        
   1067 ****       147.2500 120.0000 140.2500 Du        
   1068 ****       147.2500 120.0000 140.5000 Du        
   1069 ****       147.2500 120.0000 140.7500 Du        
   1070 ****       147.2500 120.2500 139.7500 Du        
   1071 ****       147.2500 120.2500 140.0000 Du        
   1072 ****       147.2500 120.2500 140.2500 Du        
   1073 ****       147.2500 120.2500 140.5000 Du        
   1074 ****       147.2500 120.5000 139.5000 Du        
   1075 ****       147.2500 120.5000 139.7500 Du        
   1076 ****       147.2500 120.5000 140.0000 Du        
   1077 ****       147.2500 120.5000 140.2500 Du        
   1078 ****       147.2500 120.5000 140.5000 Du        
   1079 ****       147.2500 120.7500 139.5000 Du        
   1080 ****       147.2500 120.7500 139.7500 Du        
   1081 ****       147.2500 120.7500 140.0000 Du        
   1082 ****       147.2500 120.7500 140.2500 Du        
   1083 ****       147.2500 120.7500 140.5000 Du        
   1084 ****       147.2500 121.0000 139.2500 Du        
   1085 ****       147.2500 121.0000 139.5000 Du        
   1086 ****       147.2500 121.0000 139.7500 Du        
   1087 ****       147.2500 121.0000 140.0000 Du        
   1088 ****       147.2500 121.0000 140.2500 Du        
   1089 ****       147.2500 121.0000 140.5000 Du        
   1090 ****       147.2500 121.2500 139.2500 Du        
   1091 ****       147.2500 121.2500 139.5000 Du        
   1092 ****       147.2500 121.2500 139.7500 Du        
   1093 ****       147.2500 121.2500 140.0000 Du        
   1094 ****       147.2500 121.2500 140.2500 Du        
   1095 ****       147.2500 121.2500 140.5000 Du        
   1096 ****       147.2500 121.2500 140.7500 Du        
   1097 ****       147.2500 121.5000 139.2500 Du        
   1098 ****       147.2500 121.5000 139.5000 Du        
   1099 ****       147.2500 121.5000 139.7500 Du        
   1100 ****       147.2500 121.5000 140.0000 Du        
   1101 ****       147.2500 121.5000 140.2500 Du        
   1102 ****       147.2500 121.5000 140.5000 Du        
   1103 ****       147.2500 121.5000 140.7500 Du        
   1104 ****       147.2500 121.7500 139.2500 Du        
   1105 ****       147.2500 121.7500 139.5000 Du        
   1106 ****       147.2500 121.7500 139.7500 Du        
   1107 ****       147.2500 121.7500 140.0000 Du        
   1108 ****       147.2500 121.7500 140.2500 Du        
   1109 ****       147.2500 121.7500 140.5000 Du        
   1110 ****       147.2500 121.7500 140.7500 Du        
   1111 ****       147.2500 121.7500 141.0000 Du        
   1112 ****       147.2500 122.0000 139.5000 Du        
   1113 ****       147.2500 122.0000 139.7500 Du        
   1114 ****       147.2500 122.0000 140.0000 Du        
   1115 ****       147.2500 122.0000 140.2500 Du        
   1116 ****       147.2500 122.0000 140.5000 Du        
   1117 ****       147.2500 122.0000 140.7500 Du        
   1118 ****       147.2500 122.0000 141.0000 Du        
   1119 ****       147.2500 122.0000 141.2500 Du        
   1120 ****       147.2500 122.2500 139.7500 Du        
   1121 ****       147.2500 122.2500 140.0000 Du        
   1122 ****       147.2500 122.2500 140.2500 Du        
   1123 ****       147.2500 122.2500 140.5000 Du        
   1124 ****       147.2500 122.2500 140.7500 Du        
   1125 ****       147.2500 122.2500 141.0000 Du        
   1126 ****       147.2500 122.2500 141.2500 Du        
   1127 ****       147.2500 122.5000 140.0000 Du        
   1128 ****       147.2500 122.5000 140.2500 Du        
   1129 ****       147.2500 122.5000 140.5000 Du        
   1130 ****       147.2500 122.5000 140.7500 Du        
   1131 ****       147.2500 122.5000 141.0000 Du        
   1132 ****       147.2500 122.5000 141.2500 Du        
   1133 ****       147.2500 122.5000 141.5000 Du        
   1134 ****       147.2500 122.7500 140.0000 Du        
   1135 ****       147.2500 122.7500 140.2500 Du        
   1136 ****       147.2500 122.7500 140.5000 Du        
   1137 ****       147.2500 122.7500 140.7500 Du        
   1138 ****       147.2500 122.7500 141.0000 Du        
   1139 ****       147.2500 122.7500 141.2500 Du        
   1140 ****       147.2500 122.7500 141.5000 Du        
   1141 ****       147.2500 123.0000 140.2500 Du        
   1142 ****       147.2500 123.0000 140.5000 Du        
   1143 ****       147.2500 123.0000 140.7500 Du        
   1144 ****       147.5000  97.7500 146.0000 Du        
   1145 ****       147.5000  98.0000 146.0000 Du        
   1146 ****       147.5000  98.5000 142.0000 Du        
   1147 ****       147.5000  98.5000 142.2500 Du        
   1148 ****       147.5000  98.5000 142.5000 Du        
   1149 ****       147.5000  98.5000 142.7500 Du        
   1150 ****       147.5000  98.5000 143.0000 Du        
   1151 ****       147.5000  98.5000 143.2500 Du        
   1152 ****       147.5000  98.7500 142.0000 Du        
   1153 ****       147.5000  98.7500 142.2500 Du        
   1154 ****       147.5000  98.7500 142.5000 Du        
   1155 ****       147.5000  98.7500 142.7500 Du        
   1156 ****       147.5000  98.7500 143.0000 Du        
   1157 ****       147.5000  98.7500 143.2500 Du        
   1158 ****       147.5000  98.7500 143.5000 Du        
   1159 ****       147.5000  99.0000 142.0000 Du        
   1160 ****       147.5000  99.0000 142.2500 Du        
   1161 ****       147.5000  99.0000 142.5000 Du        
   1162 ****       147.5000  99.0000 142.7500 Du        
   1163 ****       147.5000  99.0000 143.0000 Du        
   1164 ****       147.5000  99.0000 143.2500 Du        
   1165 ****       147.5000  99.0000 143.5000 Du        
   1166 ****       147.5000  99.2500 142.2500 Du        
   1167 ****       147.5000  99.2500 142.5000 Du        
   1168 ****       147.5000  99.2500 142.7500 Du        
   1169 ****       147.5000  99.2500 143.0000 Du        
   1170 ****       147.5000  99.2500 143.2500 Du        
   1171 ****       147.5000  99.5000 142.2500 Du        
   1172 ****       147.5000  99.5000 142.5000 Du        
   1173 ****       147.5000  99.5000 142.7500 Du        
   1174 ****       147.5000  99.5000 143.0000 Du        
   1175 ****       147.5000  99.5000 143.2500 Du        
   1176 ****       147.5000  99.7500 142.5000 Du        
   1177 ****       147.5000  99.7500 142.7500 Du        
   1178 ****       147.5000  99.7500 143.0000 Du        
   1179 ****       147.5000 111.5000 138.0000 Du        
   1180 ****       147.5000 111.7500 138.2500 Du        
   1181 ****       147.5000 118.5000 139.7500 Du        
   1182 ****       147.5000 118.5000 140.0000 Du        
   1183 ****       147.5000 118.5000 140.2500 Du        
   1184 ****       147.5000 118.5000 140.5000 Du        
   1185 ****       147.5000 118.5000 141.0000 Du        
   1186 ****       147.5000 118.7500 139.7500 Du        
   1187 ****       147.5000 118.7500 140.0000 Du        
   1188 ****       147.5000 118.7500 140.2500 Du        
   1189 ****       147.5000 118.7500 140.5000 Du        
   1190 ****       147.5000 118.7500 140.7500 Du        
   1191 ****       147.5000 118.7500 141.0000 Du        
   1192 ****       147.5000 118.7500 141.2500 Du        
   1193 ****       147.5000 119.0000 139.7500 Du        
   1194 ****       147.5000 119.0000 140.0000 Du        
   1195 ****       147.5000 119.0000 140.2500 Du        
   1196 ****       147.5000 119.0000 140.5000 Du        
   1197 ****       147.5000 119.0000 140.7500 Du        
   1198 ****       147.5000 119.0000 141.0000 Du        
   1199 ****       147.5000 119.0000 141.2500 Du        
   1200 ****       147.5000 119.2500 139.7500 Du        
   1201 ****       147.5000 119.2500 140.0000 Du        
   1202 ****       147.5000 119.2500 140.2500 Du        
   1203 ****       147.5000 119.2500 140.5000 Du        
   1204 ****       147.5000 119.2500 140.7500 Du        
   1205 ****       147.5000 119.2500 141.0000 Du        
   1206 ****       147.5000 119.5000 139.7500 Du        
   1207 ****       147.5000 119.5000 140.0000 Du        
   1208 ****       147.5000 119.5000 140.2500 Du        
   1209 ****       147.5000 119.5000 140.5000 Du        
   1210 ****       147.5000 119.5000 140.7500 Du        
   1211 ****       147.5000 119.5000 141.0000 Du        
   1212 ****       147.5000 119.7500 139.7500 Du        
   1213 ****       147.5000 119.7500 140.0000 Du        
   1214 ****       147.5000 119.7500 140.2500 Du        
   1215 ****       147.5000 119.7500 140.5000 Du        
   1216 ****       147.5000 119.7500 140.7500 Du        
   1217 ****       147.5000 120.0000 139.7500 Du        
   1218 ****       147.5000 120.0000 140.0000 Du        
   1219 ****       147.5000 120.0000 140.2500 Du        
   1220 ****       147.5000 120.0000 140.5000 Du        
   1221 ****       147.5000 120.0000 140.7500 Du        
   1222 ****       147.5000 120.2500 139.5000 Du        
   1223 ****       147.5000 120.2500 139.7500 Du        
   1224 ****       147.5000 120.2500 140.0000 Du        
   1225 ****       147.5000 120.2500 140.2500 Du        
   1226 ****       147.5000 120.2500 140.5000 Du        
   1227 ****       147.5000 120.2500 140.7500 Du        
   1228 ****       147.5000 120.5000 139.5000 Du        
   1229 ****       147.5000 120.5000 139.7500 Du        
   1230 ****       147.5000 120.5000 140.0000 Du        
   1231 ****       147.5000 120.5000 140.2500 Du        
   1232 ****       147.5000 120.5000 140.5000 Du        
   1233 ****       147.5000 120.5000 140.7500 Du        
   1234 ****       147.5000 120.7500 139.2500 Du        
   1235 ****       147.5000 120.7500 139.5000 Du        
   1236 ****       147.5000 120.7500 139.7500 Du        
   1237 ****       147.5000 120.7500 140.0000 Du        
   1238 ****       147.5000 120.7500 140.2500 Du        
   1239 ****       147.5000 120.7500 140.5000 Du        
   1240 ****       147.5000 120.7500 140.7500 Du        
   1241 ****       147.5000 121.0000 139.2500 Du        
   1242 ****       147.5000 121.0000 139.5000 Du        
   1243 ****       147.5000 121.0000 139.7500 Du        
   1244 ****       147.5000 121.0000 140.0000 Du        
   1245 ****       147.5000 121.0000 140.2500 Du        
   1246 ****       147.5000 121.0000 140.5000 Du        
   1247 ****       147.5000 121.0000 140.7500 Du        
   1248 ****       147.5000 121.2500 139.2500 Du        
   1249 ****       147.5000 121.2500 139.5000 Du        
   1250 ****       147.5000 121.2500 139.7500 Du        
   1251 ****       147.5000 121.2500 140.0000 Du        
   1252 ****       147.5000 121.2500 140.2500 Du        
   1253 ****       147.5000 121.2500 140.5000 Du        
   1254 ****       147.5000 121.2500 140.7500 Du        
   1255 ****       147.5000 121.5000 139.2500 Du        
   1256 ****       147.5000 121.5000 139.5000 Du        
   1257 ****       147.5000 121.5000 139.7500 Du        
   1258 ****       147.5000 121.5000 140.0000 Du        
   1259 ****       147.5000 121.5000 140.2500 Du        
   1260 ****       147.5000 121.5000 140.5000 Du        
   1261 ****       147.5000 121.5000 140.7500 Du        
   1262 ****       147.5000 121.5000 141.0000 Du        
   1263 ****       147.5000 121.7500 139.2500 Du        
   1264 ****       147.5000 121.7500 139.5000 Du        
   1265 ****       147.5000 121.7500 139.7500 Du        
   1266 ****       147.5000 121.7500 140.0000 Du        
   1267 ****       147.5000 121.7500 140.2500 Du        
   1268 ****       147.5000 121.7500 140.5000 Du        
   1269 ****       147.5000 121.7500 140.7500 Du        
   1270 ****       147.5000 121.7500 141.0000 Du        
   1271 ****       147.5000 122.0000 139.5000 Du        
   1272 ****       147.5000 122.0000 139.7500 Du        
   1273 ****       147.5000 122.0000 140.0000 Du        
   1274 ****       147.5000 122.0000 140.2500 Du        
   1275 ****       147.5000 122.0000 140.5000 Du        
   1276 ****       147.5000 122.0000 140.7500 Du        
   1277 ****       147.5000 122.0000 141.0000 Du        
   1278 ****       147.5000 122.0000 141.2500 Du        
   1279 ****       147.5000 122.2500 139.5000 Du        
   1280 ****       147.5000 122.2500 139.7500 Du        
   1281 ****       147.5000 122.2500 140.0000 Du        
   1282 ****       147.5000 122.2500 140.2500 Du        
   1283 ****       147.5000 122.2500 140.5000 Du        
   1284 ****       147.5000 122.2500 140.7500 Du        
   1285 ****       147.5000 122.2500 141.0000 Du        
   1286 ****       147.5000 122.2500 141.2500 Du        
   1287 ****       147.5000 122.2500 141.5000 Du        
   1288 ****       147.5000 122.5000 139.7500 Du        
   1289 ****       147.5000 122.5000 140.0000 Du        
   1290 ****       147.5000 122.5000 140.2500 Du        
   1291 ****       147.5000 122.5000 140.5000 Du        
   1292 ****       147.5000 122.5000 140.7500 Du        
   1293 ****       147.5000 122.5000 141.0000 Du        
   1294 ****       147.5000 122.5000 141.2500 Du        
   1295 ****       147.5000 122.5000 141.5000 Du        
   1296 ****       147.5000 122.7500 139.7500 Du        
   1297 ****       147.5000 122.7500 140.0000 Du        
   1298 ****       147.5000 122.7500 140.2500 Du        
   1299 ****       147.5000 122.7500 140.5000 Du        
   1300 ****       147.5000 122.7500 140.7500 Du        
   1301 ****       147.5000 122.7500 141.0000 Du        
   1302 ****       147.5000 122.7500 141.2500 Du        
   1303 ****       147.5000 122.7500 141.5000 Du        
   1304 ****       147.5000 123.0000 139.7500 Du        
   1305 ****       147.5000 123.0000 140.0000 Du        
   1306 ****       147.5000 123.0000 140.2500 Du        
   1307 ****       147.5000 123.0000 140.5000 Du        
   1308 ****       147.5000 123.0000 140.7500 Du        
   1309 ****       147.7500  97.5000 146.0000 Du        
   1310 ****       147.7500  97.7500 146.0000 Du        
   1311 ****       147.7500  98.0000 145.7500 Du        
   1312 ****       147.7500  98.0000 146.0000 Du        
   1313 ****       147.7500  98.5000 142.5000 Du        
   1314 ****       147.7500  98.7500 142.2500 Du        
   1315 ****       147.7500  98.7500 142.5000 Du        
   1316 ****       147.7500  98.7500 142.7500 Du        
   1317 ****       147.7500  98.7500 143.0000 Du        
   1318 ****       147.7500  99.0000 142.2500 Du        
   1319 ****       147.7500  99.0000 142.5000 Du        
   1320 ****       147.7500  99.0000 142.7500 Du        
   1321 ****       147.7500  99.0000 143.0000 Du        
   1322 ****       147.7500  99.0000 143.2500 Du        
   1323 ****       147.7500  99.2500 142.5000 Du        
   1324 ****       147.7500  99.2500 142.7500 Du        
   1325 ****       147.7500  99.2500 143.0000 Du        
   1326 ****       147.7500  99.2500 143.2500 Du        
   1327 ****       147.7500  99.5000 142.5000 Du        
   1328 ****       147.7500  99.5000 142.7500 Du        
   1329 ****       147.7500  99.5000 143.0000 Du        
   1330 ****       147.7500  99.5000 143.2500 Du        
   1331 ****       147.7500  99.7500 142.7500 Du        
   1332 ****       147.7500  99.7500 143.0000 Du        
   1333 ****       147.7500 118.2500 139.5000 Du        
   1334 ****       147.7500 118.2500 139.7500 Du        
   1335 ****       147.7500 118.2500 140.0000 Du        
   1336 ****       147.7500 118.2500 140.2500 Du        
   1337 ****       147.7500 118.2500 140.5000 Du        
   1338 ****       147.7500 118.2500 140.7500 Du        
   1339 ****       147.7500 118.2500 141.0000 Du        
   1340 ****       147.7500 118.2500 141.2500 Du        
   1341 ****       147.7500 118.5000 139.5000 Du        
   1342 ****       147.7500 118.5000 139.7500 Du        
   1343 ****       147.7500 118.5000 140.0000 Du        
   1344 ****       147.7500 118.5000 140.2500 Du        
   1345 ****       147.7500 118.5000 140.5000 Du        
   1346 ****       147.7500 118.5000 140.7500 Du        
   1347 ****       147.7500 118.5000 141.0000 Du        
   1348 ****       147.7500 118.5000 141.2500 Du        
   1349 ****       147.7500 118.5000 141.5000 Du        
   1350 ****       147.7500 118.7500 139.7500 Du        
   1351 ****       147.7500 118.7500 140.0000 Du        
   1352 ****       147.7500 118.7500 140.2500 Du        
   1353 ****       147.7500 118.7500 140.5000 Du        
   1354 ****       147.7500 118.7500 140.7500 Du        
   1355 ****       147.7500 118.7500 141.0000 Du        
   1356 ****       147.7500 118.7500 141.2500 Du        
   1357 ****       147.7500 118.7500 141.5000 Du        
   1358 ****       147.7500 119.0000 139.5000 Du        
   1359 ****       147.7500 119.0000 139.7500 Du        
   1360 ****       147.7500 119.0000 140.0000 Du        
   1361 ****       147.7500 119.0000 140.2500 Du        
   1362 ****       147.7500 119.0000 140.5000 Du        
   1363 ****       147.7500 119.0000 140.7500 Du        
   1364 ****       147.7500 119.0000 141.0000 Du        
   1365 ****       147.7500 119.0000 141.2500 Du        
   1366 ****       147.7500 119.2500 139.5000 Du        
   1367 ****       147.7500 119.2500 139.7500 Du        
   1368 ****       147.7500 119.2500 140.0000 Du        
   1369 ****       147.7500 119.2500 140.2500 Du        
   1370 ****       147.7500 119.2500 140.5000 Du        
   1371 ****       147.7500 119.2500 140.7500 Du        
   1372 ****       147.7500 119.2500 141.0000 Du        
   1373 ****       147.7500 119.2500 141.2500 Du        
   1374 ****       147.7500 119.5000 139.7500 Du        
   1375 ****       147.7500 119.5000 140.0000 Du        
   1376 ****       147.7500 119.5000 140.2500 Du        
   1377 ****       147.7500 119.5000 140.5000 Du        
   1378 ****       147.7500 119.5000 140.7500 Du        
   1379 ****       147.7500 119.5000 141.0000 Du        
   1380 ****       147.7500 119.7500 139.7500 Du        
   1381 ****       147.7500 119.7500 140.0000 Du        
   1382 ****       147.7500 119.7500 140.2500 Du        
   1383 ****       147.7500 119.7500 140.5000 Du        
   1384 ****       147.7500 119.7500 140.7500 Du        
   1385 ****       147.7500 119.7500 141.0000 Du        
   1386 ****       147.7500 120.0000 139.5000 Du        
   1387 ****       147.7500 120.0000 139.7500 Du        
   1388 ****       147.7500 120.0000 140.0000 Du        
   1389 ****       147.7500 120.0000 140.2500 Du        
   1390 ****       147.7500 120.0000 140.5000 Du        
   1391 ****       147.7500 120.0000 140.7500 Du        
   1392 ****       147.7500 120.0000 141.0000 Du        
   1393 ****       147.7500 120.2500 139.2500 Du        
   1394 ****       147.7500 120.2500 139.5000 Du        
   1395 ****       147.7500 120.2500 139.7500 Du        
   1396 ****       147.7500 120.2500 140.0000 Du        
   1397 ****       147.7500 120.2500 140.2500 Du        
   1398 ****       147.7500 120.2500 140.5000 Du        
   1399 ****       147.7500 120.2500 140.7500 Du        
   1400 ****       147.7500 120.2500 141.0000 Du        
   1401 ****       147.7500 120.5000 139.2500 Du        
   1402 ****       147.7500 120.5000 139.5000 Du        
   1403 ****       147.7500 120.5000 139.7500 Du        
   1404 ****       147.7500 120.5000 140.0000 Du        
   1405 ****       147.7500 120.5000 140.2500 Du        
   1406 ****       147.7500 120.5000 140.5000 Du        
   1407 ****       147.7500 120.5000 140.7500 Du        
   1408 ****       147.7500 120.5000 141.0000 Du        
   1409 ****       147.7500 120.7500 139.2500 Du        
   1410 ****       147.7500 120.7500 139.5000 Du        
   1411 ****       147.7500 120.7500 139.7500 Du        
   1412 ****       147.7500 120.7500 140.0000 Du        
   1413 ****       147.7500 120.7500 140.2500 Du        
   1414 ****       147.7500 120.7500 140.5000 Du        
   1415 ****       147.7500 120.7500 140.7500 Du        
   1416 ****       147.7500 120.7500 141.0000 Du        
   1417 ****       147.7500 121.0000 139.0000 Du        
   1418 ****       147.7500 121.0000 139.2500 Du        
   1419 ****       147.7500 121.0000 139.5000 Du        
   1420 ****       147.7500 121.0000 139.7500 Du        
   1421 ****       147.7500 121.0000 140.0000 Du        
   1422 ****       147.7500 121.0000 140.2500 Du        
   1423 ****       147.7500 121.0000 140.5000 Du        
   1424 ****       147.7500 121.0000 140.7500 Du        
   1425 ****       147.7500 121.0000 141.0000 Du        
   1426 ****       147.7500 121.2500 139.2500 Du        
   1427 ****       147.7500 121.2500 139.5000 Du        
   1428 ****       147.7500 121.2500 139.7500 Du        
   1429 ****       147.7500 121.2500 140.0000 Du        
   1430 ****       147.7500 121.2500 140.2500 Du        
   1431 ****       147.7500 121.2500 140.5000 Du        
   1432 ****       147.7500 121.2500 140.7500 Du        
   1433 ****       147.7500 121.2500 141.0000 Du        
   1434 ****       147.7500 121.5000 139.2500 Du        
   1435 ****       147.7500 121.5000 139.5000 Du        
   1436 ****       147.7500 121.5000 139.7500 Du        
   1437 ****       147.7500 121.5000 140.0000 Du        
   1438 ****       147.7500 121.5000 140.2500 Du        
   1439 ****       147.7500 121.5000 140.5000 Du        
   1440 ****       147.7500 121.5000 140.7500 Du        
   1441 ****       147.7500 121.5000 141.0000 Du        
   1442 ****       147.7500 121.7500 139.2500 Du        
   1443 ****       147.7500 121.7500 139.5000 Du        
   1444 ****       147.7500 121.7500 139.7500 Du        
   1445 ****       147.7500 121.7500 140.0000 Du        
   1446 ****       147.7500 121.7500 140.2500 Du        
   1447 ****       147.7500 121.7500 140.5000 Du        
   1448 ****       147.7500 121.7500 140.7500 Du        
   1449 ****       147.7500 121.7500 141.0000 Du        
   1450 ****       147.7500 121.7500 141.2500 Du        
   1451 ****       147.7500 122.0000 139.5000 Du        
   1452 ****       147.7500 122.0000 139.7500 Du        
   1453 ****       147.7500 122.0000 140.0000 Du        
   1454 ****       147.7500 122.0000 140.2500 Du        
   1455 ****       147.7500 122.0000 140.5000 Du        
   1456 ****       147.7500 122.0000 140.7500 Du        
   1457 ****       147.7500 122.0000 141.0000 Du        
   1458 ****       147.7500 122.0000 141.2500 Du        
   1459 ****       147.7500 122.2500 139.5000 Du        
   1460 ****       147.7500 122.2500 139.7500 Du        
   1461 ****       147.7500 122.2500 140.0000 Du        
   1462 ****       147.7500 122.2500 140.2500 Du        
   1463 ****       147.7500 122.2500 140.5000 Du        
   1464 ****       147.7500 122.2500 140.7500 Du        
   1465 ****       147.7500 122.2500 141.0000 Du        
   1466 ****       147.7500 122.2500 141.2500 Du        
   1467 ****       147.7500 122.2500 141.5000 Du        
   1468 ****       147.7500 122.5000 139.5000 Du        
   1469 ****       147.7500 122.5000 139.7500 Du        
   1470 ****       147.7500 122.5000 140.0000 Du        
   1471 ****       147.7500 122.5000 140.2500 Du        
   1472 ****       147.7500 122.5000 140.5000 Du        
   1473 ****       147.7500 122.5000 140.7500 Du        
   1474 ****       147.7500 122.5000 141.0000 Du        
   1475 ****       147.7500 122.5000 141.2500 Du        
   1476 ****       147.7500 122.5000 141.5000 Du        
   1477 ****       147.7500 122.7500 139.7500 Du        
   1478 ****       147.7500 122.7500 140.0000 Du        
   1479 ****       147.7500 122.7500 140.2500 Du        
   1480 ****       147.7500 122.7500 140.5000 Du        
   1481 ****       147.7500 122.7500 140.7500 Du        
   1482 ****       147.7500 122.7500 141.0000 Du        
   1483 ****       147.7500 122.7500 141.2500 Du        
   1484 ****       147.7500 122.7500 141.5000 Du        
   1485 ****       147.7500 123.0000 139.7500 Du        
   1486 ****       147.7500 123.0000 140.0000 Du        
   1487 ****       147.7500 123.0000 140.2500 Du        
   1488 ****       147.7500 123.0000 140.5000 Du        
   1489 ****       147.7500 123.0000 140.7500 Du        
   1490 ****       148.0000  97.7500 146.0000 Du        
   1491 ****       148.0000  98.0000 146.0000 Du        
   1492 ****       148.0000 104.7500 152.2500 Du        
   1493 ****       148.0000 104.7500 152.5000 Du        
   1494 ****       148.0000 104.7500 152.7500 Du        
   1495 ****       148.0000 104.7500 153.0000 Du        
   1496 ****       148.0000 105.0000 152.7500 Du        
   1497 ****       148.0000 105.0000 153.0000 Du        
   1498 ****       148.0000 105.7500 155.2500 Du        
   1499 ****       148.0000 106.0000 154.7500 Du        
   1500 ****       148.0000 106.0000 155.0000 Du        
   1501 ****       148.0000 106.0000 155.2500 Du        
   1502 ****       148.0000 106.0000 155.5000 Du        
   1503 ****       148.0000 106.2500 155.0000 Du        
   1504 ****       148.0000 106.2500 155.2500 Du        
   1505 ****       148.0000 106.2500 155.5000 Du        
   1506 ****       148.0000 106.5000 155.0000 Du        
   1507 ****       148.0000 106.5000 155.2500 Du        
   1508 ****       148.0000 106.5000 155.5000 Du        
   1509 ****       148.0000 106.7500 155.2500 Du        
   1510 ****       148.0000 116.5000 144.5000 Du        
   1511 ****       148.0000 116.5000 144.7500 Du        
   1512 ****       148.0000 116.7500 144.5000 Du        
   1513 ****       148.0000 118.0000 139.5000 Du        
   1514 ****       148.0000 118.0000 139.7500 Du        
   1515 ****       148.0000 118.0000 140.0000 Du        
   1516 ****       148.0000 118.0000 140.7500 Du        
   1517 ****       148.0000 118.0000 141.0000 Du        
   1518 ****       148.0000 118.2500 139.2500 Du        
   1519 ****       148.0000 118.2500 139.5000 Du        
   1520 ****       148.0000 118.2500 139.7500 Du        
   1521 ****       148.0000 118.2500 140.0000 Du        
   1522 ****       148.0000 118.2500 140.2500 Du        
   1523 ****       148.0000 118.2500 140.5000 Du        
   1524 ****       148.0000 118.2500 140.7500 Du        
   1525 ****       148.0000 118.2500 141.0000 Du        
   1526 ****       148.0000 118.2500 141.2500 Du        
   1527 ****       148.0000 118.2500 141.5000 Du        
   1528 ****       148.0000 118.2500 141.7500 Du        
   1529 ****       148.0000 118.5000 134.7500 Du        
   1530 ****       148.0000 118.5000 139.2500 Du        
   1531 ****       148.0000 118.5000 139.5000 Du        
   1532 ****       148.0000 118.5000 139.7500 Du        
   1533 ****       148.0000 118.5000 140.0000 Du        
   1534 ****       148.0000 118.5000 140.2500 Du        
   1535 ****       148.0000 118.5000 140.5000 Du        
   1536 ****       148.0000 118.5000 140.7500 Du        
   1537 ****       148.0000 118.5000 141.0000 Du        
   1538 ****       148.0000 118.5000 141.2500 Du        
   1539 ****       148.0000 118.5000 141.5000 Du        
   1540 ****       148.0000 118.5000 141.7500 Du        
   1541 ****       148.0000 118.7500 134.5000 Du        
   1542 ****       148.0000 118.7500 134.7500 Du        
   1543 ****       148.0000 118.7500 135.0000 Du        
   1544 ****       148.0000 118.7500 139.2500 Du        
   1545 ****       148.0000 118.7500 139.5000 Du        
   1546 ****       148.0000 118.7500 139.7500 Du        
   1547 ****       148.0000 118.7500 140.0000 Du        
   1548 ****       148.0000 118.7500 140.2500 Du        
   1549 ****       148.0000 118.7500 140.5000 Du        
   1550 ****       148.0000 118.7500 140.7500 Du        
   1551 ****       148.0000 118.7500 141.0000 Du        
   1552 ****       148.0000 118.7500 141.2500 Du        
   1553 ****       148.0000 118.7500 141.5000 Du        
   1554 ****       148.0000 119.0000 134.7500 Du        
   1555 ****       148.0000 119.0000 135.0000 Du        
   1556 ****       148.0000 119.0000 139.2500 Du        
   1557 ****       148.0000 119.0000 139.5000 Du        
   1558 ****       148.0000 119.0000 139.7500 Du        
   1559 ****       148.0000 119.0000 140.0000 Du        
   1560 ****       148.0000 119.0000 140.2500 Du        
   1561 ****       148.0000 119.0000 140.5000 Du        
   1562 ****       148.0000 119.0000 140.7500 Du        
   1563 ****       148.0000 119.0000 141.0000 Du        
   1564 ****       148.0000 119.0000 141.2500 Du        
   1565 ****       148.0000 119.0000 141.5000 Du        
   1566 ****       148.0000 119.2500 139.5000 Du        
   1567 ****       148.0000 119.2500 139.7500 Du        
   1568 ****       148.0000 119.2500 140.0000 Du        
   1569 ****       148.0000 119.2500 140.2500 Du        
   1570 ****       148.0000 119.2500 140.5000 Du        
   1571 ****       148.0000 119.2500 140.7500 Du        
   1572 ****       148.0000 119.2500 141.0000 Du        
   1573 ****       148.0000 119.2500 141.2500 Du        
   1574 ****       148.0000 119.5000 139.5000 Du        
   1575 ****       148.0000 119.5000 139.7500 Du        
   1576 ****       148.0000 119.5000 140.0000 Du        
   1577 ****       148.0000 119.5000 140.2500 Du        
   1578 ****       148.0000 119.5000 140.5000 Du        
   1579 ****       148.0000 119.5000 140.7500 Du        
   1580 ****       148.0000 119.5000 141.0000 Du        
   1581 ****       148.0000 119.5000 141.2500 Du        
   1582 ****       148.0000 119.7500 139.2500 Du        
   1583 ****       148.0000 119.7500 139.5000 Du        
   1584 ****       148.0000 119.7500 139.7500 Du        
   1585 ****       148.0000 119.7500 140.0000 Du        
   1586 ****       148.0000 119.7500 140.2500 Du        
   1587 ****       148.0000 119.7500 140.5000 Du        
   1588 ****       148.0000 119.7500 140.7500 Du        
   1589 ****       148.0000 119.7500 141.0000 Du        
   1590 ****       148.0000 120.0000 139.2500 Du        
   1591 ****       148.0000 120.0000 139.5000 Du        
   1592 ****       148.0000 120.0000 139.7500 Du        
   1593 ****       148.0000 120.0000 140.0000 Du        
   1594 ****       148.0000 120.0000 140.2500 Du        
   1595 ****       148.0000 120.0000 140.5000 Du        
   1596 ****       148.0000 120.0000 140.7500 Du        
   1597 ****       148.0000 120.0000 141.0000 Du        
   1598 ****       148.0000 120.2500 139.2500 Du        
   1599 ****       148.0000 120.2500 139.5000 Du        
   1600 ****       148.0000 120.2500 139.7500 Du        
   1601 ****       148.0000 120.2500 140.0000 Du        
   1602 ****       148.0000 120.2500 140.2500 Du        
   1603 ****       148.0000 120.2500 140.5000 Du        
   1604 ****       148.0000 120.2500 140.7500 Du        
   1605 ****       148.0000 120.2500 141.0000 Du        
   1606 ****       148.0000 120.5000 139.2500 Du        
   1607 ****       148.0000 120.5000 139.5000 Du        
   1608 ****       148.0000 120.5000 139.7500 Du        
   1609 ****       148.0000 120.5000 140.0000 Du        
   1610 ****       148.0000 120.5000 140.2500 Du        
   1611 ****       148.0000 120.5000 140.5000 Du        
   1612 ****       148.0000 120.5000 140.7500 Du        
   1613 ****       148.0000 120.5000 141.0000 Du        
   1614 ****       148.0000 120.7500 139.0000 Du        
   1615 ****       148.0000 120.7500 139.2500 Du        
   1616 ****       148.0000 120.7500 139.5000 Du        
   1617 ****       148.0000 120.7500 139.7500 Du        
   1618 ****       148.0000 120.7500 140.0000 Du        
   1619 ****       148.0000 120.7500 140.2500 Du        
   1620 ****       148.0000 120.7500 140.5000 Du        
   1621 ****       148.0000 120.7500 140.7500 Du        
   1622 ****       148.0000 120.7500 141.0000 Du        
   1623 ****       148.0000 121.0000 139.0000 Du        
   1624 ****       148.0000 121.0000 139.2500 Du        
   1625 ****       148.0000 121.0000 139.5000 Du        
   1626 ****       148.0000 121.0000 139.7500 Du        
   1627 ****       148.0000 121.0000 140.0000 Du        
   1628 ****       148.0000 121.0000 140.2500 Du        
   1629 ****       148.0000 121.0000 140.5000 Du        
   1630 ****       148.0000 121.0000 140.7500 Du        
   1631 ****       148.0000 121.0000 141.0000 Du        
   1632 ****       148.0000 121.2500 139.2500 Du        
   1633 ****       148.0000 121.2500 139.5000 Du        
   1634 ****       148.0000 121.2500 139.7500 Du        
   1635 ****       148.0000 121.2500 140.0000 Du        
   1636 ****       148.0000 121.2500 140.2500 Du        
   1637 ****       148.0000 121.2500 140.5000 Du        
   1638 ****       148.0000 121.2500 140.7500 Du        
   1639 ****       148.0000 121.2500 141.0000 Du        
   1640 ****       148.0000 121.5000 139.2500 Du        
   1641 ****       148.0000 121.5000 139.5000 Du        
   1642 ****       148.0000 121.5000 139.7500 Du        
   1643 ****       148.0000 121.5000 140.0000 Du        
   1644 ****       148.0000 121.5000 140.2500 Du        
   1645 ****       148.0000 121.5000 140.5000 Du        
   1646 ****       148.0000 121.5000 140.7500 Du        
   1647 ****       148.0000 121.5000 141.0000 Du        
   1648 ****       148.0000 121.5000 141.2500 Du        
   1649 ****       148.0000 121.7500 139.2500 Du        
   1650 ****       148.0000 121.7500 139.5000 Du        
   1651 ****       148.0000 121.7500 139.7500 Du        
   1652 ****       148.0000 121.7500 140.0000 Du        
   1653 ****       148.0000 121.7500 140.2500 Du        
   1654 ****       148.0000 121.7500 140.5000 Du        
   1655 ****       148.0000 121.7500 140.7500 Du        
   1656 ****       148.0000 121.7500 141.0000 Du        
   1657 ****       148.0000 121.7500 141.2500 Du        
   1658 ****       148.0000 122.0000 139.5000 Du        
   1659 ****       148.0000 122.0000 139.7500 Du        
   1660 ****       148.0000 122.0000 140.0000 Du        
   1661 ****       148.0000 122.0000 140.2500 Du        
   1662 ****       148.0000 122.0000 140.5000 Du        
   1663 ****       148.0000 122.0000 140.7500 Du        
   1664 ****       148.0000 122.0000 141.0000 Du        
   1665 ****       148.0000 122.0000 141.2500 Du        
   1666 ****       148.0000 122.0000 141.5000 Du        
   1667 ****       148.0000 122.2500 139.5000 Du        
   1668 ****       148.0000 122.2500 139.7500 Du        
   1669 ****       148.0000 122.2500 140.0000 Du        
   1670 ****       148.0000 122.2500 140.2500 Du        
   1671 ****       148.0000 122.2500 140.5000 Du        
   1672 ****       148.0000 122.2500 140.7500 Du        
   1673 ****       148.0000 122.2500 141.0000 Du        
   1674 ****       148.0000 122.2500 141.2500 Du        
   1675 ****       148.0000 122.2500 141.5000 Du        
   1676 ****       148.0000 122.5000 139.5000 Du        
   1677 ****       148.0000 122.5000 139.7500 Du        
   1678 ****       148.0000 122.5000 140.0000 Du        
   1679 ****       148.0000 122.5000 140.2500 Du        
   1680 ****       148.0000 122.5000 140.5000 Du        
   1681 ****       148.0000 122.5000 140.7500 Du        
   1682 ****       148.0000 122.5000 141.0000 Du        
   1683 ****       148.0000 122.5000 141.2500 Du        
   1684 ****       148.0000 122.5000 141.5000 Du        
   1685 ****       148.0000 122.5000 141.7500 Du        
   1686 ****       148.0000 122.7500 139.7500 Du        
   1687 ****       148.0000 122.7500 140.0000 Du        
   1688 ****       148.0000 122.7500 140.2500 Du        
   1689 ****       148.0000 122.7500 140.5000 Du        
   1690 ****       148.0000 122.7500 140.7500 Du        
   1691 ****       148.0000 122.7500 141.0000 Du        
   1692 ****       148.0000 122.7500 141.2500 Du        
   1693 ****       148.0000 122.7500 141.5000 Du        
   1694 ****       148.0000 122.7500 141.7500 Du        
   1695 ****       148.0000 123.0000 139.7500 Du        
   1696 ****       148.0000 123.0000 140.0000 Du        
   1697 ****       148.0000 123.0000 140.2500 Du        
   1698 ****       148.0000 123.0000 140.5000 Du        
   1699 ****       148.0000 123.0000 140.7500 Du        
   1700 ****       148.0000 123.0000 141.0000 Du        
   1701 ****       148.0000 123.2500 140.0000 Du        
   1702 ****       148.2500 104.7500 152.2500 Du        
   1703 ****       148.2500 104.7500 152.5000 Du        
   1704 ****       148.2500 104.7500 152.7500 Du        
   1705 ****       148.2500 104.7500 153.0000 Du        
   1706 ****       148.2500 105.0000 152.5000 Du        
   1707 ****       148.2500 105.0000 152.7500 Du        
   1708 ****       148.2500 105.0000 153.0000 Du        
   1709 ****       148.2500 105.2500 152.7500 Du        
   1710 ****       148.2500 105.5000 152.7500 Du        
   1711 ****       148.2500 105.7500 155.2500 Du        
   1712 ****       148.2500 106.0000 155.0000 Du        
   1713 ****       148.2500 106.0000 155.2500 Du        
   1714 ****       148.2500 106.0000 155.5000 Du        
   1715 ****       148.2500 106.0000 155.7500 Du        
   1716 ****       148.2500 106.2500 155.0000 Du        
   1717 ****       148.2500 106.2500 155.2500 Du        
   1718 ****       148.2500 106.2500 155.5000 Du        
   1719 ****       148.2500 106.5000 155.0000 Du        
   1720 ****       148.2500 106.5000 155.2500 Du        
   1721 ****       148.2500 106.5000 155.5000 Du        
   1722 ****       148.2500 106.7500 155.2500 Du        
   1723 ****       148.2500 106.7500 155.5000 Du        
   1724 ****       148.2500 116.2500 144.5000 Du        
   1725 ****       148.2500 116.2500 144.7500 Du        
   1726 ****       148.2500 116.5000 144.2500 Du        
   1727 ****       148.2500 116.5000 144.5000 Du        
   1728 ****       148.2500 116.5000 144.7500 Du        
   1729 ****       148.2500 116.7500 144.2500 Du        
   1730 ****       148.2500 116.7500 144.5000 Du        
   1731 ****       148.2500 116.7500 144.7500 Du        
   1732 ****       148.2500 117.7500 139.5000 Du        
   1733 ****       148.2500 118.0000 139.5000 Du        
   1734 ****       148.2500 118.0000 139.7500 Du        
   1735 ****       148.2500 118.0000 140.0000 Du        
   1736 ****       148.2500 118.0000 140.2500 Du        
   1737 ****       148.2500 118.0000 140.5000 Du        
   1738 ****       148.2500 118.0000 140.7500 Du        
   1739 ****       148.2500 118.0000 141.0000 Du        
   1740 ****       148.2500 118.0000 141.2500 Du        
   1741 ****       148.2500 118.0000 141.5000 Du        
   1742 ****       148.2500 118.0000 141.7500 Du        
   1743 ****       148.2500 118.0000 142.0000 Du        
   1744 ****       148.2500 118.2500 139.5000 Du        
   1745 ****       148.2500 118.2500 139.7500 Du        
   1746 ****       148.2500 118.2500 140.0000 Du        
   1747 ****       148.2500 118.2500 140.2500 Du        
   1748 ****       148.2500 118.2500 140.5000 Du        
   1749 ****       148.2500 118.2500 140.7500 Du        
   1750 ****       148.2500 118.2500 141.0000 Du        
   1751 ****       148.2500 118.2500 141.2500 Du        
   1752 ****       148.2500 118.2500 141.5000 Du        
   1753 ****       148.2500 118.2500 141.7500 Du        
   1754 ****       148.2500 118.5000 134.5000 Du        
   1755 ****       148.2500 118.5000 139.5000 Du        
   1756 ****       148.2500 118.5000 139.7500 Du        
   1757 ****       148.2500 118.5000 140.0000 Du        
   1758 ****       148.2500 118.5000 140.2500 Du        
   1759 ****       148.2500 118.5000 140.5000 Du        
   1760 ****       148.2500 118.5000 140.7500 Du        
   1761 ****       148.2500 118.5000 141.0000 Du        
   1762 ****       148.2500 118.5000 141.2500 Du        
   1763 ****       148.2500 118.5000 141.5000 Du        
   1764 ****       148.2500 118.5000 141.7500 Du        
   1765 ****       148.2500 118.7500 134.2500 Du        
   1766 ****       148.2500 118.7500 134.5000 Du        
   1767 ****       148.2500 118.7500 134.7500 Du        
   1768 ****       148.2500 118.7500 135.0000 Du        
   1769 ****       148.2500 118.7500 135.2500 Du        
   1770 ****       148.2500 118.7500 139.2500 Du        
   1771 ****       148.2500 118.7500 139.5000 Du        
   1772 ****       148.2500 118.7500 139.7500 Du        
   1773 ****       148.2500 118.7500 140.0000 Du        
   1774 ****       148.2500 118.7500 140.2500 Du        
   1775 ****       148.2500 118.7500 140.5000 Du        
   1776 ****       148.2500 118.7500 140.7500 Du        
   1777 ****       148.2500 118.7500 141.0000 Du        
   1778 ****       148.2500 118.7500 141.2500 Du        
   1779 ****       148.2500 118.7500 141.5000 Du        
   1780 ****       148.2500 119.0000 134.5000 Du        
   1781 ****       148.2500 119.0000 134.7500 Du        
   1782 ****       148.2500 119.0000 135.0000 Du        
   1783 ****       148.2500 119.0000 135.2500 Du        
   1784 ****       148.2500 119.0000 139.2500 Du        
   1785 ****       148.2500 119.0000 139.5000 Du        
   1786 ****       148.2500 119.0000 139.7500 Du        
   1787 ****       148.2500 119.0000 140.0000 Du        
   1788 ****       148.2500 119.0000 140.2500 Du        
   1789 ****       148.2500 119.0000 140.5000 Du        
   1790 ****       148.2500 119.0000 140.7500 Du        
   1791 ****       148.2500 119.0000 141.0000 Du        
   1792 ****       148.2500 119.0000 141.2500 Du        
   1793 ****       148.2500 119.0000 141.5000 Du        
   1794 ****       148.2500 119.2500 134.7500 Du        
   1795 ****       148.2500 119.2500 135.0000 Du        
   1796 ****       148.2500 119.2500 135.2500 Du        
   1797 ****       148.2500 119.2500 139.5000 Du        
   1798 ****       148.2500 119.2500 139.7500 Du        
   1799 ****       148.2500 119.2500 140.0000 Du        
   1800 ****       148.2500 119.2500 140.2500 Du        
   1801 ****       148.2500 119.2500 140.5000 Du        
   1802 ****       148.2500 119.2500 140.7500 Du        
   1803 ****       148.2500 119.2500 141.0000 Du        
   1804 ****       148.2500 119.2500 141.2500 Du        
   1805 ****       148.2500 119.5000 135.0000 Du        
   1806 ****       148.2500 119.5000 135.2500 Du        
   1807 ****       148.2500 119.5000 139.2500 Du        
   1808 ****       148.2500 119.5000 139.5000 Du        
   1809 ****       148.2500 119.5000 139.7500 Du        
   1810 ****       148.2500 119.5000 140.0000 Du        
   1811 ****       148.2500 119.5000 140.2500 Du        
   1812 ****       148.2500 119.5000 140.5000 Du        
   1813 ****       148.2500 119.5000 140.7500 Du        
   1814 ****       148.2500 119.5000 141.0000 Du        
   1815 ****       148.2500 119.5000 141.2500 Du        
   1816 ****       148.2500 119.7500 139.0000 Du        
   1817 ****       148.2500 119.7500 139.2500 Du        
   1818 ****       148.2500 119.7500 139.5000 Du        
   1819 ****       148.2500 119.7500 139.7500 Du        
   1820 ****       148.2500 119.7500 140.0000 Du        
   1821 ****       148.2500 119.7500 140.2500 Du        
   1822 ****       148.2500 119.7500 140.5000 Du        
   1823 ****       148.2500 119.7500 140.7500 Du        
   1824 ****       148.2500 119.7500 141.0000 Du        
   1825 ****       148.2500 119.7500 141.2500 Du        
   1826 ****       148.2500 120.0000 139.0000 Du        
   1827 ****       148.2500 120.0000 139.2500 Du        
   1828 ****       148.2500 120.0000 139.5000 Du        
   1829 ****       148.2500 120.0000 139.7500 Du        
   1830 ****       148.2500 120.0000 140.0000 Du        
   1831 ****       148.2500 120.0000 140.2500 Du        
   1832 ****       148.2500 120.0000 140.5000 Du        
   1833 ****       148.2500 120.0000 140.7500 Du        
   1834 ****       148.2500 120.0000 141.0000 Du        
   1835 ****       148.2500 120.2500 139.0000 Du        
   1836 ****       148.2500 120.2500 139.2500 Du        
   1837 ****       148.2500 120.2500 139.5000 Du        
   1838 ****       148.2500 120.2500 139.7500 Du        
   1839 ****       148.2500 120.2500 140.0000 Du        
   1840 ****       148.2500 120.2500 140.2500 Du        
   1841 ****       148.2500 120.2500 140.5000 Du        
   1842 ****       148.2500 120.2500 140.7500 Du        
   1843 ****       148.2500 120.2500 141.0000 Du        
   1844 ****       148.2500 120.5000 139.2500 Du        
   1845 ****       148.2500 120.5000 139.5000 Du        
   1846 ****       148.2500 120.5000 139.7500 Du        
   1847 ****       148.2500 120.5000 140.0000 Du        
   1848 ****       148.2500 120.5000 140.2500 Du        
   1849 ****       148.2500 120.5000 140.5000 Du        
   1850 ****       148.2500 120.5000 140.7500 Du        
   1851 ****       148.2500 120.5000 141.0000 Du        
   1852 ****       148.2500 120.7500 139.0000 Du        
   1853 ****       148.2500 120.7500 139.2500 Du        
   1854 ****       148.2500 120.7500 139.5000 Du        
   1855 ****       148.2500 120.7500 139.7500 Du        
   1856 ****       148.2500 120.7500 140.0000 Du        
   1857 ****       148.2500 120.7500 140.2500 Du        
   1858 ****       148.2500 120.7500 140.5000 Du        
   1859 ****       148.2500 120.7500 140.7500 Du        
   1860 ****       148.2500 120.7500 141.0000 Du        
   1861 ****       148.2500 121.0000 139.0000 Du        
   1862 ****       148.2500 121.0000 139.2500 Du        
   1863 ****       148.2500 121.0000 139.5000 Du        
   1864 ****       148.2500 121.0000 139.7500 Du        
   1865 ****       148.2500 121.0000 140.0000 Du        
   1866 ****       148.2500 121.0000 140.2500 Du        
   1867 ****       148.2500 121.0000 140.5000 Du        
   1868 ****       148.2500 121.0000 140.7500 Du        
   1869 ****       148.2500 121.0000 141.0000 Du        
   1870 ****       148.2500 121.2500 139.2500 Du        
   1871 ****       148.2500 121.2500 139.5000 Du        
   1872 ****       148.2500 121.2500 139.7500 Du        
   1873 ****       148.2500 121.2500 140.0000 Du        
   1874 ****       148.2500 121.2500 140.2500 Du        
   1875 ****       148.2500 121.2500 140.5000 Du        
   1876 ****       148.2500 121.2500 140.7500 Du        
   1877 ****       148.2500 121.2500 141.0000 Du        
   1878 ****       148.2500 121.2500 141.2500 Du        
   1879 ****       148.2500 121.5000 139.2500 Du        
   1880 ****       148.2500 121.5000 139.5000 Du        
   1881 ****       148.2500 121.5000 139.7500 Du        
   1882 ****       148.2500 121.5000 140.0000 Du        
   1883 ****       148.2500 121.5000 140.2500 Du        
   1884 ****       148.2500 121.5000 140.5000 Du        
   1885 ****       148.2500 121.5000 140.7500 Du        
   1886 ****       148.2500 121.5000 141.0000 Du        
   1887 ****       148.2500 121.5000 141.2500 Du        
   1888 ****       148.2500 121.7500 139.2500 Du        
   1889 ****       148.2500 121.7500 139.5000 Du        
   1890 ****       148.2500 121.7500 139.7500 Du        
   1891 ****       148.2500 121.7500 140.0000 Du        
   1892 ****       148.2500 121.7500 140.2500 Du        
   1893 ****       148.2500 121.7500 140.5000 Du        
   1894 ****       148.2500 121.7500 140.7500 Du        
   1895 ****       148.2500 121.7500 141.0000 Du        
   1896 ****       148.2500 121.7500 141.2500 Du        
   1897 ****       148.2500 122.0000 139.5000 Du        
   1898 ****       148.2500 122.0000 139.7500 Du        
   1899 ****       148.2500 122.0000 140.0000 Du        
   1900 ****       148.2500 122.0000 140.2500 Du        
   1901 ****       148.2500 122.0000 140.5000 Du        
   1902 ****       148.2500 122.0000 140.7500 Du        
   1903 ****       148.2500 122.0000 141.0000 Du        
   1904 ****       148.2500 122.0000 141.2500 Du        
   1905 ****       148.2500 122.0000 141.5000 Du        
   1906 ****       148.2500 122.2500 139.5000 Du        
   1907 ****       148.2500 122.2500 139.7500 Du        
   1908 ****       148.2500 122.2500 140.0000 Du        
   1909 ****       148.2500 122.2500 140.2500 Du        
   1910 ****       148.2500 122.2500 140.5000 Du        
   1911 ****       148.2500 122.2500 140.7500 Du        
   1912 ****       148.2500 122.2500 141.0000 Du        
   1913 ****       148.2500 122.2500 141.2500 Du        
   1914 ****       148.2500 122.2500 141.5000 Du        
   1915 ****       148.2500 122.2500 141.7500 Du        
   1916 ****       148.2500 122.5000 139.5000 Du        
   1917 ****       148.2500 122.5000 139.7500 Du        
   1918 ****       148.2500 122.5000 140.0000 Du        
   1919 ****       148.2500 122.5000 140.2500 Du        
   1920 ****       148.2500 122.5000 140.5000 Du        
   1921 ****       148.2500 122.5000 140.7500 Du        
   1922 ****       148.2500 122.5000 141.0000 Du        
   1923 ****       148.2500 122.5000 141.2500 Du        
   1924 ****       148.2500 122.5000 141.5000 Du        
   1925 ****       148.2500 122.5000 141.7500 Du        
   1926 ****       148.2500 122.7500 139.7500 Du        
   1927 ****       148.2500 122.7500 140.0000 Du        
   1928 ****       148.2500 122.7500 140.2500 Du        
   1929 ****       148.2500 122.7500 140.5000 Du        
   1930 ****       148.2500 122.7500 140.7500 Du        
   1931 ****       148.2500 122.7500 141.0000 Du        
   1932 ****       148.2500 122.7500 141.2500 Du        
   1933 ****       148.2500 122.7500 141.5000 Du        
   1934 ****       148.2500 122.7500 141.7500 Du        
   1935 ****       148.2500 123.0000 139.7500 Du        
   1936 ****       148.2500 123.0000 140.0000 Du        
   1937 ****       148.2500 123.0000 140.2500 Du        
   1938 ****       148.2500 123.0000 140.5000 Du        
   1939 ****       148.2500 123.0000 140.7500 Du        
   1940 ****       148.2500 123.0000 141.0000 Du        
   1941 ****       148.2500 123.2500 139.7500 Du        
   1942 ****       148.2500 123.2500 140.0000 Du        
   1943 ****       148.5000 104.2500 152.2500 Du        
   1944 ****       148.5000 104.5000 152.2500 Du        
   1945 ****       148.5000 104.7500 152.2500 Du        
   1946 ****       148.5000 104.7500 152.5000 Du        
   1947 ****       148.5000 104.7500 152.7500 Du        
   1948 ****       148.5000 104.7500 153.0000 Du        
   1949 ****       148.5000 105.0000 152.7500 Du        
   1950 ****       148.5000 105.7500 155.5000 Du        
   1951 ****       148.5000 105.7500 155.7500 Du        
   1952 ****       148.5000 106.0000 154.7500 Du        
   1953 ****       148.5000 106.0000 155.0000 Du        
   1954 ****       148.5000 106.0000 155.2500 Du        
   1955 ****       148.5000 106.0000 155.5000 Du        
   1956 ****       148.5000 106.0000 155.7500 Du        
   1957 ****       148.5000 106.2500 155.0000 Du        
   1958 ****       148.5000 106.2500 155.2500 Du        
   1959 ****       148.5000 106.2500 155.5000 Du        
   1960 ****       148.5000 106.2500 155.7500 Du        
   1961 ****       148.5000 106.5000 155.0000 Du        
   1962 ****       148.5000 106.5000 155.2500 Du        
   1963 ****       148.5000 106.5000 155.5000 Du        
   1964 ****       148.5000 106.7500 155.2500 Du        
   1965 ****       148.5000 106.7500 155.5000 Du        
   1966 ****       148.5000 116.0000 144.2500 Du        
   1967 ****       148.5000 116.0000 144.5000 Du        
   1968 ****       148.5000 116.2500 144.2500 Du        
   1969 ****       148.5000 116.2500 144.5000 Du        
   1970 ****       148.5000 116.2500 144.7500 Du        
   1971 ****       148.5000 116.5000 144.2500 Du        
   1972 ****       148.5000 116.5000 144.5000 Du        
   1973 ****       148.5000 116.5000 144.7500 Du        
   1974 ****       148.5000 116.5000 145.0000 Du        
   1975 ****       148.5000 116.7500 144.2500 Du        
   1976 ****       148.5000 116.7500 144.5000 Du        
   1977 ****       148.5000 116.7500 144.7500 Du        
   1978 ****       148.5000 118.0000 140.0000 Du        
   1979 ****       148.5000 118.0000 140.2500 Du        
   1980 ****       148.5000 118.0000 140.5000 Du        
   1981 ****       148.5000 118.0000 140.7500 Du        
   1982 ****       148.5000 118.0000 141.0000 Du        
   1983 ****       148.5000 118.0000 141.2500 Du        
   1984 ****       148.5000 118.0000 141.5000 Du        
   1985 ****       148.5000 118.0000 141.7500 Du        
   1986 ****       148.5000 118.2500 140.0000 Du        
   1987 ****       148.5000 118.2500 140.2500 Du        
   1988 ****       148.5000 118.2500 140.5000 Du        
   1989 ****       148.5000 118.2500 140.7500 Du        
   1990 ****       148.5000 118.2500 141.0000 Du        
   1991 ****       148.5000 118.2500 141.2500 Du        
   1992 ****       148.5000 118.2500 141.5000 Du        
   1993 ****       148.5000 118.2500 141.7500 Du        
   1994 ****       148.5000 118.5000 140.0000 Du        
   1995 ****       148.5000 118.5000 140.2500 Du        
   1996 ****       148.5000 118.5000 140.5000 Du        
   1997 ****       148.5000 118.5000 140.7500 Du        
   1998 ****       148.5000 118.5000 141.0000 Du        
   1999 ****       148.5000 118.5000 141.2500 Du        
   2000 ****       148.5000 118.5000 141.5000 Du        
   2001 ****       148.5000 118.5000 141.7500 Du        
   2002 ****       148.5000 118.7500 134.5000 Du        
   2003 ****       148.5000 118.7500 134.7500 Du        
   2004 ****       148.5000 118.7500 135.0000 Du        
   2005 ****       148.5000 118.7500 135.2500 Du        
   2006 ****       148.5000 118.7500 140.0000 Du        
   2007 ****       148.5000 118.7500 140.2500 Du        
   2008 ****       148.5000 118.7500 140.5000 Du        
   2009 ****       148.5000 118.7500 140.7500 Du        
   2010 ****       148.5000 118.7500 141.0000 Du        
   2011 ****       148.5000 118.7500 141.2500 Du        
   2012 ****       148.5000 118.7500 141.5000 Du        
   2013 ****       148.5000 119.0000 134.5000 Du        
   2014 ****       148.5000 119.0000 134.7500 Du        
   2015 ****       148.5000 119.0000 135.0000 Du        
   2016 ****       148.5000 119.0000 135.2500 Du        
   2017 ****       148.5000 119.0000 135.5000 Du        
   2018 ****       148.5000 119.0000 139.7500 Du        
   2019 ****       148.5000 119.0000 140.0000 Du        
   2020 ****       148.5000 119.0000 140.2500 Du        
   2021 ****       148.5000 119.0000 140.5000 Du        
   2022 ****       148.5000 119.0000 140.7500 Du        
   2023 ****       148.5000 119.0000 141.0000 Du        
   2024 ****       148.5000 119.0000 141.2500 Du        
   2025 ****       148.5000 119.0000 141.5000 Du        
   2026 ****       148.5000 119.2500 134.5000 Du        
   2027 ****       148.5000 119.2500 134.7500 Du        
   2028 ****       148.5000 119.2500 135.0000 Du        
   2029 ****       148.5000 119.2500 135.2500 Du        
   2030 ****       148.5000 119.2500 135.5000 Du        
   2031 ****       148.5000 119.2500 139.7500 Du        
   2032 ****       148.5000 119.2500 140.0000 Du        
   2033 ****       148.5000 119.2500 140.2500 Du        
   2034 ****       148.5000 119.2500 140.5000 Du        
   2035 ****       148.5000 119.2500 140.7500 Du        
   2036 ****       148.5000 119.2500 141.0000 Du        
   2037 ****       148.5000 119.2500 141.2500 Du        
   2038 ****       148.5000 119.2500 141.5000 Du        
   2039 ****       148.5000 119.5000 134.7500 Du        
   2040 ****       148.5000 119.5000 135.0000 Du        
   2041 ****       148.5000 119.5000 135.2500 Du        
   2042 ****       148.5000 119.5000 135.5000 Du        
   2043 ****       148.5000 119.5000 140.0000 Du        
   2044 ****       148.5000 119.5000 140.2500 Du        
   2045 ****       148.5000 119.5000 140.5000 Du        
   2046 ****       148.5000 119.5000 140.7500 Du        
   2047 ****       148.5000 119.5000 141.0000 Du        
   2048 ****       148.5000 119.5000 141.2500 Du        
   2049 ****       148.5000 119.7500 135.0000 Du        
   2050 ****       148.5000 119.7500 135.2500 Du        
   2051 ****       148.5000 119.7500 135.5000 Du        
   2052 ****       148.5000 119.7500 139.7500 Du        
   2053 ****       148.5000 119.7500 140.0000 Du        
   2054 ****       148.5000 119.7500 140.2500 Du        
   2055 ****       148.5000 119.7500 140.5000 Du        
   2056 ****       148.5000 119.7500 140.7500 Du        
   2057 ****       148.5000 119.7500 141.0000 Du        
   2058 ****       148.5000 119.7500 141.2500 Du        
   2059 ****       148.5000 120.0000 135.2500 Du        
   2060 ****       148.5000 120.0000 135.5000 Du        
   2061 ****       148.5000 120.0000 139.2500 Du        
   2062 ****       148.5000 120.0000 139.5000 Du        
   2063 ****       148.5000 120.0000 139.7500 Du        
   2064 ****       148.5000 120.0000 140.0000 Du        
   2065 ****       148.5000 120.0000 140.2500 Du        
   2066 ****       148.5000 120.0000 140.5000 Du        
   2067 ****       148.5000 120.0000 140.7500 Du        
   2068 ****       148.5000 120.0000 141.0000 Du        
   2069 ****       148.5000 120.0000 141.2500 Du        
   2070 ****       148.5000 120.2500 139.2500 Du        
   2071 ****       148.5000 120.2500 139.5000 Du        
   2072 ****       148.5000 120.2500 139.7500 Du        
   2073 ****       148.5000 120.2500 140.0000 Du        
   2074 ****       148.5000 120.2500 140.2500 Du        
   2075 ****       148.5000 120.2500 140.5000 Du        
   2076 ****       148.5000 120.2500 140.7500 Du        
   2077 ****       148.5000 120.2500 141.0000 Du        
   2078 ****       148.5000 120.2500 141.2500 Du        
   2079 ****       148.5000 120.5000 139.2500 Du        
   2080 ****       148.5000 120.5000 139.5000 Du        
   2081 ****       148.5000 120.5000 139.7500 Du        
   2082 ****       148.5000 120.5000 140.0000 Du        
   2083 ****       148.5000 120.5000 140.2500 Du        
   2084 ****       148.5000 120.5000 140.5000 Du        
   2085 ****       148.5000 120.5000 140.7500 Du        
   2086 ****       148.5000 120.5000 141.0000 Du        
   2087 ****       148.5000 120.5000 141.2500 Du        
   2088 ****       148.5000 120.7500 139.0000 Du        
   2089 ****       148.5000 120.7500 139.2500 Du        
   2090 ****       148.5000 120.7500 139.5000 Du        
   2091 ****       148.5000 120.7500 139.7500 Du        
   2092 ****       148.5000 120.7500 140.0000 Du        
   2093 ****       148.5000 120.7500 140.2500 Du        
   2094 ****       148.5000 120.7500 140.5000 Du        
   2095 ****       148.5000 120.7500 140.7500 Du        
   2096 ****       148.5000 120.7500 141.0000 Du        
   2097 ****       148.5000 120.7500 141.2500 Du        
   2098 ****       148.5000 121.0000 139.0000 Du        
   2099 ****       148.5000 121.0000 139.2500 Du        
   2100 ****       148.5000 121.0000 139.5000 Du        
   2101 ****       148.5000 121.0000 139.7500 Du        
   2102 ****       148.5000 121.0000 140.0000 Du        
   2103 ****       148.5000 121.0000 140.2500 Du        
   2104 ****       148.5000 121.0000 140.5000 Du        
   2105 ****       148.5000 121.0000 140.7500 Du        
   2106 ****       148.5000 121.0000 141.0000 Du        
   2107 ****       148.5000 121.0000 141.2500 Du        
   2108 ****       148.5000 121.2500 139.2500 Du        
   2109 ****       148.5000 121.2500 139.5000 Du        
   2110 ****       148.5000 121.2500 139.7500 Du        
   2111 ****       148.5000 121.2500 140.0000 Du        
   2112 ****       148.5000 121.2500 140.2500 Du        
   2113 ****       148.5000 121.2500 140.5000 Du        
   2114 ****       148.5000 121.2500 140.7500 Du        
   2115 ****       148.5000 121.2500 141.0000 Du        
   2116 ****       148.5000 121.2500 141.2500 Du        
   2117 ****       148.5000 121.5000 139.2500 Du        
   2118 ****       148.5000 121.5000 139.5000 Du        
   2119 ****       148.5000 121.5000 139.7500 Du        
   2120 ****       148.5000 121.5000 140.0000 Du        
   2121 ****       148.5000 121.5000 140.2500 Du        
   2122 ****       148.5000 121.5000 140.5000 Du        
   2123 ****       148.5000 121.5000 140.7500 Du        
   2124 ****       148.5000 121.5000 141.0000 Du        
   2125 ****       148.5000 121.5000 141.2500 Du        
   2126 ****       148.5000 121.7500 139.5000 Du        
   2127 ****       148.5000 121.7500 139.7500 Du        
   2128 ****       148.5000 121.7500 140.0000 Du        
   2129 ****       148.5000 121.7500 140.2500 Du        
   2130 ****       148.5000 121.7500 140.5000 Du        
   2131 ****       148.5000 121.7500 140.7500 Du        
   2132 ****       148.5000 121.7500 141.0000 Du        
   2133 ****       148.5000 121.7500 141.2500 Du        
   2134 ****       148.5000 122.0000 139.5000 Du        
   2135 ****       148.5000 122.0000 139.7500 Du        
   2136 ****       148.5000 122.0000 140.0000 Du        
   2137 ****       148.5000 122.0000 140.2500 Du        
   2138 ****       148.5000 122.0000 140.5000 Du        
   2139 ****       148.5000 122.0000 140.7500 Du        
   2140 ****       148.5000 122.0000 141.0000 Du        
   2141 ****       148.5000 122.0000 141.2500 Du        
   2142 ****       148.5000 122.0000 141.5000 Du        
   2143 ****       148.5000 122.2500 139.5000 Du        
   2144 ****       148.5000 122.2500 139.7500 Du        
   2145 ****       148.5000 122.2500 140.0000 Du        
   2146 ****       148.5000 122.2500 140.2500 Du        
   2147 ****       148.5000 122.2500 140.5000 Du        
   2148 ****       148.5000 122.2500 140.7500 Du        
   2149 ****       148.5000 122.2500 141.0000 Du        
   2150 ****       148.5000 122.2500 141.2500 Du        
   2151 ****       148.5000 122.2500 141.5000 Du        
   2152 ****       148.5000 122.2500 141.7500 Du        
   2153 ****       148.5000 122.5000 139.5000 Du        
   2154 ****       148.5000 122.5000 139.7500 Du        
   2155 ****       148.5000 122.5000 140.0000 Du        
   2156 ****       148.5000 122.5000 140.2500 Du        
   2157 ****       148.5000 122.5000 140.5000 Du        
   2158 ****       148.5000 122.5000 140.7500 Du        
   2159 ****       148.5000 122.5000 141.0000 Du        
   2160 ****       148.5000 122.5000 141.2500 Du        
   2161 ****       148.5000 122.5000 141.5000 Du        
   2162 ****       148.5000 122.5000 141.7500 Du        
   2163 ****       148.5000 122.7500 139.7500 Du        
   2164 ****       148.5000 122.7500 140.0000 Du        
   2165 ****       148.5000 122.7500 140.2500 Du        
   2166 ****       148.5000 122.7500 140.5000 Du        
   2167 ****       148.5000 122.7500 140.7500 Du        
   2168 ****       148.5000 122.7500 141.0000 Du        
   2169 ****       148.5000 122.7500 141.2500 Du        
   2170 ****       148.5000 122.7500 141.5000 Du        
   2171 ****       148.5000 122.7500 141.7500 Du        
   2172 ****       148.5000 123.0000 139.7500 Du        
   2173 ****       148.5000 123.0000 140.0000 Du        
   2174 ****       148.5000 123.0000 140.2500 Du        
   2175 ****       148.5000 123.0000 140.5000 Du        
   2176 ****       148.5000 123.0000 140.7500 Du        
   2177 ****       148.5000 123.0000 141.0000 Du        
   2178 ****       148.5000 123.0000 141.2500 Du        
   2179 ****       148.5000 123.2500 139.7500 Du        
   2180 ****       148.5000 123.2500 140.0000 Du        
   2181 ****       148.7500 104.2500 152.2500 Du        
   2182 ****       148.7500 104.5000 152.2500 Du        
   2183 ****       148.7500 104.7500 152.2500 Du        
   2184 ****       148.7500 104.7500 152.7500 Du        
   2185 ****       148.7500 105.5000 155.7500 Du        
   2186 ****       148.7500 105.5000 156.0000 Du        
   2187 ****       148.7500 105.7500 155.5000 Du        
   2188 ****       148.7500 105.7500 155.7500 Du        
   2189 ****       148.7500 105.7500 156.0000 Du        
   2190 ****       148.7500 106.0000 155.0000 Du        
   2191 ****       148.7500 106.0000 155.2500 Du        
   2192 ****       148.7500 106.0000 155.5000 Du        
   2193 ****       148.7500 106.0000 155.7500 Du        
   2194 ****       148.7500 106.0000 156.0000 Du        
   2195 ****       148.7500 106.2500 155.0000 Du        
   2196 ****       148.7500 106.2500 155.2500 Du        
   2197 ****       148.7500 106.2500 155.5000 Du        
   2198 ****       148.7500 106.2500 155.7500 Du        
   2199 ****       148.7500 106.5000 155.0000 Du        
   2200 ****       148.7500 106.5000 155.2500 Du        
   2201 ****       148.7500 106.5000 155.5000 Du        
   2202 ****       148.7500 106.5000 155.7500 Du        
   2203 ****       148.7500 106.7500 155.2500 Du        
   2204 ****       148.7500 106.7500 155.5000 Du        
   2205 ****       148.7500 108.7500 149.2500 Du        
   2206 ****       148.7500 112.7500 139.0000 Du        
   2207 ****       148.7500 113.0000 139.0000 Du        
   2208 ****       148.7500 115.7500 144.2500 Du        
   2209 ****       148.7500 115.7500 144.5000 Du        
   2210 ****       148.7500 116.0000 144.0000 Du        
   2211 ****       148.7500 116.0000 144.2500 Du        
   2212 ****       148.7500 116.0000 144.5000 Du        
   2213 ****       148.7500 116.0000 144.7500 Du        
   2214 ****       148.7500 116.2500 144.0000 Du        
   2215 ****       148.7500 116.2500 144.2500 Du        
   2216 ****       148.7500 116.2500 144.5000 Du        
   2217 ****       148.7500 116.2500 144.7500 Du        
   2218 ****       148.7500 116.2500 145.0000 Du        
   2219 ****       148.7500 116.5000 144.0000 Du        
   2220 ****       148.7500 116.5000 144.2500 Du        
   2221 ****       148.7500 116.5000 144.5000 Du        
   2222 ****       148.7500 116.5000 144.7500 Du        
   2223 ****       148.7500 116.5000 145.0000 Du        
   2224 ****       148.7500 116.5000 145.2500 Du        
   2225 ****       148.7500 116.7500 143.7500 Du        
   2226 ****       148.7500 116.7500 144.0000 Du        
   2227 ****       148.7500 116.7500 144.2500 Du        
   2228 ****       148.7500 116.7500 144.5000 Du        
   2229 ****       148.7500 116.7500 144.7500 Du        
   2230 ****       148.7500 116.7500 145.0000 Du        
   2231 ****       148.7500 117.7500 141.0000 Du        
   2232 ****       148.7500 117.7500 141.2500 Du        
   2233 ****       148.7500 117.7500 142.0000 Du        
   2234 ****       148.7500 118.0000 139.7500 Du        
   2235 ****       148.7500 118.0000 140.0000 Du        
   2236 ****       148.7500 118.0000 140.2500 Du        
   2237 ****       148.7500 118.0000 140.5000 Du        
   2238 ****       148.7500 118.0000 140.7500 Du        
   2239 ****       148.7500 118.0000 141.0000 Du        
   2240 ****       148.7500 118.0000 141.2500 Du        
   2241 ****       148.7500 118.0000 141.5000 Du        
   2242 ****       148.7500 118.0000 141.7500 Du        
   2243 ****       148.7500 118.0000 142.0000 Du        
   2244 ****       148.7500 118.2500 139.7500 Du        
   2245 ****       148.7500 118.2500 140.0000 Du        
   2246 ****       148.7500 118.2500 140.2500 Du        
   2247 ****       148.7500 118.2500 140.5000 Du        
   2248 ****       148.7500 118.2500 140.7500 Du        
   2249 ****       148.7500 118.2500 141.0000 Du        
   2250 ****       148.7500 118.2500 141.2500 Du        
   2251 ****       148.7500 118.2500 141.5000 Du        
   2252 ****       148.7500 118.2500 141.7500 Du        
   2253 ****       148.7500 118.5000 140.0000 Du        
   2254 ****       148.7500 118.5000 140.2500 Du        
   2255 ****       148.7500 118.5000 140.5000 Du        
   2256 ****       148.7500 118.5000 140.7500 Du        
   2257 ****       148.7500 118.5000 141.0000 Du        
   2258 ****       148.7500 118.5000 141.2500 Du        
   2259 ****       148.7500 118.5000 141.5000 Du        
   2260 ****       148.7500 118.5000 141.7500 Du        
   2261 ****       148.7500 118.7500 134.5000 Du        
   2262 ****       148.7500 118.7500 134.7500 Du        
   2263 ****       148.7500 118.7500 135.0000 Du        
   2264 ****       148.7500 118.7500 135.2500 Du        
   2265 ****       148.7500 118.7500 135.5000 Du        
   2266 ****       148.7500 118.7500 140.0000 Du        
   2267 ****       148.7500 118.7500 140.2500 Du        
   2268 ****       148.7500 118.7500 140.5000 Du        
   2269 ****       148.7500 118.7500 140.7500 Du        
   2270 ****       148.7500 118.7500 141.0000 Du        
   2271 ****       148.7500 118.7500 141.2500 Du        
   2272 ****       148.7500 118.7500 141.5000 Du        
   2273 ****       148.7500 118.7500 141.7500 Du        
   2274 ****       148.7500 119.0000 134.5000 Du        
   2275 ****       148.7500 119.0000 134.7500 Du        
   2276 ****       148.7500 119.0000 135.0000 Du        
   2277 ****       148.7500 119.0000 135.2500 Du        
   2278 ****       148.7500 119.0000 135.5000 Du        
   2279 ****       148.7500 119.0000 135.7500 Du        
   2280 ****       148.7500 119.0000 136.0000 Du        
   2281 ****       148.7500 119.0000 139.7500 Du        
   2282 ****       148.7500 119.0000 140.0000 Du        
   2283 ****       148.7500 119.0000 140.2500 Du        
   2284 ****       148.7500 119.0000 140.5000 Du        
   2285 ****       148.7500 119.0000 140.7500 Du        
   2286 ****       148.7500 119.0000 141.0000 Du        
   2287 ****       148.7500 119.0000 141.2500 Du        
   2288 ****       148.7500 119.0000 141.5000 Du        
   2289 ****       148.7500 119.2500 134.5000 Du        
   2290 ****       148.7500 119.2500 134.7500 Du        
   2291 ****       148.7500 119.2500 135.0000 Du        
   2292 ****       148.7500 119.2500 135.2500 Du        
   2293 ****       148.7500 119.2500 135.5000 Du        
   2294 ****       148.7500 119.2500 135.7500 Du        
   2295 ****       148.7500 119.2500 136.0000 Du        
   2296 ****       148.7500 119.2500 139.7500 Du        
   2297 ****       148.7500 119.2500 140.0000 Du        
   2298 ****       148.7500 119.2500 140.2500 Du        
   2299 ****       148.7500 119.2500 140.5000 Du        
   2300 ****       148.7500 119.2500 140.7500 Du        
   2301 ****       148.7500 119.2500 141.0000 Du        
   2302 ****       148.7500 119.2500 141.2500 Du        
   2303 ****       148.7500 119.2500 141.5000 Du        
   2304 ****       148.7500 119.5000 134.5000 Du        
   2305 ****       148.7500 119.5000 134.7500 Du        
   2306 ****       148.7500 119.5000 135.0000 Du        
   2307 ****       148.7500 119.5000 135.2500 Du        
   2308 ****       148.7500 119.5000 135.5000 Du        
   2309 ****       148.7500 119.5000 135.7500 Du        
   2310 ****       148.7500 119.5000 140.0000 Du        
   2311 ****       148.7500 119.5000 140.2500 Du        
   2312 ****       148.7500 119.5000 140.5000 Du        
   2313 ****       148.7500 119.5000 140.7500 Du        
   2314 ****       148.7500 119.5000 141.0000 Du        
   2315 ****       148.7500 119.5000 141.2500 Du        
   2316 ****       148.7500 119.7500 134.5000 Du        
   2317 ****       148.7500 119.7500 134.7500 Du        
   2318 ****       148.7500 119.7500 135.0000 Du        
   2319 ****       148.7500 119.7500 135.2500 Du        
   2320 ****       148.7500 119.7500 135.5000 Du        
   2321 ****       148.7500 119.7500 135.7500 Du        
   2322 ****       148.7500 119.7500 139.7500 Du        
   2323 ****       148.7500 119.7500 140.0000 Du        
   2324 ****       148.7500 119.7500 140.2500 Du        
   2325 ****       148.7500 119.7500 140.5000 Du        
   2326 ****       148.7500 119.7500 140.7500 Du        
   2327 ****       148.7500 119.7500 141.0000 Du        
   2328 ****       148.7500 119.7500 141.2500 Du        
   2329 ****       148.7500 120.0000 134.7500 Du        
   2330 ****       148.7500 120.0000 135.0000 Du        
   2331 ****       148.7500 120.0000 135.2500 Du        
   2332 ****       148.7500 120.0000 135.5000 Du        
   2333 ****       148.7500 120.0000 135.7500 Du        
   2334 ****       148.7500 120.0000 139.2500 Du        
   2335 ****       148.7500 120.0000 139.5000 Du        
   2336 ****       148.7500 120.0000 139.7500 Du        
   2337 ****       148.7500 120.0000 140.0000 Du        
   2338 ****       148.7500 120.0000 140.2500 Du        
   2339 ****       148.7500 120.0000 140.5000 Du        
   2340 ****       148.7500 120.0000 140.7500 Du        
   2341 ****       148.7500 120.0000 141.0000 Du        
   2342 ****       148.7500 120.0000 141.2500 Du        
   2343 ****       148.7500 120.2500 134.7500 Du        
   2344 ****       148.7500 120.2500 135.0000 Du        
   2345 ****       148.7500 120.2500 135.2500 Du        
   2346 ****       148.7500 120.2500 135.5000 Du        
   2347 ****       148.7500 120.2500 135.7500 Du        
   2348 ****       148.7500 120.2500 139.2500 Du        
   2349 ****       148.7500 120.2500 139.5000 Du        
   2350 ****       148.7500 120.2500 139.7500 Du        
   2351 ****       148.7500 120.2500 140.0000 Du        
   2352 ****       148.7500 120.2500 140.2500 Du        
   2353 ****       148.7500 120.2500 140.5000 Du        
   2354 ****       148.7500 120.2500 140.7500 Du        
   2355 ****       148.7500 120.2500 141.0000 Du        
   2356 ****       148.7500 120.2500 141.2500 Du        
   2357 ****       148.7500 120.5000 135.0000 Du        
   2358 ****       148.7500 120.5000 135.2500 Du        
   2359 ****       148.7500 120.5000 139.0000 Du        
   2360 ****       148.7500 120.5000 139.2500 Du        
   2361 ****       148.7500 120.5000 139.5000 Du        
   2362 ****       148.7500 120.5000 139.7500 Du        
   2363 ****       148.7500 120.5000 140.0000 Du        
   2364 ****       148.7500 120.5000 140.2500 Du        
   2365 ****       148.7500 120.5000 140.5000 Du        
   2366 ****       148.7500 120.5000 140.7500 Du        
   2367 ****       148.7500 120.5000 141.0000 Du        
   2368 ****       148.7500 120.5000 141.2500 Du        
   2369 ****       148.7500 120.7500 139.0000 Du        
   2370 ****       148.7500 120.7500 139.2500 Du        
   2371 ****       148.7500 120.7500 139.5000 Du        
   2372 ****       148.7500 120.7500 139.7500 Du        
   2373 ****       148.7500 120.7500 140.0000 Du        
   2374 ****       148.7500 120.7500 140.2500 Du        
   2375 ****       148.7500 120.7500 140.5000 Du        
   2376 ****       148.7500 120.7500 140.7500 Du        
   2377 ****       148.7500 120.7500 141.0000 Du        
   2378 ****       148.7500 120.7500 141.2500 Du        
   2379 ****       148.7500 121.0000 139.0000 Du        
   2380 ****       148.7500 121.0000 139.2500 Du        
   2381 ****       148.7500 121.0000 139.5000 Du        
   2382 ****       148.7500 121.0000 139.7500 Du        
   2383 ****       148.7500 121.0000 140.0000 Du        
   2384 ****       148.7500 121.0000 140.2500 Du        
   2385 ****       148.7500 121.0000 140.5000 Du        
   2386 ****       148.7500 121.0000 140.7500 Du        
   2387 ****       148.7500 121.0000 141.0000 Du        
   2388 ****       148.7500 121.0000 141.2500 Du        
   2389 ****       148.7500 121.2500 139.2500 Du        
   2390 ****       148.7500 121.2500 139.5000 Du        
   2391 ****       148.7500 121.2500 139.7500 Du        
   2392 ****       148.7500 121.2500 140.0000 Du        
   2393 ****       148.7500 121.2500 140.2500 Du        
   2394 ****       148.7500 121.2500 140.5000 Du        
   2395 ****       148.7500 121.2500 140.7500 Du        
   2396 ****       148.7500 121.2500 141.0000 Du        
   2397 ****       148.7500 121.2500 141.2500 Du        
   2398 ****       148.7500 121.5000 139.2500 Du        
   2399 ****       148.7500 121.5000 139.5000 Du        
   2400 ****       148.7500 121.5000 139.7500 Du        
   2401 ****       148.7500 121.5000 140.0000 Du        
   2402 ****       148.7500 121.5000 140.2500 Du        
   2403 ****       148.7500 121.5000 140.5000 Du        
   2404 ****       148.7500 121.5000 140.7500 Du        
   2405 ****       148.7500 121.5000 141.0000 Du        
   2406 ****       148.7500 121.5000 141.2500 Du        
   2407 ****       148.7500 121.7500 139.5000 Du        
   2408 ****       148.7500 121.7500 139.7500 Du        
   2409 ****       148.7500 121.7500 140.0000 Du        
   2410 ****       148.7500 121.7500 140.2500 Du        
   2411 ****       148.7500 121.7500 140.5000 Du        
   2412 ****       148.7500 121.7500 140.7500 Du        
   2413 ****       148.7500 121.7500 141.0000 Du        
   2414 ****       148.7500 121.7500 141.2500 Du        
   2415 ****       148.7500 121.7500 141.5000 Du        
   2416 ****       148.7500 122.0000 139.5000 Du        
   2417 ****       148.7500 122.0000 139.7500 Du        
   2418 ****       148.7500 122.0000 140.0000 Du        
   2419 ****       148.7500 122.0000 140.2500 Du        
   2420 ****       148.7500 122.0000 140.5000 Du        
   2421 ****       148.7500 122.0000 140.7500 Du        
   2422 ****       148.7500 122.0000 141.0000 Du        
   2423 ****       148.7500 122.0000 141.2500 Du        
   2424 ****       148.7500 122.0000 141.5000 Du        
   2425 ****       148.7500 122.2500 139.5000 Du        
   2426 ****       148.7500 122.2500 139.7500 Du        
   2427 ****       148.7500 122.2500 140.0000 Du        
   2428 ****       148.7500 122.2500 140.2500 Du        
   2429 ****       148.7500 122.2500 140.5000 Du        
   2430 ****       148.7500 122.2500 140.7500 Du        
   2431 ****       148.7500 122.2500 141.0000 Du        
   2432 ****       148.7500 122.2500 141.2500 Du        
   2433 ****       148.7500 122.2500 141.5000 Du        
   2434 ****       148.7500 122.2500 141.7500 Du        
   2435 ****       148.7500 122.5000 139.5000 Du        
   2436 ****       148.7500 122.5000 139.7500 Du        
   2437 ****       148.7500 122.5000 140.0000 Du        
   2438 ****       148.7500 122.5000 140.2500 Du        
   2439 ****       148.7500 122.5000 140.5000 Du        
   2440 ****       148.7500 122.5000 140.7500 Du        
   2441 ****       148.7500 122.5000 141.0000 Du        
   2442 ****       148.7500 122.5000 141.2500 Du        
   2443 ****       148.7500 122.5000 141.5000 Du        
   2444 ****       148.7500 122.5000 141.7500 Du        
   2445 ****       148.7500 122.7500 139.7500 Du        
   2446 ****       148.7500 122.7500 140.0000 Du        
   2447 ****       148.7500 122.7500 140.2500 Du        
   2448 ****       148.7500 122.7500 140.5000 Du        
   2449 ****       148.7500 122.7500 140.7500 Du        
   2450 ****       148.7500 122.7500 141.0000 Du        
   2451 ****       148.7500 122.7500 141.2500 Du        
   2452 ****       148.7500 122.7500 141.5000 Du        
   2453 ****       148.7500 122.7500 141.7500 Du        
   2454 ****       148.7500 122.7500 142.0000 Du        
   2455 ****       148.7500 123.0000 139.7500 Du        
   2456 ****       148.7500 123.0000 140.0000 Du        
   2457 ****       148.7500 123.0000 140.2500 Du        
   2458 ****       148.7500 123.0000 140.5000 Du        
   2459 ****       148.7500 123.0000 140.7500 Du        
   2460 ****       148.7500 123.0000 141.0000 Du        
   2461 ****       148.7500 123.0000 141.2500 Du        
   2462 ****       148.7500 123.0000 141.5000 Du        
   2463 ****       148.7500 123.0000 141.7500 Du        
   2464 ****       148.7500 123.2500 139.7500 Du        
   2465 ****       148.7500 123.2500 140.0000 Du        
   2466 ****       148.7500 123.2500 140.2500 Du        
   2467 ****       149.0000 104.2500 152.2500 Du        
   2468 ****       149.0000 104.5000 152.2500 Du        
   2469 ****       149.0000 105.5000 156.0000 Du        
   2470 ****       149.0000 105.7500 155.5000 Du        
   2471 ****       149.0000 105.7500 155.7500 Du        
   2472 ****       149.0000 105.7500 156.0000 Du        
   2473 ****       149.0000 105.7500 156.2500 Du        
   2474 ****       149.0000 106.0000 155.0000 Du        
   2475 ****       149.0000 106.0000 155.2500 Du        
   2476 ****       149.0000 106.0000 155.5000 Du        
   2477 ****       149.0000 106.0000 155.7500 Du        
   2478 ****       149.0000 106.0000 156.0000 Du        
   2479 ****       149.0000 106.2500 154.7500 Du        
   2480 ****       149.0000 106.2500 155.0000 Du        
   2481 ****       149.0000 106.2500 155.2500 Du        
   2482 ****       149.0000 106.2500 155.5000 Du        
   2483 ****       149.0000 106.2500 155.7500 Du        
   2484 ****       149.0000 106.2500 156.0000 Du        
   2485 ****       149.0000 106.5000 155.0000 Du        
   2486 ****       149.0000 106.5000 155.2500 Du        
   2487 ****       149.0000 106.5000 155.5000 Du        
   2488 ****       149.0000 106.5000 155.7500 Du        
   2489 ****       149.0000 106.7500 155.0000 Du        
   2490 ****       149.0000 106.7500 155.2500 Du        
   2491 ****       149.0000 106.7500 155.5000 Du        
   2492 ****       149.0000 106.7500 155.7500 Du        
   2493 ****       149.0000 108.7500 149.2500 Du        
   2494 ****       149.0000 112.7500 138.7500 Du        
   2495 ****       149.0000 112.7500 139.0000 Du        
   2496 ****       149.0000 112.7500 139.2500 Du        
   2497 ****       149.0000 113.0000 138.7500 Du        
   2498 ****       149.0000 113.0000 139.0000 Du        
   2499 ****       149.0000 113.0000 139.2500 Du        
   2500 ****       149.0000 113.0000 143.7500 Du        
   2501 ****       149.0000 113.2500 139.0000 Du        
   2502 ****       149.0000 113.2500 139.2500 Du        
   2503 ****       149.0000 113.2500 143.5000 Du        
   2504 ****       149.0000 113.2500 143.7500 Du        
   2505 ****       149.0000 113.5000 143.2500 Du        
   2506 ****       149.0000 113.5000 143.5000 Du        
   2507 ****       149.0000 113.5000 143.7500 Du        
   2508 ****       149.0000 113.7500 143.5000 Du        
   2509 ****       149.0000 113.7500 143.7500 Du        
   2510 ****       149.0000 114.0000 143.7500 Du        
   2511 ****       149.0000 115.2500 144.0000 Du        
   2512 ****       149.0000 115.2500 144.2500 Du        
   2513 ****       149.0000 115.5000 144.0000 Du        
   2514 ****       149.0000 115.5000 144.2500 Du        
   2515 ****       149.0000 115.5000 144.5000 Du        
   2516 ****       149.0000 115.7500 144.0000 Du        
   2517 ****       149.0000 115.7500 144.2500 Du        
   2518 ****       149.0000 115.7500 144.5000 Du        
   2519 ****       149.0000 115.7500 144.7500 Du        
   2520 ****       149.0000 116.0000 143.7500 Du        
   2521 ****       149.0000 116.0000 144.0000 Du        
   2522 ****       149.0000 116.0000 144.2500 Du        
   2523 ****       149.0000 116.0000 144.5000 Du        
   2524 ****       149.0000 116.0000 144.7500 Du        
   2525 ****       149.0000 116.0000 145.0000 Du        
   2526 ****       149.0000 116.2500 143.7500 Du        
   2527 ****       149.0000 116.2500 144.0000 Du        
   2528 ****       149.0000 116.2500 144.2500 Du        
   2529 ****       149.0000 116.2500 144.5000 Du        
   2530 ****       149.0000 116.2500 144.7500 Du        
   2531 ****       149.0000 116.2500 145.0000 Du        
   2532 ****       149.0000 116.2500 145.2500 Du        
   2533 ****       149.0000 116.5000 143.7500 Du        
   2534 ****       149.0000 116.5000 144.0000 Du        
   2535 ****       149.0000 116.5000 144.2500 Du        
   2536 ****       149.0000 116.5000 144.5000 Du        
   2537 ****       149.0000 116.5000 144.7500 Du        
   2538 ****       149.0000 116.5000 145.0000 Du        
   2539 ****       149.0000 116.5000 145.2500 Du        
   2540 ****       149.0000 116.7500 143.7500 Du        
   2541 ****       149.0000 116.7500 144.0000 Du        
   2542 ****       149.0000 116.7500 144.2500 Du        
   2543 ****       149.0000 116.7500 144.5000 Du        
   2544 ****       149.0000 116.7500 144.7500 Du        
   2545 ****       149.0000 116.7500 145.0000 Du        
   2546 ****       149.0000 116.7500 145.2500 Du        
   2547 ****       149.0000 117.7500 140.7500 Du        
   2548 ****       149.0000 117.7500 141.0000 Du        
   2549 ****       149.0000 117.7500 141.2500 Du        
   2550 ****       149.0000 117.7500 141.5000 Du        
   2551 ****       149.0000 117.7500 141.7500 Du        
   2552 ****       149.0000 118.0000 140.0000 Du        
   2553 ****       149.0000 118.0000 140.7500 Du        
   2554 ****       149.0000 118.0000 141.0000 Du        
   2555 ****       149.0000 118.0000 141.2500 Du        
   2556 ****       149.0000 118.0000 141.5000 Du        
   2557 ****       149.0000 118.0000 141.7500 Du        
   2558 ****       149.0000 118.2500 140.0000 Du        
   2559 ****       149.0000 118.2500 140.5000 Du        
   2560 ****       149.0000 118.2500 140.7500 Du        
   2561 ****       149.0000 118.2500 141.0000 Du        
   2562 ****       149.0000 118.2500 141.2500 Du        
   2563 ****       149.0000 118.2500 141.5000 Du        
   2564 ****       149.0000 118.2500 141.7500 Du        
   2565 ****       149.0000 118.5000 140.5000 Du        
   2566 ****       149.0000 118.5000 140.7500 Du        
   2567 ****       149.0000 118.5000 141.0000 Du        
   2568 ****       149.0000 118.5000 141.2500 Du        
   2569 ****       149.0000 118.5000 141.5000 Du        
   2570 ****       149.0000 118.5000 141.7500 Du        
   2571 ****       149.0000 118.7500 134.5000 Du        
   2572 ****       149.0000 118.7500 134.7500 Du        
   2573 ****       149.0000 118.7500 135.0000 Du        
   2574 ****       149.0000 118.7500 135.2500 Du        
   2575 ****       149.0000 118.7500 140.2500 Du        
   2576 ****       149.0000 118.7500 140.5000 Du        
   2577 ****       149.0000 118.7500 140.7500 Du        
   2578 ****       149.0000 118.7500 141.0000 Du        
   2579 ****       149.0000 118.7500 141.2500 Du        
   2580 ****       149.0000 118.7500 141.5000 Du        
   2581 ****       149.0000 118.7500 141.7500 Du        
   2582 ****       149.0000 119.0000 134.5000 Du        
   2583 ****       149.0000 119.0000 134.7500 Du        
   2584 ****       149.0000 119.0000 135.0000 Du        
   2585 ****       149.0000 119.0000 135.2500 Du        
   2586 ****       149.0000 119.0000 135.5000 Du        
   2587 ****       149.0000 119.0000 135.7500 Du        
   2588 ****       149.0000 119.0000 136.0000 Du        
   2589 ****       149.0000 119.0000 139.7500 Du        
   2590 ****       149.0000 119.0000 140.0000 Du        
   2591 ****       149.0000 119.0000 140.2500 Du        
   2592 ****       149.0000 119.0000 140.5000 Du        
   2593 ****       149.0000 119.0000 140.7500 Du        
   2594 ****       149.0000 119.0000 141.0000 Du        
   2595 ****       149.0000 119.0000 141.2500 Du        
   2596 ****       149.0000 119.0000 141.5000 Du        
   2597 ****       149.0000 119.2500 134.5000 Du        
   2598 ****       149.0000 119.2500 134.7500 Du        
   2599 ****       149.0000 119.2500 135.0000 Du        
   2600 ****       149.0000 119.2500 135.2500 Du        
   2601 ****       149.0000 119.2500 135.5000 Du        
   2602 ****       149.0000 119.2500 135.7500 Du        
   2603 ****       149.0000 119.2500 136.0000 Du        
   2604 ****       149.0000 119.2500 136.2500 Du        
   2605 ****       149.0000 119.2500 139.7500 Du        
   2606 ****       149.0000 119.2500 140.0000 Du        
   2607 ****       149.0000 119.2500 140.2500 Du        
   2608 ****       149.0000 119.2500 140.5000 Du        
   2609 ****       149.0000 119.2500 140.7500 Du        
   2610 ****       149.0000 119.2500 141.0000 Du        
   2611 ****       149.0000 119.2500 141.2500 Du        
   2612 ****       149.0000 119.2500 141.5000 Du        
   2613 ****       149.0000 119.5000 134.5000 Du        
   2614 ****       149.0000 119.5000 134.7500 Du        
   2615 ****       149.0000 119.5000 135.0000 Du        
   2616 ****       149.0000 119.5000 135.2500 Du        
   2617 ****       149.0000 119.5000 135.5000 Du        
   2618 ****       149.0000 119.5000 135.7500 Du        
   2619 ****       149.0000 119.5000 136.0000 Du        
   2620 ****       149.0000 119.5000 140.0000 Du        
   2621 ****       149.0000 119.5000 140.2500 Du        
   2622 ****       149.0000 119.5000 140.5000 Du        
   2623 ****       149.0000 119.5000 140.7500 Du        
   2624 ****       149.0000 119.5000 141.0000 Du        
   2625 ****       149.0000 119.5000 141.2500 Du        
   2626 ****       149.0000 119.5000 141.5000 Du        
   2627 ****       149.0000 119.7500 134.5000 Du        
   2628 ****       149.0000 119.7500 134.7500 Du        
   2629 ****       149.0000 119.7500 135.0000 Du        
   2630 ****       149.0000 119.7500 135.2500 Du        
   2631 ****       149.0000 119.7500 135.5000 Du        
   2632 ****       149.0000 119.7500 135.7500 Du        
   2633 ****       149.0000 119.7500 136.0000 Du        
   2634 ****       149.0000 119.7500 136.2500 Du        
   2635 ****       149.0000 119.7500 139.7500 Du        
   2636 ****       149.0000 119.7500 140.0000 Du        
   2637 ****       149.0000 119.7500 140.2500 Du        
   2638 ****       149.0000 119.7500 140.5000 Du        
   2639 ****       149.0000 119.7500 140.7500 Du        
   2640 ****       149.0000 119.7500 141.0000 Du        
   2641 ****       149.0000 119.7500 141.2500 Du        
   2642 ****       149.0000 120.0000 134.5000 Du        
   2643 ****       149.0000 120.0000 134.7500 Du        
   2644 ****       149.0000 120.0000 135.0000 Du        
   2645 ****       149.0000 120.0000 135.2500 Du        
   2646 ****       149.0000 120.0000 135.5000 Du        
   2647 ****       149.0000 120.0000 135.7500 Du        
   2648 ****       149.0000 120.0000 136.0000 Du        
   2649 ****       149.0000 120.0000 139.7500 Du        
   2650 ****       149.0000 120.0000 140.0000 Du        
   2651 ****       149.0000 120.0000 140.2500 Du        
   2652 ****       149.0000 120.0000 140.5000 Du        
   2653 ****       149.0000 120.0000 140.7500 Du        
   2654 ****       149.0000 120.0000 141.0000 Du        
   2655 ****       149.0000 120.0000 141.2500 Du        
   2656 ****       149.0000 120.2500 134.5000 Du        
   2657 ****       149.0000 120.2500 134.7500 Du        
   2658 ****       149.0000 120.2500 135.0000 Du        
   2659 ****       149.0000 120.2500 135.2500 Du        
   2660 ****       149.0000 120.2500 135.5000 Du        
   2661 ****       149.0000 120.2500 135.7500 Du        
   2662 ****       149.0000 120.2500 136.0000 Du        
   2663 ****       149.0000 120.2500 139.7500 Du        
   2664 ****       149.0000 120.2500 140.0000 Du        
   2665 ****       149.0000 120.2500 140.2500 Du        
   2666 ****       149.0000 120.2500 140.5000 Du        
   2667 ****       149.0000 120.2500 140.7500 Du        
   2668 ****       149.0000 120.2500 141.0000 Du        
   2669 ****       149.0000 120.2500 141.2500 Du        
   2670 ****       149.0000 120.5000 134.5000 Du        
   2671 ****       149.0000 120.5000 134.7500 Du        
   2672 ****       149.0000 120.5000 135.0000 Du        
   2673 ****       149.0000 120.5000 135.2500 Du        
   2674 ****       149.0000 120.5000 135.5000 Du        
   2675 ****       149.0000 120.5000 139.5000 Du        
   2676 ****       149.0000 120.5000 139.7500 Du        
   2677 ****       149.0000 120.5000 140.0000 Du        
   2678 ****       149.0000 120.5000 140.2500 Du        
   2679 ****       149.0000 120.5000 140.5000 Du        
   2680 ****       149.0000 120.5000 140.7500 Du        
   2681 ****       149.0000 120.5000 141.0000 Du        
   2682 ****       149.0000 120.5000 141.2500 Du        
   2683 ****       149.0000 120.7500 134.5000 Du        
   2684 ****       149.0000 120.7500 134.7500 Du        
   2685 ****       149.0000 120.7500 135.0000 Du        
   2686 ****       149.0000 120.7500 135.2500 Du        
   2687 ****       149.0000 120.7500 139.0000 Du        
   2688 ****       149.0000 120.7500 139.2500 Du        
   2689 ****       149.0000 120.7500 139.5000 Du        
   2690 ****       149.0000 120.7500 139.7500 Du        
   2691 ****       149.0000 120.7500 140.0000 Du        
   2692 ****       149.0000 120.7500 140.2500 Du        
   2693 ****       149.0000 120.7500 140.5000 Du        
   2694 ****       149.0000 120.7500 140.7500 Du        
   2695 ****       149.0000 120.7500 141.0000 Du        
   2696 ****       149.0000 120.7500 141.2500 Du        
   2697 ****       149.0000 121.0000 134.5000 Du        
   2698 ****       149.0000 121.0000 134.7500 Du        
   2699 ****       149.0000 121.0000 135.0000 Du        
   2700 ****       149.0000 121.0000 139.2500 Du        
   2701 ****       149.0000 121.0000 139.5000 Du        
   2702 ****       149.0000 121.0000 139.7500 Du        
   2703 ****       149.0000 121.0000 140.0000 Du        
   2704 ****       149.0000 121.0000 140.2500 Du        
   2705 ****       149.0000 121.0000 140.5000 Du        
   2706 ****       149.0000 121.0000 140.7500 Du        
   2707 ****       149.0000 121.0000 141.0000 Du        
   2708 ****       149.0000 121.0000 141.2500 Du        
   2709 ****       149.0000 121.2500 134.2500 Du        
   2710 ****       149.0000 121.2500 139.5000 Du        
   2711 ****       149.0000 121.2500 139.7500 Du        
   2712 ****       149.0000 121.2500 140.0000 Du        
   2713 ****       149.0000 121.2500 140.2500 Du        
   2714 ****       149.0000 121.2500 140.5000 Du        
   2715 ****       149.0000 121.2500 140.7500 Du        
   2716 ****       149.0000 121.2500 141.0000 Du        
   2717 ****       149.0000 121.2500 141.2500 Du        
   2718 ****       149.0000 121.5000 139.5000 Du        
   2719 ****       149.0000 121.5000 139.7500 Du        
   2720 ****       149.0000 121.5000 140.0000 Du        
   2721 ****       149.0000 121.5000 140.2500 Du        
   2722 ****       149.0000 121.5000 140.5000 Du        
   2723 ****       149.0000 121.5000 140.7500 Du        
   2724 ****       149.0000 121.5000 141.0000 Du        
   2725 ****       149.0000 121.5000 141.2500 Du        
   2726 ****       149.0000 121.7500 139.5000 Du        
   2727 ****       149.0000 121.7500 139.7500 Du        
   2728 ****       149.0000 121.7500 140.0000 Du        
   2729 ****       149.0000 121.7500 140.2500 Du        
   2730 ****       149.0000 121.7500 140.5000 Du        
   2731 ****       149.0000 121.7500 140.7500 Du        
   2732 ****       149.0000 121.7500 141.0000 Du        
   2733 ****       149.0000 121.7500 141.2500 Du        
   2734 ****       149.0000 122.0000 139.5000 Du        
   2735 ****       149.0000 122.0000 139.7500 Du        
   2736 ****       149.0000 122.0000 140.0000 Du        
   2737 ****       149.0000 122.0000 140.2500 Du        
   2738 ****       149.0000 122.0000 140.5000 Du        
   2739 ****       149.0000 122.0000 140.7500 Du        
   2740 ****       149.0000 122.0000 141.0000 Du        
   2741 ****       149.0000 122.0000 141.2500 Du        
   2742 ****       149.0000 122.0000 141.5000 Du        
   2743 ****       149.0000 122.2500 139.7500 Du        
   2744 ****       149.0000 122.2500 140.0000 Du        
   2745 ****       149.0000 122.2500 140.2500 Du        
   2746 ****       149.0000 122.2500 140.5000 Du        
   2747 ****       149.0000 122.2500 140.7500 Du        
   2748 ****       149.0000 122.2500 141.0000 Du        
   2749 ****       149.0000 122.2500 141.2500 Du        
   2750 ****       149.0000 122.2500 141.5000 Du        
   2751 ****       149.0000 122.5000 139.7500 Du        
   2752 ****       149.0000 122.5000 140.0000 Du        
   2753 ****       149.0000 122.5000 140.2500 Du        
   2754 ****       149.0000 122.5000 140.5000 Du        
   2755 ****       149.0000 122.5000 140.7500 Du        
   2756 ****       149.0000 122.5000 141.0000 Du        
   2757 ****       149.0000 122.5000 141.2500 Du        
   2758 ****       149.0000 122.5000 141.5000 Du        
   2759 ****       149.0000 122.5000 141.7500 Du        
   2760 ****       149.0000 122.7500 139.7500 Du        
   2761 ****       149.0000 122.7500 140.0000 Du        
   2762 ****       149.0000 122.7500 140.2500 Du        
   2763 ****       149.0000 122.7500 140.5000 Du        
   2764 ****       149.0000 122.7500 140.7500 Du        
   2765 ****       149.0000 122.7500 141.0000 Du        
   2766 ****       149.0000 122.7500 141.2500 Du        
   2767 ****       149.0000 122.7500 141.5000 Du        
   2768 ****       149.0000 122.7500 141.7500 Du        
   2769 ****       149.0000 122.7500 142.0000 Du        
   2770 ****       149.0000 123.0000 139.7500 Du        
   2771 ****       149.0000 123.0000 140.0000 Du        
   2772 ****       149.0000 123.0000 140.2500 Du        
   2773 ****       149.0000 123.0000 140.5000 Du        
   2774 ****       149.0000 123.0000 140.7500 Du        
   2775 ****       149.0000 123.0000 141.0000 Du        
   2776 ****       149.0000 123.0000 141.2500 Du        
   2777 ****       149.0000 123.0000 141.5000 Du        
   2778 ****       149.0000 123.0000 141.7500 Du        
   2779 ****       149.0000 123.0000 142.0000 Du        
   2780 ****       149.0000 123.2500 140.0000 Du        
   2781 ****       149.2500 105.7500 155.5000 Du        
   2782 ****       149.2500 105.7500 155.7500 Du        
   2783 ****       149.2500 105.7500 156.0000 Du        
   2784 ****       149.2500 105.7500 156.2500 Du        
   2785 ****       149.2500 105.7500 156.5000 Du        
   2786 ****       149.2500 106.0000 155.2500 Du        
   2787 ****       149.2500 106.0000 155.5000 Du        
   2788 ****       149.2500 106.0000 155.7500 Du        
   2789 ****       149.2500 106.0000 156.0000 Du        
   2790 ****       149.2500 106.0000 156.2500 Du        
   2791 ****       149.2500 106.2500 155.0000 Du        
   2792 ****       149.2500 106.2500 155.2500 Du        
   2793 ****       149.2500 106.2500 155.5000 Du        
   2794 ****       149.2500 106.2500 155.7500 Du        
   2795 ****       149.2500 106.2500 156.0000 Du        
   2796 ****       149.2500 106.5000 155.0000 Du        
   2797 ****       149.2500 106.5000 155.2500 Du        
   2798 ****       149.2500 106.5000 155.5000 Du        
   2799 ****       149.2500 106.5000 155.7500 Du        
   2800 ****       149.2500 106.5000 156.0000 Du        
   2801 ****       149.2500 106.7500 155.0000 Du        
   2802 ****       149.2500 106.7500 155.2500 Du        
   2803 ****       149.2500 106.7500 155.5000 Du        
   2804 ****       149.2500 106.7500 155.7500 Du        
   2805 ****       149.2500 112.7500 138.7500 Du        
   2806 ****       149.2500 112.7500 139.0000 Du        
   2807 ****       149.2500 112.7500 139.2500 Du        
   2808 ****       149.2500 112.7500 143.7500 Du        
   2809 ****       149.2500 112.7500 144.0000 Du        
   2810 ****       149.2500 113.0000 138.7500 Du        
   2811 ****       149.2500 113.0000 139.0000 Du        
   2812 ****       149.2500 113.0000 139.2500 Du        
   2813 ****       149.2500 113.0000 139.5000 Du        
   2814 ****       149.2500 113.0000 139.7500 Du        
   2815 ****       149.2500 113.0000 143.5000 Du        
   2816 ****       149.2500 113.0000 143.7500 Du        
   2817 ****       149.2500 113.0000 144.0000 Du        
   2818 ****       149.2500 113.2500 138.7500 Du        
   2819 ****       149.2500 113.2500 139.0000 Du        
   2820 ****       149.2500 113.2500 139.2500 Du        
   2821 ****       149.2500 113.2500 139.5000 Du        
   2822 ****       149.2500 113.2500 139.7500 Du        
   2823 ****       149.2500 113.2500 143.0000 Du        
   2824 ****       149.2500 113.2500 143.2500 Du        
   2825 ****       149.2500 113.2500 143.5000 Du        
   2826 ****       149.2500 113.2500 143.7500 Du        
   2827 ****       149.2500 113.2500 144.0000 Du        
   2828 ****       149.2500 113.5000 139.0000 Du        
   2829 ****       149.2500 113.5000 139.2500 Du        
   2830 ****       149.2500 113.5000 143.0000 Du        
   2831 ****       149.2500 113.5000 143.2500 Du        
   2832 ****       149.2500 113.5000 143.5000 Du        
   2833 ****       149.2500 113.5000 143.7500 Du        
   2834 ****       149.2500 113.5000 144.0000 Du        
   2835 ****       149.2500 113.7500 143.0000 Du        
   2836 ****       149.2500 113.7500 143.2500 Du        
   2837 ****       149.2500 113.7500 143.5000 Du        
   2838 ****       149.2500 113.7500 143.7500 Du        
   2839 ****       149.2500 113.7500 144.0000 Du        
   2840 ****       149.2500 114.0000 143.2500 Du        
   2841 ****       149.2500 114.0000 143.5000 Du        
   2842 ****       149.2500 114.0000 143.7500 Du        
   2843 ****       149.2500 114.0000 144.0000 Du        
   2844 ****       149.2500 114.2500 143.5000 Du        
   2845 ****       149.2500 114.2500 143.7500 Du        
   2846 ****       149.2500 114.2500 144.0000 Du        
   2847 ****       149.2500 114.5000 143.7500 Du        
   2848 ****       149.2500 114.5000 144.0000 Du        
   2849 ****       149.2500 114.7500 143.7500 Du        
   2850 ****       149.2500 114.7500 144.0000 Du        
   2851 ****       149.2500 115.0000 143.7500 Du        
   2852 ****       149.2500 115.0000 144.0000 Du        
   2853 ****       149.2500 115.0000 144.2500 Du        
   2854 ****       149.2500 115.2500 143.7500 Du        
   2855 ****       149.2500 115.2500 144.0000 Du        
   2856 ****       149.2500 115.2500 144.2500 Du        
   2857 ****       149.2500 115.2500 144.5000 Du        
   2858 ****       149.2500 115.5000 143.7500 Du        
   2859 ****       149.2500 115.5000 144.0000 Du        
   2860 ****       149.2500 115.5000 144.2500 Du        
   2861 ****       149.2500 115.5000 144.5000 Du        
   2862 ****       149.2500 115.7500 143.7500 Du        
   2863 ****       149.2500 115.7500 144.0000 Du        
   2864 ****       149.2500 115.7500 144.2500 Du        
   2865 ****       149.2500 115.7500 144.5000 Du        
   2866 ****       149.2500 115.7500 144.7500 Du        
   2867 ****       149.2500 115.7500 145.0000 Du        
   2868 ****       149.2500 116.0000 143.7500 Du        
   2869 ****       149.2500 116.0000 144.0000 Du        
   2870 ****       149.2500 116.0000 144.2500 Du        
   2871 ****       149.2500 116.0000 144.5000 Du        
   2872 ****       149.2500 116.0000 144.7500 Du        
   2873 ****       149.2500 116.0000 145.0000 Du        
   2874 ****       149.2500 116.2500 144.0000 Du        
   2875 ****       149.2500 116.2500 144.2500 Du        
   2876 ****       149.2500 116.2500 144.5000 Du        
   2877 ****       149.2500 116.2500 144.7500 Du        
   2878 ****       149.2500 116.2500 145.0000 Du        
   2879 ****       149.2500 116.2500 145.2500 Du        
   2880 ****       149.2500 116.5000 144.0000 Du        
   2881 ****       149.2500 116.5000 144.2500 Du        
   2882 ****       149.2500 116.5000 144.5000 Du        
   2883 ****       149.2500 116.5000 144.7500 Du        
   2884 ****       149.2500 116.5000 145.0000 Du        
   2885 ****       149.2500 116.5000 145.2500 Du        
   2886 ****       149.2500 116.5000 145.5000 Du        
   2887 ****       149.2500 116.7500 145.0000 Du        
   2888 ****       149.2500 116.7500 145.2500 Du        
   2889 ****       149.2500 117.5000 141.2500 Du        
   2890 ****       149.2500 117.7500 141.0000 Du        
   2891 ****       149.2500 117.7500 141.2500 Du        
   2892 ****       149.2500 117.7500 141.5000 Du        
   2893 ****       149.2500 117.7500 141.7500 Du        
   2894 ****       149.2500 118.0000 140.7500 Du        
   2895 ****       149.2500 118.0000 141.0000 Du        
   2896 ****       149.2500 118.0000 141.2500 Du        
   2897 ****       149.2500 118.0000 141.5000 Du        
   2898 ****       149.2500 118.0000 141.7500 Du        
   2899 ****       149.2500 118.2500 140.7500 Du        
   2900 ****       149.2500 118.2500 141.0000 Du        
   2901 ****       149.2500 118.2500 141.2500 Du        
   2902 ****       149.2500 118.2500 141.5000 Du        
   2903 ****       149.2500 118.2500 141.7500 Du        
   2904 ****       149.2500 118.5000 140.7500 Du        
   2905 ****       149.2500 118.5000 141.0000 Du        
   2906 ****       149.2500 118.5000 141.2500 Du        
   2907 ****       149.2500 118.5000 141.5000 Du        
   2908 ****       149.2500 118.5000 141.7500 Du        
   2909 ****       149.2500 118.7500 134.5000 Du        
   2910 ****       149.2500 118.7500 134.7500 Du        
   2911 ****       149.2500 118.7500 135.0000 Du        
   2912 ****       149.2500 118.7500 135.2500 Du        
   2913 ****       149.2500 118.7500 140.2500 Du        
   2914 ****       149.2500 118.7500 140.7500 Du        
   2915 ****       149.2500 118.7500 141.0000 Du        
   2916 ****       149.2500 118.7500 141.2500 Du        
   2917 ****       149.2500 118.7500 141.5000 Du        
   2918 ****       149.2500 119.0000 134.5000 Du        
   2919 ****       149.2500 119.0000 134.7500 Du        
   2920 ****       149.2500 119.0000 135.0000 Du        
   2921 ****       149.2500 119.0000 135.2500 Du        
   2922 ****       149.2500 119.0000 135.5000 Du        
   2923 ****       149.2500 119.0000 135.7500 Du        
   2924 ****       149.2500 119.0000 136.0000 Du        
   2925 ****       149.2500 119.0000 140.7500 Du        
   2926 ****       149.2500 119.0000 141.0000 Du        
   2927 ****       149.2500 119.0000 141.2500 Du        
   2928 ****       149.2500 119.0000 141.5000 Du        
   2929 ****       149.2500 119.2500 134.5000 Du        
   2930 ****       149.2500 119.2500 134.7500 Du        
   2931 ****       149.2500 119.2500 135.0000 Du        
   2932 ****       149.2500 119.2500 135.2500 Du        
   2933 ****       149.2500 119.2500 135.5000 Du        
   2934 ****       149.2500 119.2500 135.7500 Du        
   2935 ****       149.2500 119.2500 136.0000 Du        
   2936 ****       149.2500 119.2500 140.5000 Du        
   2937 ****       149.2500 119.2500 140.7500 Du        
   2938 ****       149.2500 119.2500 141.0000 Du        
   2939 ****       149.2500 119.2500 141.2500 Du        
   2940 ****       149.2500 119.5000 134.5000 Du        
   2941 ****       149.2500 119.5000 134.7500 Du        
   2942 ****       149.2500 119.5000 135.0000 Du        
   2943 ****       149.2500 119.5000 135.2500 Du        
   2944 ****       149.2500 119.5000 135.5000 Du        
   2945 ****       149.2500 119.5000 135.7500 Du        
   2946 ****       149.2500 119.5000 136.0000 Du        
   2947 ****       149.2500 119.5000 136.2500 Du        
   2948 ****       149.2500 119.5000 140.2500 Du        
   2949 ****       149.2500 119.5000 140.5000 Du        
   2950 ****       149.2500 119.5000 140.7500 Du        
   2951 ****       149.2500 119.5000 141.0000 Du        
   2952 ****       149.2500 119.5000 141.2500 Du        
   2953 ****       149.2500 119.7500 134.5000 Du        
   2954 ****       149.2500 119.7500 134.7500 Du        
   2955 ****       149.2500 119.7500 135.0000 Du        
   2956 ****       149.2500 119.7500 135.2500 Du        
   2957 ****       149.2500 119.7500 135.5000 Du        
   2958 ****       149.2500 119.7500 135.7500 Du        
   2959 ****       149.2500 119.7500 136.0000 Du        
   2960 ****       149.2500 119.7500 136.2500 Du        
   2961 ****       149.2500 119.7500 140.2500 Du        
   2962 ****       149.2500 119.7500 140.5000 Du        
   2963 ****       149.2500 119.7500 140.7500 Du        
   2964 ****       149.2500 119.7500 141.0000 Du        
   2965 ****       149.2500 119.7500 141.2500 Du        
   2966 ****       149.2500 120.0000 134.2500 Du        
   2967 ****       149.2500 120.0000 134.5000 Du        
   2968 ****       149.2500 120.0000 134.7500 Du        
   2969 ****       149.2500 120.0000 135.0000 Du        
   2970 ****       149.2500 120.0000 135.2500 Du        
   2971 ****       149.2500 120.0000 135.5000 Du        
   2972 ****       149.2500 120.0000 135.7500 Du        
   2973 ****       149.2500 120.0000 136.0000 Du        
   2974 ****       149.2500 120.0000 136.2500 Du        
   2975 ****       149.2500 120.0000 140.0000 Du        
   2976 ****       149.2500 120.0000 140.2500 Du        
   2977 ****       149.2500 120.0000 140.5000 Du        
   2978 ****       149.2500 120.0000 140.7500 Du        
   2979 ****       149.2500 120.0000 141.0000 Du        
   2980 ****       149.2500 120.2500 134.2500 Du        
   2981 ****       149.2500 120.2500 134.5000 Du        
   2982 ****       149.2500 120.2500 134.7500 Du        
   2983 ****       149.2500 120.2500 135.0000 Du        
   2984 ****       149.2500 120.2500 135.2500 Du        
   2985 ****       149.2500 120.2500 135.5000 Du        
   2986 ****       149.2500 120.2500 135.7500 Du        
   2987 ****       149.2500 120.2500 136.0000 Du        
   2988 ****       149.2500 120.2500 140.0000 Du        
   2989 ****       149.2500 120.2500 140.2500 Du        
   2990 ****       149.2500 120.2500 140.5000 Du        
   2991 ****       149.2500 120.2500 140.7500 Du        
   2992 ****       149.2500 120.2500 141.0000 Du        
   2993 ****       149.2500 120.5000 134.2500 Du        
   2994 ****       149.2500 120.5000 134.5000 Du        
   2995 ****       149.2500 120.5000 134.7500 Du        
   2996 ****       149.2500 120.5000 135.0000 Du        
   2997 ****       149.2500 120.5000 135.2500 Du        
   2998 ****       149.2500 120.5000 135.5000 Du        
   2999 ****       149.2500 120.5000 135.7500 Du        
   3000 ****       149.2500 120.5000 140.2500 Du        
   3001 ****       149.2500 120.5000 140.5000 Du        
   3002 ****       149.2500 120.5000 140.7500 Du        
   3003 ****       149.2500 120.5000 141.0000 Du        
   3004 ****       149.2500 120.7500 134.2500 Du        
   3005 ****       149.2500 120.7500 134.5000 Du        
   3006 ****       149.2500 120.7500 134.7500 Du        
   3007 ****       149.2500 120.7500 135.0000 Du        
   3008 ****       149.2500 120.7500 135.2500 Du        
   3009 ****       149.2500 120.7500 140.5000 Du        
   3010 ****       149.2500 120.7500 140.7500 Du        
   3011 ****       149.2500 120.7500 141.0000 Du        
   3012 ****       149.2500 121.0000 134.0000 Du        
   3013 ****       149.2500 121.0000 134.2500 Du        
   3014 ****       149.2500 121.0000 134.5000 Du        
   3015 ****       149.2500 121.0000 134.7500 Du        
   3016 ****       149.2500 121.0000 135.0000 Du        
   3017 ****       149.2500 121.0000 140.7500 Du        
   3018 ****       149.2500 121.0000 141.0000 Du        
   3019 ****       149.2500 121.2500 134.0000 Du        
   3020 ****       149.2500 121.2500 134.2500 Du        
   3021 ****       149.2500 121.2500 134.5000 Du        
   3022 ****       149.2500 121.2500 134.7500 Du        
   3023 ****       149.2500 121.5000 134.0000 Du        
   3024 ****       149.2500 121.5000 134.2500 Du        
   3025 ****       149.2500 121.5000 134.5000 Du        
   3026 ****       149.2500 121.7500 134.0000 Du        
   3027 ****       149.2500 121.7500 134.2500 Du        
   3028 ****       149.2500 122.0000 134.2500 Du        
   3029 ****       149.5000 105.7500 155.7500 Du        
   3030 ****       149.5000 105.7500 156.0000 Du        
   3031 ****       149.5000 105.7500 156.2500 Du        
   3032 ****       149.5000 105.7500 156.5000 Du        
   3033 ****       149.5000 106.0000 155.5000 Du        
   3034 ****       149.5000 106.0000 155.7500 Du        
   3035 ****       149.5000 106.0000 156.0000 Du        
   3036 ****       149.5000 106.0000 156.2500 Du        
   3037 ****       149.5000 106.2500 155.0000 Du        
   3038 ****       149.5000 106.2500 155.2500 Du        
   3039 ****       149.5000 106.2500 155.5000 Du        
   3040 ****       149.5000 106.2500 155.7500 Du        
   3041 ****       149.5000 106.2500 156.0000 Du        
   3042 ****       149.5000 106.5000 155.0000 Du        
   3043 ****       149.5000 106.5000 155.2500 Du        
   3044 ****       149.5000 106.5000 155.5000 Du        
   3045 ****       149.5000 106.5000 155.7500 Du        
   3046 ****       149.5000 106.7500 155.0000 Du        
   3047 ****       149.5000 106.7500 155.2500 Du        
   3048 ****       149.5000 106.7500 155.5000 Du        
   3049 ****       149.5000 112.7500 138.5000 Du        
   3050 ****       149.5000 112.7500 138.7500 Du        
   3051 ****       149.5000 112.7500 139.0000 Du        
   3052 ****       149.5000 112.7500 139.2500 Du        
   3053 ****       149.5000 112.7500 143.7500 Du        
   3054 ****       149.5000 112.7500 144.0000 Du        
   3055 ****       149.5000 113.0000 138.5000 Du        
   3056 ****       149.5000 113.0000 138.7500 Du        
   3057 ****       149.5000 113.0000 139.0000 Du        
   3058 ****       149.5000 113.0000 139.2500 Du        
   3059 ****       149.5000 113.0000 139.5000 Du        
   3060 ****       149.5000 113.0000 139.7500 Du        
   3061 ****       149.5000 113.0000 143.2500 Du        
   3062 ****       149.5000 113.0000 143.5000 Du        
   3063 ****       149.5000 113.0000 143.7500 Du        
   3064 ****       149.5000 113.0000 144.0000 Du        
   3065 ****       149.5000 113.2500 138.5000 Du        
   3066 ****       149.5000 113.2500 138.7500 Du        
   3067 ****       149.5000 113.2500 139.0000 Du        
   3068 ****       149.5000 113.2500 139.2500 Du        
   3069 ****       149.5000 113.2500 139.5000 Du        
   3070 ****       149.5000 113.2500 139.7500 Du        
   3071 ****       149.5000 113.2500 143.0000 Du        
   3072 ****       149.5000 113.2500 143.2500 Du        
   3073 ****       149.5000 113.2500 143.5000 Du        
   3074 ****       149.5000 113.2500 143.7500 Du        
   3075 ****       149.5000 113.2500 144.0000 Du        
   3076 ****       149.5000 113.5000 139.0000 Du        
   3077 ****       149.5000 113.5000 139.2500 Du        
   3078 ****       149.5000 113.5000 139.5000 Du        
   3079 ****       149.5000 113.5000 143.0000 Du        
   3080 ****       149.5000 113.5000 143.2500 Du        
   3081 ****       149.5000 113.5000 143.5000 Du        
   3082 ****       149.5000 113.5000 143.7500 Du        
   3083 ****       149.5000 113.5000 144.0000 Du        
   3084 ****       149.5000 113.7500 143.0000 Du        
   3085 ****       149.5000 113.7500 143.2500 Du        
   3086 ****       149.5000 113.7500 143.5000 Du        
   3087 ****       149.5000 113.7500 143.7500 Du        
   3088 ****       149.5000 113.7500 144.0000 Du        
   3089 ****       149.5000 114.0000 143.5000 Du        
   3090 ****       149.5000 114.0000 143.7500 Du        
   3091 ****       149.5000 114.0000 144.0000 Du        
   3092 ****       149.5000 114.2500 143.5000 Du        
   3093 ****       149.5000 114.2500 143.7500 Du        
   3094 ****       149.5000 114.2500 144.0000 Du        
   3095 ****       149.5000 115.0000 144.0000 Du        
   3096 ****       149.5000 115.0000 144.2500 Du        
   3097 ****       149.5000 115.2500 144.0000 Du        
   3098 ****       149.5000 115.2500 144.2500 Du        
   3099 ****       149.5000 115.2500 144.5000 Du        
   3100 ****       149.5000 115.7500 144.5000 Du        
   3101 ****       149.5000 115.7500 144.7500 Du        
   3102 ****       149.5000 116.0000 144.7500 Du        
   3103 ****       149.5000 116.0000 145.0000 Du        
   3104 ****       149.5000 116.2500 145.0000 Du        
   3105 ****       149.5000 116.2500 145.2500 Du        
   3106 ****       149.5000 118.5000 141.2500 Du        
   3107 ****       149.5000 118.7500 134.7500 Du        
   3108 ****       149.5000 118.7500 135.0000 Du        
   3109 ****       149.5000 118.7500 135.2500 Du        
   3110 ****       149.5000 118.7500 141.0000 Du        
   3111 ****       149.5000 118.7500 141.2500 Du        
   3112 ****       149.5000 119.0000 134.7500 Du        
   3113 ****       149.5000 119.0000 135.0000 Du        
   3114 ****       149.5000 119.0000 135.2500 Du        
   3115 ****       149.5000 119.0000 135.5000 Du        
   3116 ****       149.5000 119.0000 141.0000 Du        
   3117 ****       149.5000 119.0000 141.2500 Du        
   3118 ****       149.5000 119.2500 134.5000 Du        
   3119 ****       149.5000 119.2500 134.7500 Du        
   3120 ****       149.5000 119.2500 135.0000 Du        
   3121 ****       149.5000 119.2500 135.2500 Du        
   3122 ****       149.5000 119.2500 135.5000 Du        
   3123 ****       149.5000 119.2500 135.7500 Du        
   3124 ****       149.5000 119.2500 140.7500 Du        
   3125 ****       149.5000 119.2500 141.0000 Du        
   3126 ****       149.5000 119.2500 141.2500 Du        
   3127 ****       149.5000 119.5000 134.5000 Du        
   3128 ****       149.5000 119.5000 134.7500 Du        
   3129 ****       149.5000 119.5000 135.0000 Du        
   3130 ****       149.5000 119.5000 135.2500 Du        
   3131 ****       149.5000 119.5000 135.5000 Du        
   3132 ****       149.5000 119.5000 135.7500 Du        
   3133 ****       149.5000 119.5000 136.0000 Du        
   3134 ****       149.5000 119.5000 141.0000 Du        
   3135 ****       149.5000 119.7500 134.5000 Du        
   3136 ****       149.5000 119.7500 134.7500 Du        
   3137 ****       149.5000 119.7500 135.0000 Du        
   3138 ****       149.5000 119.7500 135.2500 Du        
   3139 ****       149.5000 119.7500 135.5000 Du        
   3140 ****       149.5000 119.7500 135.7500 Du        
   3141 ****       149.5000 119.7500 136.0000 Du        
   3142 ****       149.5000 120.0000 134.5000 Du        
   3143 ****       149.5000 120.0000 134.7500 Du        
   3144 ****       149.5000 120.0000 135.0000 Du        
   3145 ****       149.5000 120.0000 135.2500 Du        
   3146 ****       149.5000 120.0000 135.5000 Du        
   3147 ****       149.5000 120.0000 135.7500 Du        
   3148 ****       149.5000 120.0000 136.0000 Du        
   3149 ****       149.5000 120.2500 134.2500 Du        
   3150 ****       149.5000 120.2500 134.5000 Du        
   3151 ****       149.5000 120.2500 134.7500 Du        
   3152 ****       149.5000 120.2500 135.0000 Du        
   3153 ****       149.5000 120.2500 135.2500 Du        
   3154 ****       149.5000 120.2500 135.5000 Du        
   3155 ****       149.5000 120.2500 135.7500 Du        
   3156 ****       149.5000 120.5000 134.2500 Du        
   3157 ****       149.5000 120.5000 134.5000 Du        
   3158 ****       149.5000 120.5000 134.7500 Du        
   3159 ****       149.5000 120.5000 135.0000 Du        
   3160 ****       149.5000 120.5000 135.2500 Du        
   3161 ****       149.5000 120.7500 134.0000 Du        
   3162 ****       149.5000 120.7500 134.2500 Du        
   3163 ****       149.5000 120.7500 134.5000 Du        
   3164 ****       149.5000 120.7500 134.7500 Du        
   3165 ****       149.5000 120.7500 135.0000 Du        
   3166 ****       149.5000 120.7500 135.2500 Du        
   3167 ****       149.5000 121.0000 134.0000 Du        
   3168 ****       149.5000 121.0000 134.2500 Du        
   3169 ****       149.5000 121.0000 134.5000 Du        
   3170 ****       149.5000 121.0000 134.7500 Du        
   3171 ****       149.5000 121.0000 135.0000 Du        
   3172 ****       149.5000 121.0000 135.2500 Du        
   3173 ****       149.5000 121.2500 134.0000 Du        
   3174 ****       149.5000 121.2500 134.2500 Du        
   3175 ****       149.5000 121.2500 134.5000 Du        
   3176 ****       149.5000 121.2500 134.7500 Du        
   3177 ****       149.5000 121.2500 135.0000 Du        
   3178 ****       149.5000 121.5000 134.0000 Du        
   3179 ****       149.5000 121.5000 134.2500 Du        
   3180 ****       149.5000 121.5000 134.5000 Du        
   3181 ****       149.5000 121.5000 134.7500 Du        
   3182 ****       149.5000 121.7500 134.0000 Du        
   3183 ****       149.5000 121.7500 134.2500 Du        
   3184 ****       149.5000 121.7500 134.5000 Du        
   3185 ****       149.5000 122.0000 134.2500 Du        
   3186 ****       149.7500 105.7500 156.0000 Du        
   3187 ****       149.7500 106.0000 155.7500 Du        
   3188 ****       149.7500 106.2500 155.0000 Du        
   3189 ****       149.7500 106.2500 155.2500 Du        
   3190 ****       149.7500 106.2500 155.7500 Du        
   3191 ****       149.7500 106.5000 155.0000 Du        
   3192 ****       149.7500 106.5000 155.2500 Du        
   3193 ****       149.7500 106.5000 155.5000 Du        
   3194 ****       149.7500 106.5000 155.7500 Du        
   3195 ****       149.7500 106.7500 155.0000 Du        
   3196 ****       149.7500 106.7500 155.2500 Du        
   3197 ****       149.7500 108.0000 144.2500 Du        
   3198 ****       149.7500 108.0000 144.5000 Du        
   3199 ****       149.7500 108.0000 144.7500 Du        
   3200 ****       149.7500 108.2500 144.5000 Du        
   3201 ****       149.7500 108.2500 144.7500 Du        
   3202 ****       149.7500 108.2500 145.0000 Du        
   3203 ****       149.7500 112.7500 138.5000 Du        
   3204 ****       149.7500 112.7500 138.7500 Du        
   3205 ****       149.7500 112.7500 139.0000 Du        
   3206 ****       149.7500 112.7500 139.2500 Du        
   3207 ****       149.7500 112.7500 139.5000 Du        
   3208 ****       149.7500 112.7500 139.7500 Du        
   3209 ****       149.7500 112.7500 143.5000 Du        
   3210 ****       149.7500 112.7500 143.7500 Du        
   3211 ****       149.7500 112.7500 144.0000 Du        
   3212 ****       149.7500 112.7500 144.2500 Du        
   3213 ****       149.7500 113.0000 138.2500 Du        
   3214 ****       149.7500 113.0000 138.5000 Du        
   3215 ****       149.7500 113.0000 138.7500 Du        
   3216 ****       149.7500 113.0000 139.0000 Du        
   3217 ****       149.7500 113.0000 139.2500 Du        
   3218 ****       149.7500 113.0000 139.5000 Du        
   3219 ****       149.7500 113.0000 139.7500 Du        
   3220 ****       149.7500 113.0000 140.0000 Du        
   3221 ****       149.7500 113.0000 143.0000 Du        
   3222 ****       149.7500 113.0000 143.2500 Du        
   3223 ****       149.7500 113.0000 143.5000 Du        
   3224 ****       149.7500 113.0000 143.7500 Du        
   3225 ****       149.7500 113.0000 144.0000 Du        
   3226 ****       149.7500 113.0000 144.2500 Du        
   3227 ****       149.7500 113.2500 138.5000 Du        
   3228 ****       149.7500 113.2500 138.7500 Du        
   3229 ****       149.7500 113.2500 139.0000 Du        
   3230 ****       149.7500 113.2500 139.2500 Du        
   3231 ****       149.7500 113.2500 139.5000 Du        
   3232 ****       149.7500 113.2500 139.7500 Du        
   3233 ****       149.7500 113.2500 140.0000 Du        
   3234 ****       149.7500 113.2500 140.2500 Du        
   3235 ****       149.7500 113.2500 142.7500 Du        
   3236 ****       149.7500 113.2500 143.0000 Du        
   3237 ****       149.7500 113.2500 143.2500 Du        
   3238 ****       149.7500 113.2500 143.5000 Du        
   3239 ****       149.7500 113.2500 143.7500 Du        
   3240 ****       149.7500 113.2500 144.0000 Du        
   3241 ****       149.7500 113.5000 138.7500 Du        
   3242 ****       149.7500 113.5000 139.0000 Du        
   3243 ****       149.7500 113.5000 139.2500 Du        
   3244 ****       149.7500 113.5000 139.5000 Du        
   3245 ****       149.7500 113.5000 139.7500 Du        
   3246 ****       149.7500 113.5000 143.0000 Du        
   3247 ****       149.7500 113.5000 143.2500 Du        
   3248 ****       149.7500 113.5000 143.5000 Du        
   3249 ****       149.7500 113.5000 143.7500 Du        
   3250 ****       149.7500 113.5000 144.0000 Du        
   3251 ****       149.7500 113.7500 139.0000 Du        
   3252 ****       149.7500 113.7500 139.2500 Du        
   3253 ****       149.7500 113.7500 139.5000 Du        
   3254 ****       149.7500 113.7500 139.7500 Du        
   3255 ****       149.7500 113.7500 143.0000 Du        
   3256 ****       149.7500 113.7500 143.2500 Du        
   3257 ****       149.7500 113.7500 143.5000 Du        
   3258 ****       149.7500 113.7500 143.7500 Du        
   3259 ****       149.7500 113.7500 144.0000 Du        
   3260 ****       149.7500 114.0000 139.2500 Du        
   3261 ****       149.7500 114.0000 143.2500 Du        
   3262 ****       149.7500 114.0000 143.5000 Du        
   3263 ****       149.7500 114.0000 143.7500 Du        
   3264 ****       149.7500 114.0000 144.0000 Du        
   3265 ****       149.7500 114.2500 143.5000 Du        
   3266 ****       149.7500 114.2500 143.7500 Du        
   3267 ****       149.7500 114.2500 144.0000 Du        
   3268 ****       149.7500 118.2500 141.7500 Du        
   3269 ****       149.7500 118.5000 141.2500 Du        
   3270 ****       149.7500 118.7500 134.7500 Du        
   3271 ****       149.7500 118.7500 135.0000 Du        
   3272 ****       149.7500 118.7500 135.2500 Du        
   3273 ****       149.7500 118.7500 141.0000 Du        
   3274 ****       149.7500 118.7500 141.2500 Du        
   3275 ****       149.7500 119.0000 134.7500 Du        
   3276 ****       149.7500 119.0000 135.0000 Du        
   3277 ****       149.7500 119.0000 135.2500 Du        
   3278 ****       149.7500 119.0000 135.5000 Du        
   3279 ****       149.7500 119.0000 141.0000 Du        
   3280 ****       149.7500 119.0000 141.2500 Du        
   3281 ****       149.7500 119.2500 134.7500 Du        
   3282 ****       149.7500 119.2500 135.0000 Du        
   3283 ****       149.7500 119.2500 135.2500 Du        
   3284 ****       149.7500 119.2500 135.5000 Du        
   3285 ****       149.7500 119.2500 140.7500 Du        
   3286 ****       149.7500 119.2500 141.0000 Du        
   3287 ****       149.7500 119.2500 141.2500 Du        
   3288 ****       149.7500 119.5000 134.7500 Du        
   3289 ****       149.7500 119.5000 135.0000 Du        
   3290 ****       149.7500 119.5000 135.2500 Du        
   3291 ****       149.7500 119.5000 135.5000 Du        
   3292 ****       149.7500 119.5000 135.7500 Du        
   3293 ****       149.7500 119.5000 136.0000 Du        
   3294 ****       149.7500 119.7500 134.5000 Du        
   3295 ****       149.7500 119.7500 134.7500 Du        
   3296 ****       149.7500 119.7500 135.0000 Du        
   3297 ****       149.7500 119.7500 135.2500 Du        
   3298 ****       149.7500 119.7500 135.5000 Du        
   3299 ****       149.7500 119.7500 135.7500 Du        
   3300 ****       149.7500 119.7500 136.0000 Du        
   3301 ****       149.7500 120.0000 134.5000 Du        
   3302 ****       149.7500 120.0000 134.7500 Du        
   3303 ****       149.7500 120.0000 135.0000 Du        
   3304 ****       149.7500 120.0000 135.2500 Du        
   3305 ****       149.7500 120.0000 135.5000 Du        
   3306 ****       149.7500 120.0000 135.7500 Du        
   3307 ****       149.7500 120.0000 136.0000 Du        
   3308 ****       149.7500 120.0000 136.2500 Du        
   3309 ****       149.7500 120.2500 134.5000 Du        
   3310 ****       149.7500 120.2500 134.7500 Du        
   3311 ****       149.7500 120.2500 135.0000 Du        
   3312 ****       149.7500 120.2500 135.2500 Du        
   3313 ****       149.7500 120.2500 135.5000 Du        
   3314 ****       149.7500 120.2500 135.7500 Du        
   3315 ****       149.7500 120.2500 136.0000 Du        
   3316 ****       149.7500 120.5000 134.2500 Du        
   3317 ****       149.7500 120.5000 134.5000 Du        
   3318 ****       149.7500 120.5000 134.7500 Du        
   3319 ****       149.7500 120.5000 135.0000 Du        
   3320 ****       149.7500 120.5000 135.2500 Du        
   3321 ****       149.7500 120.7500 134.0000 Du        
   3322 ****       149.7500 120.7500 134.2500 Du        
   3323 ****       149.7500 120.7500 134.5000 Du        
   3324 ****       149.7500 120.7500 134.7500 Du        
   3325 ****       149.7500 120.7500 135.0000 Du        
   3326 ****       149.7500 120.7500 135.2500 Du        
   3327 ****       149.7500 121.0000 134.0000 Du        
   3328 ****       149.7500 121.0000 134.2500 Du        
   3329 ****       149.7500 121.0000 134.5000 Du        
   3330 ****       149.7500 121.0000 134.7500 Du        
   3331 ****       149.7500 121.0000 135.0000 Du        
   3332 ****       149.7500 121.0000 135.2500 Du        
   3333 ****       149.7500 121.2500 134.0000 Du        
   3334 ****       149.7500 121.2500 134.2500 Du        
   3335 ****       149.7500 121.2500 134.5000 Du        
   3336 ****       149.7500 121.2500 134.7500 Du        
   3337 ****       149.7500 121.2500 135.0000 Du        
   3338 ****       149.7500 121.5000 134.0000 Du        
   3339 ****       149.7500 121.5000 134.2500 Du        
   3340 ****       149.7500 121.5000 134.5000 Du        
   3341 ****       149.7500 121.5000 134.7500 Du        
   3342 ****       149.7500 121.7500 134.0000 Du        
   3343 ****       149.7500 121.7500 134.2500 Du        
   3344 ****       149.7500 121.7500 134.5000 Du        
   3345 ****       149.7500 121.7500 134.7500 Du        
   3346 ****       149.7500 122.0000 134.2500 Du        
   3347 ****       149.7500 122.0000 134.5000 Du        
   3348 ****       149.7500 122.2500 134.2500 Du        
   3349 ****       150.0000 106.5000 155.0000 Du        
   3350 ****       150.0000 106.7500 155.0000 Du        
   3351 ****       150.0000 107.7500 144.2500 Du        
   3352 ****       150.0000 108.0000 144.2500 Du        
   3353 ****       150.0000 108.0000 144.5000 Du        
   3354 ****       150.0000 108.0000 144.7500 Du        
   3355 ****       150.0000 108.2500 144.2500 Du        
   3356 ****       150.0000 108.2500 144.5000 Du        
   3357 ****       150.0000 108.2500 144.7500 Du        
   3358 ****       150.0000 108.2500 145.0000 Du        
   3359 ****       150.0000 108.5000 144.5000 Du        
   3360 ****       150.0000 108.5000 144.7500 Du        
   3361 ****       150.0000 108.5000 145.0000 Du        
   3362 ****       150.0000 108.5000 145.2500 Du        
   3363 ****       150.0000 108.7500 144.7500 Du        
   3364 ****       150.0000 108.7500 145.0000 Du        
   3365 ****       150.0000 108.7500 145.2500 Du        
   3366 ****       150.0000 108.7500 145.5000 Du        
   3367 ****       150.0000 109.0000 145.0000 Du        
   3368 ****       150.0000 109.0000 145.2500 Du        
   3369 ****       150.0000 109.0000 145.5000 Du        
   3370 ****       150.0000 109.0000 145.7500 Du        
   3371 ****       150.0000 109.0000 146.0000 Du        
   3372 ****       150.0000 109.2500 145.2500 Du        
   3373 ****       150.0000 109.2500 145.5000 Du        
   3374 ****       150.0000 109.2500 145.7500 Du        
   3375 ****       150.0000 109.2500 146.0000 Du        
   3376 ****       150.0000 109.2500 146.2500 Du        
   3377 ****       150.0000 109.2500 146.5000 Du        
   3378 ****       150.0000 109.2500 146.7500 Du        
   3379 ****       150.0000 109.5000 145.5000 Du        
   3380 ****       150.0000 109.5000 145.7500 Du        
   3381 ****       150.0000 109.5000 146.0000 Du        
   3382 ****       150.0000 109.5000 146.2500 Du        
   3383 ****       150.0000 109.5000 146.5000 Du        
   3384 ****       150.0000 109.5000 146.7500 Du        
   3385 ****       150.0000 109.7500 145.7500 Du        
   3386 ****       150.0000 109.7500 146.0000 Du        
   3387 ****       150.0000 109.7500 146.2500 Du        
   3388 ****       150.0000 109.7500 146.5000 Du        
   3389 ****       150.0000 110.0000 145.7500 Du        
   3390 ****       150.0000 110.0000 146.0000 Du        
   3391 ****       150.0000 110.0000 146.2500 Du        
   3392 ****       150.0000 110.2500 145.7500 Du        
   3393 ****       150.0000 110.2500 146.0000 Du        
   3394 ****       150.0000 110.5000 145.7500 Du        
   3395 ****       150.0000 110.5000 146.0000 Du        
   3396 ****       150.0000 110.7500 145.7500 Du        
   3397 ****       150.0000 110.7500 146.0000 Du        
   3398 ****       150.0000 111.0000 145.7500 Du        
   3399 ****       150.0000 111.2500 145.5000 Du        
   3400 ****       150.0000 111.2500 145.7500 Du        
   3401 ****       150.0000 111.5000 145.2500 Du        
   3402 ****       150.0000 111.7500 145.0000 Du        
   3403 ****       150.0000 111.7500 145.2500 Du        
   3404 ****       150.0000 112.0000 144.7500 Du        
   3405 ****       150.0000 112.0000 145.0000 Du        
   3406 ****       150.0000 112.2500 144.5000 Du        
   3407 ****       150.0000 112.2500 144.7500 Du        
   3408 ****       150.0000 112.5000 143.7500 Du        
   3409 ****       150.0000 112.5000 144.0000 Du        
   3410 ****       150.0000 112.5000 144.2500 Du        
   3411 ****       150.0000 112.5000 144.5000 Du        
   3412 ****       150.0000 112.7500 138.7500 Du        
   3413 ****       150.0000 112.7500 139.0000 Du        
   3414 ****       150.0000 112.7500 139.2500 Du        
   3415 ****       150.0000 112.7500 139.5000 Du        
   3416 ****       150.0000 112.7500 139.7500 Du        
   3417 ****       150.0000 112.7500 140.0000 Du        
   3418 ****       150.0000 112.7500 143.2500 Du        
   3419 ****       150.0000 112.7500 143.5000 Du        
   3420 ****       150.0000 112.7500 143.7500 Du        
   3421 ****       150.0000 112.7500 144.0000 Du        
   3422 ****       150.0000 112.7500 144.2500 Du        
   3423 ****       150.0000 112.7500 144.5000 Du        
   3424 ****       150.0000 113.0000 138.2500 Du        
   3425 ****       150.0000 113.0000 138.5000 Du        
   3426 ****       150.0000 113.0000 138.7500 Du        
   3427 ****       150.0000 113.0000 139.0000 Du        
   3428 ****       150.0000 113.0000 139.2500 Du        
   3429 ****       150.0000 113.0000 139.5000 Du        
   3430 ****       150.0000 113.0000 139.7500 Du        
   3431 ****       150.0000 113.0000 140.0000 Du        
   3432 ****       150.0000 113.0000 140.2500 Du        
   3433 ****       150.0000 113.0000 143.0000 Du        
   3434 ****       150.0000 113.0000 143.2500 Du        
   3435 ****       150.0000 113.0000 143.5000 Du        
   3436 ****       150.0000 113.0000 143.7500 Du        
   3437 ****       150.0000 113.0000 144.0000 Du        
   3438 ****       150.0000 113.0000 144.2500 Du        
   3439 ****       150.0000 113.2500 138.2500 Du        
   3440 ****       150.0000 113.2500 138.5000 Du        
   3441 ****       150.0000 113.2500 138.7500 Du        
   3442 ****       150.0000 113.2500 139.0000 Du        
   3443 ****       150.0000 113.2500 139.2500 Du        
   3444 ****       150.0000 113.2500 139.5000 Du        
   3445 ****       150.0000 113.2500 139.7500 Du        
   3446 ****       150.0000 113.2500 140.0000 Du        
   3447 ****       150.0000 113.2500 140.2500 Du        
   3448 ****       150.0000 113.2500 142.7500 Du        
   3449 ****       150.0000 113.2500 143.0000 Du        
   3450 ****       150.0000 113.2500 143.2500 Du        
   3451 ****       150.0000 113.2500 143.5000 Du        
   3452 ****       150.0000 113.2500 143.7500 Du        
   3453 ****       150.0000 113.2500 144.0000 Du        
   3454 ****       150.0000 113.2500 144.2500 Du        
   3455 ****       150.0000 113.5000 138.5000 Du        
   3456 ****       150.0000 113.5000 138.7500 Du        
   3457 ****       150.0000 113.5000 139.0000 Du        
   3458 ****       150.0000 113.5000 139.2500 Du        
   3459 ****       150.0000 113.5000 139.5000 Du        
   3460 ****       150.0000 113.5000 139.7500 Du        
   3461 ****       150.0000 113.5000 143.0000 Du        
   3462 ****       150.0000 113.5000 143.2500 Du        
   3463 ****       150.0000 113.5000 143.5000 Du        
   3464 ****       150.0000 113.5000 143.7500 Du        
   3465 ****       150.0000 113.5000 144.0000 Du        
   3466 ****       150.0000 113.5000 144.2500 Du        
   3467 ****       150.0000 113.7500 138.7500 Du        
   3468 ****       150.0000 113.7500 139.0000 Du        
   3469 ****       150.0000 113.7500 139.2500 Du        
   3470 ****       150.0000 113.7500 139.5000 Du        
   3471 ****       150.0000 113.7500 139.7500 Du        
   3472 ****       150.0000 113.7500 143.0000 Du        
   3473 ****       150.0000 113.7500 143.2500 Du        
   3474 ****       150.0000 113.7500 143.5000 Du        
   3475 ****       150.0000 113.7500 143.7500 Du        
   3476 ****       150.0000 113.7500 144.0000 Du        
   3477 ****       150.0000 113.7500 144.2500 Du        
   3478 ****       150.0000 114.0000 138.7500 Du        
   3479 ****       150.0000 114.0000 139.0000 Du        
   3480 ****       150.0000 114.0000 139.2500 Du        
   3481 ****       150.0000 114.0000 139.5000 Du        
   3482 ****       150.0000 114.0000 143.5000 Du        
   3483 ****       150.0000 114.0000 143.7500 Du        
   3484 ****       150.0000 114.0000 144.0000 Du        
   3485 ****       150.0000 114.0000 144.2500 Du        
   3486 ****       150.0000 114.2500 143.7500 Du        
   3487 ****       150.0000 114.2500 144.0000 Du        
   3488 ****       150.0000 118.2500 141.5000 Du        
   3489 ****       150.0000 118.7500 134.7500 Du        
   3490 ****       150.0000 118.7500 135.0000 Du        
   3491 ****       150.0000 118.7500 135.2500 Du        
   3492 ****       150.0000 119.0000 134.7500 Du        
   3493 ****       150.0000 119.0000 135.0000 Du        
   3494 ****       150.0000 119.0000 135.2500 Du        
   3495 ****       150.0000 119.0000 135.5000 Du        
   3496 ****       150.0000 119.0000 141.0000 Du        
   3497 ****       150.0000 119.0000 141.2500 Du        
   3498 ****       150.0000 119.2500 134.7500 Du        
   3499 ****       150.0000 119.2500 135.0000 Du        
   3500 ****       150.0000 119.2500 135.2500 Du        
   3501 ****       150.0000 119.2500 135.5000 Du        
   3502 ****       150.0000 119.2500 141.0000 Du        
   3503 ****       150.0000 119.5000 134.7500 Du        
   3504 ****       150.0000 119.5000 135.0000 Du        
   3505 ****       150.0000 119.5000 135.2500 Du        
   3506 ****       150.0000 119.5000 135.5000 Du        
   3507 ****       150.0000 119.5000 135.7500 Du        
   3508 ****       150.0000 119.7500 134.5000 Du        
   3509 ****       150.0000 119.7500 134.7500 Du        
   3510 ****       150.0000 119.7500 135.0000 Du        
   3511 ****       150.0000 119.7500 135.2500 Du        
   3512 ****       150.0000 119.7500 135.5000 Du        
   3513 ****       150.0000 119.7500 135.7500 Du        
   3514 ****       150.0000 119.7500 136.0000 Du        
   3515 ****       150.0000 120.0000 134.5000 Du        
   3516 ****       150.0000 120.0000 134.7500 Du        
   3517 ****       150.0000 120.0000 135.0000 Du        
   3518 ****       150.0000 120.0000 135.2500 Du        
   3519 ****       150.0000 120.0000 135.5000 Du        
   3520 ****       150.0000 120.0000 135.7500 Du        
   3521 ****       150.0000 120.0000 136.0000 Du        
   3522 ****       150.0000 120.2500 134.5000 Du        
   3523 ****       150.0000 120.2500 134.7500 Du        
   3524 ****       150.0000 120.2500 135.0000 Du        
   3525 ****       150.0000 120.2500 135.2500 Du        
   3526 ****       150.0000 120.2500 135.5000 Du        
   3527 ****       150.0000 120.2500 135.7500 Du        
   3528 ****       150.0000 120.5000 134.2500 Du        
   3529 ****       150.0000 120.5000 134.5000 Du        
   3530 ****       150.0000 120.5000 134.7500 Du        
   3531 ****       150.0000 120.5000 135.0000 Du        
   3532 ****       150.0000 120.5000 135.2500 Du        
   3533 ****       150.0000 120.7500 134.0000 Du        
   3534 ****       150.0000 120.7500 134.2500 Du        
   3535 ****       150.0000 120.7500 134.5000 Du        
   3536 ****       150.0000 120.7500 134.7500 Du        
   3537 ****       150.0000 120.7500 135.0000 Du        
   3538 ****       150.0000 120.7500 135.2500 Du        
   3539 ****       150.0000 120.7500 135.5000 Du        
   3540 ****       150.0000 121.0000 134.0000 Du        
   3541 ****       150.0000 121.0000 134.2500 Du        
   3542 ****       150.0000 121.0000 134.5000 Du        
   3543 ****       150.0000 121.0000 134.7500 Du        
   3544 ****       150.0000 121.0000 135.0000 Du        
   3545 ****       150.0000 121.0000 135.2500 Du        
   3546 ****       150.0000 121.2500 134.0000 Du        
   3547 ****       150.0000 121.2500 134.2500 Du        
   3548 ****       150.0000 121.2500 134.5000 Du        
   3549 ****       150.0000 121.2500 134.7500 Du        
   3550 ****       150.0000 121.2500 135.0000 Du        
   3551 ****       150.0000 121.2500 135.2500 Du        
   3552 ****       150.0000 121.5000 134.0000 Du        
   3553 ****       150.0000 121.5000 134.2500 Du        
   3554 ****       150.0000 121.5000 134.5000 Du        
   3555 ****       150.0000 121.5000 134.7500 Du        
   3556 ****       150.0000 121.5000 135.0000 Du        
   3557 ****       150.0000 121.7500 134.0000 Du        
   3558 ****       150.0000 121.7500 134.2500 Du        
   3559 ****       150.0000 121.7500 134.5000 Du        
   3560 ****       150.0000 121.7500 134.7500 Du        
   3561 ****       150.0000 121.7500 135.0000 Du        
   3562 ****       150.0000 122.0000 134.2500 Du        
   3563 ****       150.0000 122.0000 134.5000 Du        
   3564 ****       150.0000 122.0000 134.7500 Du        
   3565 ****       150.0000 122.2500 134.2500 Du        
   3566 ****       150.0000 122.2500 134.5000 Du        
   3567 ****       150.2500 108.0000 144.2500 Du        
   3568 ****       150.2500 108.0000 144.5000 Du        
   3569 ****       150.2500 108.0000 144.7500 Du        
   3570 ****       150.2500 108.2500 144.2500 Du        
   3571 ****       150.2500 108.2500 144.5000 Du        
   3572 ****       150.2500 108.2500 144.7500 Du        
   3573 ****       150.2500 108.2500 145.0000 Du        
   3574 ****       150.2500 108.5000 144.2500 Du        
   3575 ****       150.2500 108.5000 144.5000 Du        
   3576 ****       150.2500 108.5000 144.7500 Du        
   3577 ****       150.2500 108.5000 145.0000 Du        
   3578 ****       150.2500 108.5000 145.2500 Du        
   3579 ****       150.2500 108.7500 144.2500 Du        
   3580 ****       150.2500 108.7500 144.5000 Du        
   3581 ****       150.2500 108.7500 144.7500 Du        
   3582 ****       150.2500 108.7500 145.0000 Du        
   3583 ****       150.2500 108.7500 145.2500 Du        
   3584 ****       150.2500 108.7500 145.5000 Du        
   3585 ****       150.2500 108.7500 145.7500 Du        
   3586 ****       150.2500 109.0000 144.7500 Du        
   3587 ****       150.2500 109.0000 145.0000 Du        
   3588 ****       150.2500 109.0000 145.2500 Du        
   3589 ****       150.2500 109.0000 145.5000 Du        
   3590 ****       150.2500 109.0000 145.7500 Du        
   3591 ****       150.2500 109.0000 146.0000 Du        
   3592 ****       150.2500 109.0000 146.2500 Du        
   3593 ****       150.2500 109.2500 144.7500 Du        
   3594 ****       150.2500 109.2500 145.0000 Du        
   3595 ****       150.2500 109.2500 145.2500 Du        
   3596 ****       150.2500 109.2500 145.5000 Du        
   3597 ****       150.2500 109.2500 145.7500 Du        
   3598 ****       150.2500 109.2500 146.0000 Du        
   3599 ****       150.2500 109.2500 146.2500 Du        
   3600 ****       150.2500 109.2500 146.5000 Du        
   3601 ****       150.2500 109.2500 146.7500 Du        
   3602 ****       150.2500 109.2500 147.0000 Du        
   3603 ****       150.2500 109.5000 145.0000 Du        
   3604 ****       150.2500 109.5000 145.2500 Du        
   3605 ****       150.2500 109.5000 145.5000 Du        
   3606 ****       150.2500 109.5000 145.7500 Du        
   3607 ****       150.2500 109.5000 146.0000 Du        
   3608 ****       150.2500 109.5000 146.2500 Du        
   3609 ****       150.2500 109.5000 146.5000 Du        
   3610 ****       150.2500 109.5000 146.7500 Du        
   3611 ****       150.2500 109.7500 145.2500 Du        
   3612 ****       150.2500 109.7500 145.5000 Du        
   3613 ****       150.2500 109.7500 145.7500 Du        
   3614 ****       150.2500 109.7500 146.0000 Du        
   3615 ****       150.2500 109.7500 146.2500 Du        
   3616 ****       150.2500 109.7500 146.5000 Du        
   3617 ****       150.2500 109.7500 146.7500 Du        
   3618 ****       150.2500 110.0000 145.2500 Du        
   3619 ****       150.2500 110.0000 145.5000 Du        
   3620 ****       150.2500 110.0000 145.7500 Du        
   3621 ****       150.2500 110.0000 146.0000 Du        
   3622 ****       150.2500 110.0000 146.2500 Du        
   3623 ****       150.2500 110.0000 146.5000 Du        
   3624 ****       150.2500 110.2500 145.2500 Du        
   3625 ****       150.2500 110.2500 145.5000 Du        
   3626 ****       150.2500 110.2500 145.7500 Du        
   3627 ****       150.2500 110.2500 146.0000 Du        
   3628 ****       150.2500 110.2500 146.2500 Du        
   3629 ****       150.2500 110.5000 145.5000 Du        
   3630 ****       150.2500 110.5000 145.7500 Du        
   3631 ****       150.2500 110.5000 146.0000 Du        
   3632 ****       150.2500 110.5000 146.2500 Du        
   3633 ****       150.2500 110.7500 145.5000 Du        
   3634 ****       150.2500 110.7500 145.7500 Du        
   3635 ****       150.2500 110.7500 146.0000 Du        
   3636 ****       150.2500 110.7500 146.2500 Du        
   3637 ****       150.2500 111.0000 145.2500 Du        
   3638 ****       150.2500 111.0000 145.5000 Du        
   3639 ****       150.2500 111.0000 145.7500 Du        
   3640 ****       150.2500 111.0000 146.0000 Du        
   3641 ****       150.2500 111.2500 145.2500 Du        
   3642 ****       150.2500 111.2500 145.5000 Du        
   3643 ****       150.2500 111.2500 145.7500 Du        
   3644 ****       150.2500 111.2500 146.0000 Du        
   3645 ****       150.2500 111.5000 145.0000 Du        
   3646 ****       150.2500 111.5000 145.2500 Du        
   3647 ****       150.2500 111.5000 145.5000 Du        
   3648 ****       150.2500 111.5000 145.7500 Du        
   3649 ****       150.2500 111.7500 144.7500 Du        
   3650 ****       150.2500 111.7500 145.0000 Du        
   3651 ****       150.2500 111.7500 145.2500 Du        
   3652 ****       150.2500 111.7500 145.5000 Du        
   3653 ****       150.2500 111.7500 145.7500 Du        
   3654 ****       150.2500 112.0000 144.5000 Du        
   3655 ****       150.2500 112.0000 144.7500 Du        
   3656 ****       150.2500 112.0000 145.0000 Du        
   3657 ****       150.2500 112.0000 145.2500 Du        
   3658 ****       150.2500 112.0000 145.5000 Du        
   3659 ****       150.2500 112.2500 144.2500 Du        
   3660 ****       150.2500 112.2500 144.5000 Du        
   3661 ****       150.2500 112.2500 144.7500 Du        
   3662 ****       150.2500 112.2500 145.0000 Du        
   3663 ****       150.2500 112.2500 145.2500 Du        
   3664 ****       150.2500 112.5000 143.7500 Du        
   3665 ****       150.2500 112.5000 144.0000 Du        
   3666 ****       150.2500 112.5000 144.2500 Du        
   3667 ****       150.2500 112.5000 144.5000 Du        
   3668 ****       150.2500 112.5000 144.7500 Du        
   3669 ****       150.2500 112.5000 145.0000 Du        
   3670 ****       150.2500 112.7500 138.7500 Du        
   3671 ****       150.2500 112.7500 139.0000 Du        
   3672 ****       150.2500 112.7500 139.2500 Du        
   3673 ****       150.2500 112.7500 139.5000 Du        
   3674 ****       150.2500 112.7500 139.7500 Du        
   3675 ****       150.2500 112.7500 140.0000 Du        
   3676 ****       150.2500 112.7500 140.2500 Du        
   3677 ****       150.2500 112.7500 143.7500 Du        
   3678 ****       150.2500 112.7500 144.0000 Du        
   3679 ****       150.2500 112.7500 144.2500 Du        
   3680 ****       150.2500 112.7500 144.5000 Du        
   3681 ****       150.2500 112.7500 144.7500 Du        
   3682 ****       150.2500 113.0000 138.2500 Du        
   3683 ****       150.2500 113.0000 138.5000 Du        
   3684 ****       150.2500 113.0000 138.7500 Du        
   3685 ****       150.2500 113.0000 139.0000 Du        
   3686 ****       150.2500 113.0000 139.2500 Du        
   3687 ****       150.2500 113.0000 139.5000 Du        
   3688 ****       150.2500 113.0000 139.7500 Du        
   3689 ****       150.2500 113.0000 140.0000 Du        
   3690 ****       150.2500 113.0000 140.2500 Du        
   3691 ****       150.2500 113.0000 143.2500 Du        
   3692 ****       150.2500 113.0000 143.5000 Du        
   3693 ****       150.2500 113.0000 143.7500 Du        
   3694 ****       150.2500 113.0000 144.0000 Du        
   3695 ****       150.2500 113.0000 144.2500 Du        
   3696 ****       150.2500 113.0000 144.5000 Du        
   3697 ****       150.2500 113.2500 138.2500 Du        
   3698 ****       150.2500 113.2500 138.5000 Du        
   3699 ****       150.2500 113.2500 138.7500 Du        
   3700 ****       150.2500 113.2500 139.0000 Du        
   3701 ****       150.2500 113.2500 139.2500 Du        
   3702 ****       150.2500 113.2500 139.5000 Du        
   3703 ****       150.2500 113.2500 139.7500 Du        
   3704 ****       150.2500 113.2500 140.0000 Du        
   3705 ****       150.2500 113.2500 140.2500 Du        
   3706 ****       150.2500 113.2500 143.5000 Du        
   3707 ****       150.2500 113.2500 143.7500 Du        
   3708 ****       150.2500 113.2500 144.0000 Du        
   3709 ****       150.2500 113.2500 144.2500 Du        
   3710 ****       150.2500 113.5000 138.2500 Du        
   3711 ****       150.2500 113.5000 138.5000 Du        
   3712 ****       150.2500 113.5000 138.7500 Du        
   3713 ****       150.2500 113.5000 139.0000 Du        
   3714 ****       150.2500 113.5000 139.2500 Du        
   3715 ****       150.2500 113.5000 139.5000 Du        
   3716 ****       150.2500 113.5000 139.7500 Du        
   3717 ****       150.2500 113.5000 143.5000 Du        
   3718 ****       150.2500 113.5000 143.7500 Du        
   3719 ****       150.2500 113.5000 144.0000 Du        
   3720 ****       150.2500 113.5000 144.2500 Du        
   3721 ****       150.2500 113.7500 138.5000 Du        
   3722 ****       150.2500 113.7500 138.7500 Du        
   3723 ****       150.2500 113.7500 139.0000 Du        
   3724 ****       150.2500 113.7500 139.2500 Du        
   3725 ****       150.2500 113.7500 139.5000 Du        
   3726 ****       150.2500 113.7500 139.7500 Du        
   3727 ****       150.2500 113.7500 143.7500 Du        
   3728 ****       150.2500 113.7500 144.0000 Du        
   3729 ****       150.2500 113.7500 144.2500 Du        
   3730 ****       150.2500 114.0000 138.7500 Du        
   3731 ****       150.2500 114.0000 139.0000 Du        
   3732 ****       150.2500 114.0000 139.2500 Du        
   3733 ****       150.2500 114.0000 139.5000 Du        
   3734 ****       150.2500 114.0000 144.0000 Du        
   3735 ****       150.2500 114.0000 144.2500 Du        
   3736 ****       150.2500 114.2500 139.0000 Du        
   3737 ****       150.2500 114.2500 139.2500 Du        
   3738 ****       150.2500 118.5000 135.0000 Du        
   3739 ****       150.2500 118.7500 134.7500 Du        
   3740 ****       150.2500 118.7500 135.0000 Du        
   3741 ****       150.2500 118.7500 135.2500 Du        
   3742 ****       150.2500 119.0000 134.7500 Du        
   3743 ****       150.2500 119.0000 135.0000 Du        
   3744 ****       150.2500 119.0000 135.2500 Du        
   3745 ****       150.2500 119.2500 134.7500 Du        
   3746 ****       150.2500 119.2500 135.0000 Du        
   3747 ****       150.2500 119.2500 135.2500 Du        
   3748 ****       150.2500 119.5000 134.7500 Du        
   3749 ****       150.2500 119.5000 135.0000 Du        
   3750 ****       150.2500 119.5000 135.2500 Du        
   3751 ****       150.2500 119.7500 134.7500 Du        
   3752 ****       150.2500 119.7500 135.0000 Du        
   3753 ****       150.2500 119.7500 135.2500 Du        
   3754 ****       150.2500 119.7500 135.5000 Du        
   3755 ****       150.2500 119.7500 135.7500 Du        
   3756 ****       150.2500 120.0000 134.5000 Du        
   3757 ****       150.2500 120.0000 134.7500 Du        
   3758 ****       150.2500 120.0000 135.0000 Du        
   3759 ****       150.2500 120.0000 135.2500 Du        
   3760 ****       150.2500 120.0000 135.5000 Du        
   3761 ****       150.2500 120.0000 135.7500 Du        
   3762 ****       150.2500 120.0000 136.0000 Du        
   3763 ****       150.2500 120.2500 134.5000 Du        
   3764 ****       150.2500 120.2500 134.7500 Du        
   3765 ****       150.2500 120.2500 135.0000 Du        
   3766 ****       150.2500 120.2500 135.2500 Du        
   3767 ****       150.2500 120.2500 135.5000 Du        
   3768 ****       150.2500 120.2500 135.7500 Du        
   3769 ****       150.2500 120.5000 134.2500 Du        
   3770 ****       150.2500 120.5000 134.5000 Du        
   3771 ****       150.2500 120.5000 134.7500 Du        
   3772 ****       150.2500 120.5000 135.0000 Du        
   3773 ****       150.2500 120.5000 135.2500 Du        
   3774 ****       150.2500 120.7500 134.0000 Du        
   3775 ****       150.2500 120.7500 134.2500 Du        
   3776 ****       150.2500 120.7500 134.5000 Du        
   3777 ****       150.2500 120.7500 134.7500 Du        
   3778 ****       150.2500 120.7500 135.0000 Du        
   3779 ****       150.2500 120.7500 135.2500 Du        
   3780 ****       150.2500 120.7500 135.5000 Du        
   3781 ****       150.2500 121.0000 134.0000 Du        
   3782 ****       150.2500 121.0000 134.2500 Du        
   3783 ****       150.2500 121.0000 134.5000 Du        
   3784 ****       150.2500 121.0000 134.7500 Du        
   3785 ****       150.2500 121.0000 135.0000 Du        
   3786 ****       150.2500 121.0000 135.2500 Du        
   3787 ****       150.2500 121.2500 134.0000 Du        
   3788 ****       150.2500 121.2500 134.2500 Du        
   3789 ****       150.2500 121.2500 134.5000 Du        
   3790 ****       150.2500 121.2500 134.7500 Du        
   3791 ****       150.2500 121.2500 135.0000 Du        
   3792 ****       150.2500 121.2500 135.2500 Du        
   3793 ****       150.2500 121.5000 134.0000 Du        
   3794 ****       150.2500 121.5000 134.2500 Du        
   3795 ****       150.2500 121.5000 134.5000 Du        
   3796 ****       150.2500 121.5000 134.7500 Du        
   3797 ****       150.2500 121.5000 135.0000 Du        
   3798 ****       150.2500 121.5000 135.2500 Du        
   3799 ****       150.2500 121.7500 134.0000 Du        
   3800 ****       150.2500 121.7500 134.2500 Du        
   3801 ****       150.2500 121.7500 134.5000 Du        
   3802 ****       150.2500 121.7500 134.7500 Du        
   3803 ****       150.2500 121.7500 135.0000 Du        
   3804 ****       150.2500 122.0000 134.2500 Du        
   3805 ****       150.2500 122.0000 134.5000 Du        
   3806 ****       150.2500 122.0000 134.7500 Du        
   3807 ****       150.2500 122.2500 134.2500 Du        
   3808 ****       150.2500 122.2500 134.5000 Du        
   3809 ****       150.5000 108.0000 144.5000 Du        
   3810 ****       150.5000 108.0000 144.7500 Du        
   3811 ****       150.5000 108.2500 144.2500 Du        
   3812 ****       150.5000 108.2500 144.5000 Du        
   3813 ****       150.5000 108.2500 144.7500 Du        
   3814 ****       150.5000 108.2500 145.0000 Du        
   3815 ****       150.5000 108.2500 145.2500 Du        
   3816 ****       150.5000 108.5000 144.2500 Du        
   3817 ****       150.5000 108.5000 144.5000 Du        
   3818 ****       150.5000 108.5000 144.7500 Du        
   3819 ****       150.5000 108.5000 145.0000 Du        
   3820 ****       150.5000 108.5000 145.2500 Du        
   3821 ****       150.5000 108.5000 145.5000 Du        
   3822 ****       150.5000 108.7500 144.2500 Du        
   3823 ****       150.5000 108.7500 144.5000 Du        
   3824 ****       150.5000 108.7500 144.7500 Du        
   3825 ****       150.5000 108.7500 145.0000 Du        
   3826 ****       150.5000 108.7500 145.2500 Du        
   3827 ****       150.5000 108.7500 145.5000 Du        
   3828 ****       150.5000 108.7500 145.7500 Du        
   3829 ****       150.5000 108.7500 146.0000 Du        
   3830 ****       150.5000 109.0000 144.2500 Du        
   3831 ****       150.5000 109.0000 144.5000 Du        
   3832 ****       150.5000 109.0000 144.7500 Du        
   3833 ****       150.5000 109.0000 145.0000 Du        
   3834 ****       150.5000 109.0000 145.2500 Du        
   3835 ****       150.5000 109.0000 145.5000 Du        
   3836 ****       150.5000 109.0000 145.7500 Du        
   3837 ****       150.5000 109.0000 146.0000 Du        
   3838 ****       150.5000 109.0000 146.2500 Du        
   3839 ****       150.5000 109.0000 146.5000 Du        
   3840 ****       150.5000 109.2500 144.5000 Du        
   3841 ****       150.5000 109.2500 144.7500 Du        
   3842 ****       150.5000 109.2500 145.0000 Du        
   3843 ****       150.5000 109.2500 145.2500 Du        
   3844 ****       150.5000 109.2500 145.5000 Du        
   3845 ****       150.5000 109.2500 145.7500 Du        
   3846 ****       150.5000 109.2500 146.0000 Du        
   3847 ****       150.5000 109.2500 146.2500 Du        
   3848 ****       150.5000 109.2500 146.5000 Du        
   3849 ****       150.5000 109.2500 146.7500 Du        
   3850 ****       150.5000 109.5000 144.7500 Du        
   3851 ****       150.5000 109.5000 145.0000 Du        
   3852 ****       150.5000 109.5000 145.2500 Du        
   3853 ****       150.5000 109.5000 145.5000 Du        
   3854 ****       150.5000 109.5000 145.7500 Du        
   3855 ****       150.5000 109.5000 146.0000 Du        
   3856 ****       150.5000 109.5000 146.2500 Du        
   3857 ****       150.5000 109.5000 146.5000 Du        
   3858 ****       150.5000 109.5000 146.7500 Du        
   3859 ****       150.5000 109.7500 144.7500 Du        
   3860 ****       150.5000 109.7500 145.0000 Du        
   3861 ****       150.5000 109.7500 145.2500 Du        
   3862 ****       150.5000 109.7500 145.5000 Du        
   3863 ****       150.5000 109.7500 145.7500 Du        
   3864 ****       150.5000 109.7500 146.0000 Du        
   3865 ****       150.5000 109.7500 146.2500 Du        
   3866 ****       150.5000 109.7500 146.5000 Du        
   3867 ****       150.5000 110.0000 145.0000 Du        
   3868 ****       150.5000 110.0000 145.2500 Du        
   3869 ****       150.5000 110.0000 145.5000 Du        
   3870 ****       150.5000 110.0000 145.7500 Du        
   3871 ****       150.5000 110.0000 146.0000 Du        
   3872 ****       150.5000 110.0000 146.2500 Du        
   3873 ****       150.5000 110.2500 145.0000 Du        
   3874 ****       150.5000 110.2500 145.2500 Du        
   3875 ****       150.5000 110.2500 145.5000 Du        
   3876 ****       150.5000 110.2500 145.7500 Du        
   3877 ****       150.5000 110.2500 146.0000 Du        
   3878 ****       150.5000 110.2500 146.2500 Du        
   3879 ****       150.5000 110.5000 145.2500 Du        
   3880 ****       150.5000 110.5000 145.5000 Du        
   3881 ****       150.5000 110.5000 145.7500 Du        
   3882 ****       150.5000 110.5000 146.0000 Du        
   3883 ****       150.5000 110.7500 145.2500 Du        
   3884 ****       150.5000 110.7500 145.5000 Du        
   3885 ****       150.5000 110.7500 145.7500 Du        
   3886 ****       150.5000 110.7500 146.0000 Du        
   3887 ****       150.5000 111.0000 145.2500 Du        
   3888 ****       150.5000 111.0000 145.5000 Du        
   3889 ****       150.5000 111.0000 145.7500 Du        
   3890 ****       150.5000 111.0000 146.0000 Du        
   3891 ****       150.5000 111.2500 145.0000 Du        
   3892 ****       150.5000 111.2500 145.2500 Du        
   3893 ****       150.5000 111.2500 145.5000 Du        
   3894 ****       150.5000 111.2500 145.7500 Du        
   3895 ****       150.5000 111.2500 146.0000 Du        
   3896 ****       150.5000 111.5000 145.0000 Du        
   3897 ****       150.5000 111.5000 145.2500 Du        
   3898 ****       150.5000 111.5000 145.5000 Du        
   3899 ****       150.5000 111.5000 145.7500 Du        
   3900 ****       150.5000 111.7500 144.7500 Du        
   3901 ****       150.5000 111.7500 145.0000 Du        
   3902 ****       150.5000 111.7500 145.2500 Du        
   3903 ****       150.5000 111.7500 145.5000 Du        
   3904 ****       150.5000 111.7500 145.7500 Du        
   3905 ****       150.5000 112.0000 144.7500 Du        
   3906 ****       150.5000 112.0000 145.0000 Du        
   3907 ****       150.5000 112.0000 145.2500 Du        
   3908 ****       150.5000 112.0000 145.5000 Du        
   3909 ****       150.5000 112.0000 145.7500 Du        
   3910 ****       150.5000 112.2500 144.5000 Du        
   3911 ****       150.5000 112.2500 144.7500 Du        
   3912 ****       150.5000 112.2500 145.0000 Du        
   3913 ****       150.5000 112.2500 145.2500 Du        
   3914 ****       150.5000 112.2500 145.5000 Du        
   3915 ****       150.5000 112.5000 144.7500 Du        
   3916 ****       150.5000 112.7500 139.2500 Du        
   3917 ****       150.5000 112.7500 139.5000 Du        
   3918 ****       150.5000 112.7500 139.7500 Du        
   3919 ****       150.5000 112.7500 140.0000 Du        
   3920 ****       150.5000 112.7500 144.0000 Du        
   3921 ****       150.5000 112.7500 144.2500 Du        
   3922 ****       150.5000 112.7500 144.5000 Du        
   3923 ****       150.5000 113.0000 138.7500 Du        
   3924 ****       150.5000 113.0000 139.0000 Du        
   3925 ****       150.5000 113.0000 139.2500 Du        
   3926 ****       150.5000 113.0000 139.5000 Du        
   3927 ****       150.5000 113.0000 139.7500 Du        
   3928 ****       150.5000 113.0000 140.0000 Du        
   3929 ****       150.5000 113.0000 144.2500 Du        
   3930 ****       150.5000 113.2500 138.5000 Du        
   3931 ****       150.5000 113.2500 138.7500 Du        
   3932 ****       150.5000 113.2500 139.0000 Du        
   3933 ****       150.5000 113.2500 139.2500 Du        
   3934 ****       150.5000 113.2500 139.5000 Du        
   3935 ****       150.5000 113.2500 139.7500 Du        
   3936 ****       150.5000 113.2500 140.0000 Du        
   3937 ****       150.5000 113.5000 138.5000 Du        
   3938 ****       150.5000 113.5000 138.7500 Du        
   3939 ****       150.5000 113.5000 139.0000 Du        
   3940 ****       150.5000 113.5000 139.2500 Du        
   3941 ****       150.5000 113.7500 138.5000 Du        
   3942 ****       150.5000 113.7500 138.7500 Du        
   3943 ****       150.5000 113.7500 139.0000 Du        
   3944 ****       150.5000 113.7500 139.2500 Du        
   3945 ****       150.5000 114.0000 138.7500 Du        
   3946 ****       150.5000 114.0000 139.0000 Du        
   3947 ****       150.5000 114.0000 139.2500 Du        
   3948 ****       150.5000 118.7500 135.0000 Du        
   3949 ****       150.5000 119.0000 135.0000 Du        
   3950 ****       150.5000 119.2500 135.0000 Du        
   3951 ****       150.5000 120.2500 134.5000 Du        
   3952 ****       150.5000 120.2500 134.7500 Du        
   3953 ****       150.5000 120.2500 135.0000 Du        
   3954 ****       150.5000 120.5000 134.2500 Du        
   3955 ****       150.5000 120.5000 134.5000 Du        
   3956 ****       150.5000 120.5000 134.7500 Du        
   3957 ****       150.5000 120.5000 135.0000 Du        
   3958 ****       150.5000 120.5000 135.2500 Du        
   3959 ****       150.5000 120.7500 134.2500 Du        
   3960 ****       150.5000 120.7500 134.5000 Du        
   3961 ****       150.5000 120.7500 134.7500 Du        
   3962 ****       150.5000 120.7500 135.0000 Du        
   3963 ****       150.5000 120.7500 135.2500 Du        
   3964 ****       150.5000 121.0000 134.0000 Du        
   3965 ****       150.5000 121.0000 134.2500 Du        
   3966 ****       150.5000 121.0000 134.5000 Du        
   3967 ****       150.5000 121.0000 134.7500 Du        
   3968 ****       150.5000 121.0000 135.0000 Du        
   3969 ****       150.5000 121.0000 135.2500 Du        
   3970 ****       150.5000 121.2500 134.0000 Du        
   3971 ****       150.5000 121.2500 134.2500 Du        
   3972 ****       150.5000 121.2500 134.5000 Du        
   3973 ****       150.5000 121.2500 134.7500 Du        
   3974 ****       150.5000 121.2500 135.0000 Du        
   3975 ****       150.5000 121.2500 135.2500 Du        
   3976 ****       150.5000 121.5000 134.0000 Du        
   3977 ****       150.5000 121.5000 134.2500 Du        
   3978 ****       150.5000 121.5000 134.5000 Du        
   3979 ****       150.5000 121.5000 134.7500 Du        
   3980 ****       150.5000 121.5000 135.0000 Du        
   3981 ****       150.5000 121.5000 135.2500 Du        
   3982 ****       150.5000 121.7500 134.0000 Du        
   3983 ****       150.5000 121.7500 134.2500 Du        
   3984 ****       150.5000 121.7500 134.5000 Du        
   3985 ****       150.5000 121.7500 134.7500 Du        
   3986 ****       150.5000 121.7500 135.0000 Du        
   3987 ****       150.5000 122.0000 134.2500 Du        
   3988 ****       150.5000 122.0000 134.5000 Du        
   3989 ****       150.5000 122.0000 134.7500 Du        
   3990 ****       150.5000 122.2500 134.2500 Du        
   3991 ****       150.5000 122.2500 134.5000 Du        
   3992 ****       150.5000 122.5000 134.2500 Du        
   3993 ****       150.7500 108.0000 144.7500 Du        
   3994 ****       150.7500 108.2500 144.5000 Du        
   3995 ****       150.7500 108.2500 144.7500 Du        
   3996 ****       150.7500 108.2500 145.0000 Du        
   3997 ****       150.7500 108.5000 144.5000 Du        
   3998 ****       150.7500 108.5000 144.7500 Du        
   3999 ****       150.7500 108.5000 145.0000 Du        
   4000 ****       150.7500 108.5000 145.2500 Du        
   4001 ****       150.7500 108.5000 145.5000 Du        
   4002 ****       150.7500 108.7500 144.2500 Du        
   4003 ****       150.7500 108.7500 144.5000 Du        
   4004 ****       150.7500 108.7500 144.7500 Du        
   4005 ****       150.7500 108.7500 145.0000 Du        
   4006 ****       150.7500 108.7500 145.2500 Du        
   4007 ****       150.7500 108.7500 145.5000 Du        
   4008 ****       150.7500 108.7500 145.7500 Du        
   4009 ****       150.7500 108.7500 146.0000 Du        
   4010 ****       150.7500 109.0000 144.2500 Du        
   4011 ****       150.7500 109.0000 144.5000 Du        
   4012 ****       150.7500 109.0000 144.7500 Du        
   4013 ****       150.7500 109.0000 145.0000 Du        
   4014 ****       150.7500 109.0000 145.2500 Du        
   4015 ****       150.7500 109.0000 145.5000 Du        
   4016 ****       150.7500 109.0000 145.7500 Du        
   4017 ****       150.7500 109.0000 146.0000 Du        
   4018 ****       150.7500 109.0000 146.2500 Du        
   4019 ****       150.7500 109.0000 146.5000 Du        
   4020 ****       150.7500 109.2500 144.2500 Du        
   4021 ****       150.7500 109.2500 144.5000 Du        
   4022 ****       150.7500 109.2500 144.7500 Du        
   4023 ****       150.7500 109.2500 145.0000 Du        
   4024 ****       150.7500 109.2500 145.2500 Du        
   4025 ****       150.7500 109.2500 145.5000 Du        
   4026 ****       150.7500 109.2500 145.7500 Du        
   4027 ****       150.7500 109.2500 146.0000 Du        
   4028 ****       150.7500 109.2500 146.2500 Du        
   4029 ****       150.7500 109.2500 146.5000 Du        
   4030 ****       150.7500 109.2500 146.7500 Du        
   4031 ****       150.7500 109.5000 144.5000 Du        
   4032 ****       150.7500 109.5000 144.7500 Du        
   4033 ****       150.7500 109.5000 145.0000 Du        
   4034 ****       150.7500 109.5000 145.2500 Du        
   4035 ****       150.7500 109.5000 145.5000 Du        
   4036 ****       150.7500 109.5000 145.7500 Du        
   4037 ****       150.7500 109.5000 146.0000 Du        
   4038 ****       150.7500 109.5000 146.2500 Du        
   4039 ****       150.7500 109.5000 146.5000 Du        
   4040 ****       150.7500 109.7500 144.5000 Du        
   4041 ****       150.7500 109.7500 144.7500 Du        
   4042 ****       150.7500 109.7500 145.0000 Du        
   4043 ****       150.7500 109.7500 145.2500 Du        
   4044 ****       150.7500 109.7500 145.5000 Du        
   4045 ****       150.7500 109.7500 145.7500 Du        
   4046 ****       150.7500 109.7500 146.0000 Du        
   4047 ****       150.7500 109.7500 146.2500 Du        
   4048 ****       150.7500 109.7500 146.5000 Du        
   4049 ****       150.7500 110.0000 144.5000 Du        
   4050 ****       150.7500 110.0000 144.7500 Du        
   4051 ****       150.7500 110.0000 145.0000 Du        
   4052 ****       150.7500 110.0000 145.2500 Du        
   4053 ****       150.7500 110.0000 145.5000 Du        
   4054 ****       150.7500 110.0000 145.7500 Du        
   4055 ****       150.7500 110.0000 146.0000 Du        
   4056 ****       150.7500 110.0000 146.2500 Du        
   4057 ****       150.7500 110.2500 144.7500 Du        
   4058 ****       150.7500 110.2500 145.0000 Du        
   4059 ****       150.7500 110.2500 145.2500 Du        
   4060 ****       150.7500 110.2500 145.5000 Du        
   4061 ****       150.7500 110.2500 145.7500 Du        
   4062 ****       150.7500 110.2500 146.0000 Du        
   4063 ****       150.7500 110.2500 146.2500 Du        
   4064 ****       150.7500 110.5000 145.0000 Du        
   4065 ****       150.7500 110.5000 145.2500 Du        
   4066 ****       150.7500 110.5000 145.5000 Du        
   4067 ****       150.7500 110.5000 145.7500 Du        
   4068 ****       150.7500 110.5000 146.0000 Du        
   4069 ****       150.7500 110.7500 145.0000 Du        
   4070 ****       150.7500 110.7500 145.2500 Du        
   4071 ****       150.7500 110.7500 145.5000 Du        
   4072 ****       150.7500 110.7500 145.7500 Du        
   4073 ****       150.7500 110.7500 146.0000 Du        
   4074 ****       150.7500 111.0000 145.0000 Du        
   4075 ****       150.7500 111.0000 145.2500 Du        
   4076 ****       150.7500 111.0000 145.5000 Du        
   4077 ****       150.7500 111.0000 145.7500 Du        
   4078 ****       150.7500 111.0000 146.0000 Du        
   4079 ****       150.7500 111.2500 145.0000 Du        
   4080 ****       150.7500 111.2500 145.2500 Du        
   4081 ****       150.7500 111.2500 145.5000 Du        
   4082 ****       150.7500 111.2500 145.7500 Du        
   4083 ****       150.7500 111.5000 145.0000 Du        
   4084 ****       150.7500 111.5000 145.2500 Du        
   4085 ****       150.7500 111.5000 145.5000 Du        
   4086 ****       150.7500 111.5000 145.7500 Du        
   4087 ****       150.7500 111.7500 144.7500 Du        
   4088 ****       150.7500 111.7500 145.0000 Du        
   4089 ****       150.7500 111.7500 145.2500 Du        
   4090 ****       150.7500 111.7500 145.5000 Du        
   4091 ****       150.7500 111.7500 145.7500 Du        
   4092 ****       150.7500 112.0000 144.7500 Du        
   4093 ****       150.7500 112.0000 145.0000 Du        
   4094 ****       150.7500 112.0000 145.2500 Du        
   4095 ****       150.7500 112.0000 145.5000 Du        
   4096 ****       150.7500 112.0000 145.7500 Du        
   4097 ****       150.7500 112.2500 144.7500 Du        
   4098 ****       150.7500 112.2500 145.0000 Du        
   4099 ****       150.7500 112.2500 145.2500 Du        
   4100 ****       150.7500 112.2500 145.5000 Du        
   4101 ****       150.7500 112.2500 145.7500 Du        
   4102 ****       150.7500 112.5000 144.7500 Du        
   4103 ****       150.7500 112.5000 145.0000 Du        
   4104 ****       150.7500 112.7500 139.7500 Du        
   4105 ****       150.7500 112.7500 140.0000 Du        
   4106 ****       150.7500 112.7500 140.2500 Du        
   4107 ****       150.7500 112.7500 144.7500 Du        
   4108 ****       150.7500 112.7500 145.0000 Du        
   4109 ****       150.7500 113.0000 139.0000 Du        
   4110 ****       150.7500 113.0000 139.2500 Du        
   4111 ****       150.7500 113.0000 139.5000 Du        
   4112 ****       150.7500 113.0000 139.7500 Du        
   4113 ****       150.7500 113.0000 140.0000 Du        
   4114 ****       150.7500 113.0000 145.0000 Du        
   4115 ****       150.7500 113.2500 139.0000 Du        
   4116 ****       150.7500 113.2500 139.2500 Du        
   4117 ****       150.7500 113.2500 139.5000 Du        
   4118 ****       150.7500 113.2500 139.7500 Du        
   4119 ****       150.7500 113.5000 139.2500 Du        
   4120 ****       150.7500 113.7500 138.7500 Du        
   4121 ****       150.7500 113.7500 139.0000 Du        
   4122 ****       150.7500 113.7500 139.2500 Du        
   4123 ****       150.7500 114.0000 139.0000 Du        
   4124 ****       150.7500 114.0000 139.2500 Du        
   4125 ****       150.7500 118.7500 134.7500 Du        
   4126 ****       150.7500 118.7500 135.0000 Du        
   4127 ****       150.7500 119.0000 134.7500 Du        
   4128 ****       150.7500 119.0000 135.0000 Du        
   4129 ****       150.7500 119.2500 134.7500 Du        
   4130 ****       150.7500 119.2500 135.0000 Du        
   4131 ****       150.7500 119.7500 134.7500 Du        
   4132 ****       150.7500 120.0000 134.5000 Du        
   4133 ****       150.7500 120.0000 134.7500 Du        
   4134 ****       150.7500 120.2500 134.5000 Du        
   4135 ****       150.7500 120.2500 134.7500 Du        
   4136 ****       150.7500 120.2500 135.0000 Du        
   4137 ****       150.7500 120.5000 134.2500 Du        
   4138 ****       150.7500 120.5000 134.5000 Du        
   4139 ****       150.7500 120.5000 134.7500 Du        
   4140 ****       150.7500 120.5000 135.0000 Du        
   4141 ****       150.7500 120.5000 135.2500 Du        
   4142 ****       150.7500 120.7500 134.0000 Du        
   4143 ****       150.7500 120.7500 134.2500 Du        
   4144 ****       150.7500 120.7500 134.5000 Du        
   4145 ****       150.7500 120.7500 134.7500 Du        
   4146 ****       150.7500 120.7500 135.0000 Du        
   4147 ****       150.7500 120.7500 135.2500 Du        
   4148 ****       150.7500 121.0000 134.0000 Du        
   4149 ****       150.7500 121.0000 134.2500 Du        
   4150 ****       150.7500 121.0000 134.5000 Du        
   4151 ****       150.7500 121.0000 134.7500 Du        
   4152 ****       150.7500 121.0000 135.0000 Du        
   4153 ****       150.7500 121.0000 135.2500 Du        
   4154 ****       150.7500 121.2500 134.0000 Du        
   4155 ****       150.7500 121.2500 134.2500 Du        
   4156 ****       150.7500 121.2500 134.5000 Du        
   4157 ****       150.7500 121.2500 134.7500 Du        
   4158 ****       150.7500 121.2500 135.0000 Du        
   4159 ****       150.7500 121.2500 135.2500 Du        
   4160 ****       150.7500 121.5000 134.0000 Du        
   4161 ****       150.7500 121.5000 134.2500 Du        
   4162 ****       150.7500 121.5000 134.5000 Du        
   4163 ****       150.7500 121.5000 134.7500 Du        
   4164 ****       150.7500 121.5000 135.0000 Du        
   4165 ****       150.7500 121.5000 135.2500 Du        
   4166 ****       150.7500 121.7500 134.0000 Du        
   4167 ****       150.7500 121.7500 134.2500 Du        
   4168 ****       150.7500 121.7500 134.5000 Du        
   4169 ****       150.7500 121.7500 134.7500 Du        
   4170 ****       150.7500 121.7500 135.0000 Du        
   4171 ****       150.7500 121.7500 135.2500 Du        
   4172 ****       150.7500 122.0000 134.0000 Du        
   4173 ****       150.7500 122.0000 134.2500 Du        
   4174 ****       150.7500 122.0000 134.5000 Du        
   4175 ****       150.7500 122.0000 134.7500 Du        
   4176 ****       150.7500 122.0000 135.0000 Du        
   4177 ****       150.7500 122.2500 134.0000 Du        
   4178 ****       150.7500 122.2500 134.2500 Du        
   4179 ****       150.7500 122.2500 134.5000 Du        
   4180 ****       150.7500 122.2500 134.7500 Du        
   4181 ****       150.7500 122.5000 134.2500 Du        
   4182 ****       150.7500 122.5000 134.5000 Du        
   4183 ****       150.7500 122.7500 134.2500 Du        
   4184 ****       151.0000  97.2500 140.5000 Du        
   4185 ****       151.0000  97.5000 140.2500 Du        
   4186 ****       151.0000  97.5000 140.5000 Du        
   4187 ****       151.0000 108.2500 144.7500 Du        
   4188 ****       151.0000 108.2500 145.0000 Du        
   4189 ****       151.0000 108.5000 144.5000 Du        
   4190 ****       151.0000 108.5000 144.7500 Du        
   4191 ****       151.0000 108.5000 145.0000 Du        
   4192 ****       151.0000 108.5000 145.2500 Du        
   4193 ****       151.0000 108.5000 145.5000 Du        
   4194 ****       151.0000 108.7500 144.5000 Du        
   4195 ****       151.0000 108.7500 144.7500 Du        
   4196 ****       151.0000 108.7500 145.0000 Du        
   4197 ****       151.0000 108.7500 145.2500 Du        
   4198 ****       151.0000 108.7500 145.5000 Du        
   4199 ****       151.0000 108.7500 145.7500 Du        
   4200 ****       151.0000 108.7500 146.0000 Du        
   4201 ****       151.0000 108.7500 146.2500 Du        
   4202 ****       151.0000 109.0000 144.2500 Du        
   4203 ****       151.0000 109.0000 144.5000 Du        
   4204 ****       151.0000 109.0000 144.7500 Du        
   4205 ****       151.0000 109.0000 145.0000 Du        
   4206 ****       151.0000 109.0000 145.2500 Du        
   4207 ****       151.0000 109.0000 145.5000 Du        
   4208 ****       151.0000 109.0000 145.7500 Du        
   4209 ****       151.0000 109.0000 146.0000 Du        
   4210 ****       151.0000 109.0000 146.2500 Du        
   4211 ****       151.0000 109.0000 146.5000 Du        
   4212 ****       151.0000 109.2500 144.2500 Du        
   4213 ****       151.0000 109.2500 144.5000 Du        
   4214 ****       151.0000 109.2500 144.7500 Du        
   4215 ****       151.0000 109.2500 145.0000 Du        
   4216 ****       151.0000 109.2500 145.2500 Du        
   4217 ****       151.0000 109.2500 145.5000 Du        
   4218 ****       151.0000 109.2500 145.7500 Du        
   4219 ****       151.0000 109.2500 146.0000 Du        
   4220 ****       151.0000 109.2500 146.2500 Du        
   4221 ****       151.0000 109.2500 146.5000 Du        
   4222 ****       151.0000 109.2500 146.7500 Du        
   4223 ****       151.0000 109.5000 144.5000 Du        
   4224 ****       151.0000 109.5000 144.7500 Du        
   4225 ****       151.0000 109.5000 145.0000 Du        
   4226 ****       151.0000 109.5000 145.2500 Du        
   4227 ****       151.0000 109.5000 145.5000 Du        
   4228 ****       151.0000 109.5000 145.7500 Du        
   4229 ****       151.0000 109.5000 146.0000 Du        
   4230 ****       151.0000 109.5000 146.2500 Du        
   4231 ****       151.0000 109.5000 146.5000 Du        
   4232 ****       151.0000 109.7500 144.2500 Du        
   4233 ****       151.0000 109.7500 144.5000 Du        
   4234 ****       151.0000 109.7500 144.7500 Du        
   4235 ****       151.0000 109.7500 145.0000 Du        
   4236 ****       151.0000 109.7500 145.2500 Du        
   4237 ****       151.0000 109.7500 145.5000 Du        
   4238 ****       151.0000 109.7500 145.7500 Du        
   4239 ****       151.0000 109.7500 146.0000 Du        
   4240 ****       151.0000 109.7500 146.2500 Du        
   4241 ****       151.0000 109.7500 146.5000 Du        
   4242 ****       151.0000 110.0000 144.5000 Du        
   4243 ****       151.0000 110.0000 144.7500 Du        
   4244 ****       151.0000 110.0000 145.0000 Du        
   4245 ****       151.0000 110.0000 145.2500 Du        
   4246 ****       151.0000 110.0000 145.5000 Du        
   4247 ****       151.0000 110.0000 145.7500 Du        
   4248 ****       151.0000 110.0000 146.0000 Du        
   4249 ****       151.0000 110.0000 146.2500 Du        
   4250 ****       151.0000 110.2500 144.5000 Du        
   4251 ****       151.0000 110.2500 144.7500 Du        
   4252 ****       151.0000 110.2500 145.0000 Du        
   4253 ****       151.0000 110.2500 145.2500 Du        
   4254 ****       151.0000 110.2500 145.5000 Du        
   4255 ****       151.0000 110.2500 145.7500 Du        
   4256 ****       151.0000 110.2500 146.0000 Du        
   4257 ****       151.0000 110.2500 146.2500 Du        
   4258 ****       151.0000 110.5000 145.2500 Du        
   4259 ****       151.0000 110.5000 145.5000 Du        
   4260 ****       151.0000 110.5000 145.7500 Du        
   4261 ****       151.0000 110.5000 146.0000 Du        
   4262 ****       151.0000 110.7500 145.2500 Du        
   4263 ****       151.0000 110.7500 145.5000 Du        
   4264 ****       151.0000 110.7500 145.7500 Du        
   4265 ****       151.0000 110.7500 146.0000 Du        
   4266 ****       151.0000 111.0000 145.2500 Du        
   4267 ****       151.0000 111.0000 145.5000 Du        
   4268 ****       151.0000 111.0000 145.7500 Du        
   4269 ****       151.0000 111.2500 145.5000 Du        
   4270 ****       151.0000 111.2500 145.7500 Du        
   4271 ****       151.0000 111.5000 145.2500 Du        
   4272 ****       151.0000 111.5000 145.5000 Du        
   4273 ****       151.0000 111.5000 145.7500 Du        
   4274 ****       151.0000 111.7500 145.0000 Du        
   4275 ****       151.0000 111.7500 145.2500 Du        
   4276 ****       151.0000 111.7500 145.5000 Du        
   4277 ****       151.0000 111.7500 145.7500 Du        
   4278 ****       151.0000 112.0000 145.0000 Du        
   4279 ****       151.0000 112.0000 145.2500 Du        
   4280 ****       151.0000 112.0000 145.5000 Du        
   4281 ****       151.0000 112.0000 145.7500 Du        
   4282 ****       151.0000 112.2500 140.2500 Du        
   4283 ****       151.0000 112.2500 145.0000 Du        
   4284 ****       151.0000 112.2500 145.2500 Du        
   4285 ****       151.0000 112.2500 145.5000 Du        
   4286 ****       151.0000 112.2500 145.7500 Du        
   4287 ****       151.0000 112.7500 139.7500 Du        
   4288 ****       151.0000 112.7500 140.0000 Du        
   4289 ****       151.0000 112.7500 140.2500 Du        
   4290 ****       151.0000 112.7500 145.0000 Du        
   4291 ****       151.0000 112.7500 145.5000 Du        
   4292 ****       151.0000 113.0000 139.7500 Du        
   4293 ****       151.0000 113.0000 140.0000 Du        
   4294 ****       151.0000 113.0000 145.0000 Du        
   4295 ****       151.0000 113.0000 145.5000 Du        
   4296 ****       151.0000 113.0000 145.7500 Du        
   4297 ****       151.0000 113.0000 146.0000 Du        
   4298 ****       151.0000 113.2500 145.0000 Du        
   4299 ****       151.0000 113.2500 145.5000 Du        
   4300 ****       151.0000 113.2500 145.7500 Du        
   4301 ****       151.0000 113.2500 146.0000 Du        
   4302 ****       151.0000 113.5000 145.2500 Du        
   4303 ****       151.0000 113.5000 145.7500 Du        
   4304 ****       151.0000 113.7500 145.2500 Du        
   4305 ****       151.0000 113.7500 145.7500 Du        
   4306 ****       151.0000 118.5000 134.7500 Du        
   4307 ****       151.0000 118.7500 134.7500 Du        
   4308 ****       151.0000 118.7500 135.0000 Du        
   4309 ****       151.0000 119.0000 134.7500 Du        
   4310 ****       151.0000 119.0000 135.0000 Du        
   4311 ****       151.0000 119.2500 134.7500 Du        
   4312 ****       151.0000 119.2500 135.0000 Du        
   4313 ****       151.0000 119.7500 134.7500 Du        
   4314 ****       151.0000 119.7500 135.0000 Du        
   4315 ****       151.0000 120.0000 134.5000 Du        
   4316 ****       151.0000 120.0000 134.7500 Du        
   4317 ****       151.0000 120.0000 135.0000 Du        
   4318 ****       151.0000 120.2500 134.5000 Du        
   4319 ****       151.0000 120.2500 134.7500 Du        
   4320 ****       151.0000 120.2500 135.0000 Du        
   4321 ****       151.0000 120.2500 135.2500 Du        
   4322 ****       151.0000 120.5000 134.2500 Du        
   4323 ****       151.0000 120.5000 134.5000 Du        
   4324 ****       151.0000 120.5000 134.7500 Du        
   4325 ****       151.0000 120.5000 135.0000 Du        
   4326 ****       151.0000 120.5000 135.2500 Du        
   4327 ****       151.0000 120.7500 134.0000 Du        
   4328 ****       151.0000 120.7500 134.2500 Du        
   4329 ****       151.0000 120.7500 134.5000 Du        
   4330 ****       151.0000 120.7500 134.7500 Du        
   4331 ****       151.0000 120.7500 135.0000 Du        
   4332 ****       151.0000 120.7500 135.2500 Du        
   4333 ****       151.0000 121.0000 134.0000 Du        
   4334 ****       151.0000 121.0000 134.2500 Du        
   4335 ****       151.0000 121.0000 134.5000 Du        
   4336 ****       151.0000 121.0000 134.7500 Du        
   4337 ****       151.0000 121.0000 135.0000 Du        
   4338 ****       151.0000 121.0000 135.2500 Du        
   4339 ****       151.0000 121.2500 134.0000 Du        
   4340 ****       151.0000 121.2500 134.2500 Du        
   4341 ****       151.0000 121.2500 134.5000 Du        
   4342 ****       151.0000 121.2500 134.7500 Du        
   4343 ****       151.0000 121.2500 135.0000 Du        
   4344 ****       151.0000 121.2500 135.2500 Du        
   4345 ****       151.0000 121.5000 133.7500 Du        
   4346 ****       151.0000 121.5000 134.0000 Du        
   4347 ****       151.0000 121.5000 134.2500 Du        
   4348 ****       151.0000 121.5000 134.5000 Du        
   4349 ****       151.0000 121.5000 134.7500 Du        
   4350 ****       151.0000 121.5000 135.0000 Du        
   4351 ****       151.0000 121.5000 135.2500 Du        
   4352 ****       151.0000 121.7500 133.7500 Du        
   4353 ****       151.0000 121.7500 134.0000 Du        
   4354 ****       151.0000 121.7500 134.2500 Du        
   4355 ****       151.0000 121.7500 134.5000 Du        
   4356 ****       151.0000 121.7500 134.7500 Du        
   4357 ****       151.0000 121.7500 135.0000 Du        
   4358 ****       151.0000 121.7500 135.2500 Du        
   4359 ****       151.0000 122.0000 134.0000 Du        
   4360 ****       151.0000 122.0000 134.2500 Du        
   4361 ****       151.0000 122.0000 134.5000 Du        
   4362 ****       151.0000 122.0000 134.7500 Du        
   4363 ****       151.0000 122.0000 135.0000 Du        
   4364 ****       151.0000 122.0000 135.2500 Du        
   4365 ****       151.0000 122.2500 134.0000 Du        
   4366 ****       151.0000 122.2500 134.2500 Du        
   4367 ****       151.0000 122.2500 134.5000 Du        
   4368 ****       151.0000 122.2500 134.7500 Du        
   4369 ****       151.0000 122.2500 135.0000 Du        
   4370 ****       151.0000 122.5000 134.0000 Du        
   4371 ****       151.0000 122.5000 134.2500 Du        
   4372 ****       151.0000 122.5000 134.5000 Du        
   4373 ****       151.0000 122.5000 134.7500 Du        
   4374 ****       151.0000 122.7500 134.2500 Du        
   4375 ****       151.0000 122.7500 134.5000 Du        
   4376 ****       151.2500  97.5000 140.5000 Du        
   4377 ****       151.2500  97.5000 140.7500 Du        
   4378 ****       151.2500 108.5000 144.7500 Du        
   4379 ****       151.2500 108.5000 145.0000 Du        
   4380 ****       151.2500 108.5000 145.2500 Du        
   4381 ****       151.2500 108.7500 144.5000 Du        
   4382 ****       151.2500 108.7500 144.7500 Du        
   4383 ****       151.2500 108.7500 145.0000 Du        
   4384 ****       151.2500 108.7500 145.2500 Du        
   4385 ****       151.2500 108.7500 145.5000 Du        
   4386 ****       151.2500 108.7500 145.7500 Du        
   4387 ****       151.2500 108.7500 146.0000 Du        
   4388 ****       151.2500 109.0000 144.2500 Du        
   4389 ****       151.2500 109.0000 144.5000 Du        
   4390 ****       151.2500 109.0000 144.7500 Du        
   4391 ****       151.2500 109.0000 145.0000 Du        
   4392 ****       151.2500 109.0000 145.2500 Du        
   4393 ****       151.2500 109.0000 145.5000 Du        
   4394 ****       151.2500 109.0000 145.7500 Du        
   4395 ****       151.2500 109.0000 146.0000 Du        
   4396 ****       151.2500 109.0000 146.2500 Du        
   4397 ****       151.2500 109.0000 146.5000 Du        
   4398 ****       151.2500 109.2500 144.2500 Du        
   4399 ****       151.2500 109.2500 144.5000 Du        
   4400 ****       151.2500 109.2500 144.7500 Du        
   4401 ****       151.2500 109.2500 145.0000 Du        
   4402 ****       151.2500 109.2500 145.2500 Du        
   4403 ****       151.2500 109.2500 145.5000 Du        
   4404 ****       151.2500 109.2500 145.7500 Du        
   4405 ****       151.2500 109.2500 146.0000 Du        
   4406 ****       151.2500 109.2500 146.2500 Du        
   4407 ****       151.2500 109.2500 146.5000 Du        
   4408 ****       151.2500 109.5000 144.5000 Du        
   4409 ****       151.2500 109.5000 144.7500 Du        
   4410 ****       151.2500 109.5000 145.0000 Du        
   4411 ****       151.2500 109.5000 145.2500 Du        
   4412 ****       151.2500 109.5000 145.5000 Du        
   4413 ****       151.2500 109.5000 145.7500 Du        
   4414 ****       151.2500 109.5000 146.0000 Du        
   4415 ****       151.2500 109.5000 146.2500 Du        
   4416 ****       151.2500 109.5000 146.5000 Du        
   4417 ****       151.2500 109.7500 144.5000 Du        
   4418 ****       151.2500 109.7500 144.7500 Du        
   4419 ****       151.2500 109.7500 145.0000 Du        
   4420 ****       151.2500 109.7500 145.2500 Du        
   4421 ****       151.2500 109.7500 145.5000 Du        
   4422 ****       151.2500 109.7500 145.7500 Du        
   4423 ****       151.2500 109.7500 146.0000 Du        
   4424 ****       151.2500 109.7500 146.2500 Du        
   4425 ****       151.2500 110.0000 144.5000 Du        
   4426 ****       151.2500 110.0000 144.7500 Du        
   4427 ****       151.2500 110.0000 145.0000 Du        
   4428 ****       151.2500 110.0000 145.2500 Du        
   4429 ****       151.2500 110.0000 145.5000 Du        
   4430 ****       151.2500 110.0000 145.7500 Du        
   4431 ****       151.2500 110.0000 146.0000 Du        
   4432 ****       151.2500 110.0000 146.2500 Du        
   4433 ****       151.2500 110.2500 144.7500 Du        
   4434 ****       151.2500 110.2500 145.0000 Du        
   4435 ****       151.2500 110.2500 145.2500 Du        
   4436 ****       151.2500 110.2500 145.5000 Du        
   4437 ****       151.2500 110.2500 145.7500 Du        
   4438 ****       151.2500 110.2500 146.0000 Du        
   4439 ****       151.2500 110.5000 145.5000 Du        
   4440 ****       151.2500 110.5000 145.7500 Du        
   4441 ****       151.2500 110.7500 145.7500 Du        
   4442 ****       151.2500 111.0000 145.5000 Du        
   4443 ****       151.2500 111.0000 145.7500 Du        
   4444 ****       151.2500 111.5000 145.5000 Du        
   4445 ****       151.2500 111.7500 145.5000 Du        
   4446 ****       151.2500 112.0000 145.5000 Du        
   4447 ****       151.2500 112.0000 145.7500 Du        
   4448 ****       151.2500 112.2500 140.2500 Du        
   4449 ****       151.2500 112.2500 145.5000 Du        
   4450 ****       151.2500 112.7500 145.5000 Du        
   4451 ****       151.2500 112.7500 145.7500 Du        
   4452 ****       151.2500 113.0000 145.5000 Du        
   4453 ****       151.2500 113.0000 145.7500 Du        
   4454 ****       151.2500 113.0000 146.0000 Du        
   4455 ****       151.2500 113.2500 145.7500 Du        
   4456 ****       151.2500 113.2500 146.0000 Du        
   4457 ****       151.2500 113.5000 145.5000 Du        
   4458 ****       151.2500 113.5000 145.7500 Du        
   4459 ****       151.2500 113.5000 146.0000 Du        
   4460 ****       151.2500 113.5000 146.2500 Du        
   4461 ****       151.2500 113.7500 145.2500 Du        
   4462 ****       151.2500 113.7500 145.5000 Du        
   4463 ****       151.2500 113.7500 145.7500 Du        
   4464 ****       151.2500 113.7500 146.0000 Du        
   4465 ****       151.2500 113.7500 146.2500 Du        
   4466 ****       151.2500 114.0000 145.5000 Du        
   4467 ****       151.2500 114.0000 145.7500 Du        
   4468 ****       151.2500 114.0000 146.0000 Du        
   4469 ****       151.2500 118.5000 134.7500 Du        
   4470 ****       151.2500 118.7500 134.7500 Du        
   4471 ****       151.2500 118.7500 135.0000 Du        
   4472 ****       151.2500 119.0000 134.7500 Du        
   4473 ****       151.2500 119.0000 135.0000 Du        
   4474 ****       151.2500 119.2500 135.0000 Du        
   4475 ****       151.2500 119.5000 134.7500 Du        
   4476 ****       151.2500 119.7500 134.5000 Du        
   4477 ****       151.2500 119.7500 134.7500 Du        
   4478 ****       151.2500 119.7500 135.0000 Du        
   4479 ****       151.2500 120.0000 134.5000 Du        
   4480 ****       151.2500 120.0000 134.7500 Du        
   4481 ****       151.2500 120.0000 135.0000 Du        
   4482 ****       151.2500 120.2500 134.5000 Du        
   4483 ****       151.2500 120.2500 134.7500 Du        
   4484 ****       151.2500 120.2500 135.0000 Du        
   4485 ****       151.2500 120.5000 134.2500 Du        
   4486 ****       151.2500 120.5000 134.5000 Du        
   4487 ****       151.2500 120.5000 134.7500 Du        
   4488 ****       151.2500 120.5000 135.0000 Du        
   4489 ****       151.2500 120.5000 135.2500 Du        
   4490 ****       151.2500 120.7500 134.2500 Du        
   4491 ****       151.2500 120.7500 134.5000 Du        
   4492 ****       151.2500 120.7500 134.7500 Du        
   4493 ****       151.2500 120.7500 135.0000 Du        
   4494 ****       151.2500 120.7500 135.2500 Du        
   4495 ****       151.2500 121.0000 134.0000 Du        
   4496 ****       151.2500 121.0000 134.2500 Du        
   4497 ****       151.2500 121.0000 134.5000 Du        
   4498 ****       151.2500 121.0000 134.7500 Du        
   4499 ****       151.2500 121.0000 135.0000 Du        
   4500 ****       151.2500 121.0000 135.2500 Du        
   4501 ****       151.2500 121.2500 133.7500 Du        
   4502 ****       151.2500 121.2500 134.0000 Du        
   4503 ****       151.2500 121.2500 134.2500 Du        
   4504 ****       151.2500 121.2500 134.5000 Du        
   4505 ****       151.2500 121.2500 134.7500 Du        
   4506 ****       151.2500 121.2500 135.0000 Du        
   4507 ****       151.2500 121.2500 135.2500 Du        
   4508 ****       151.2500 121.5000 133.7500 Du        
   4509 ****       151.2500 121.5000 134.0000 Du        
   4510 ****       151.2500 121.5000 134.2500 Du        
   4511 ****       151.2500 121.5000 134.5000 Du        
   4512 ****       151.2500 121.5000 134.7500 Du        
   4513 ****       151.2500 121.5000 135.0000 Du        
   4514 ****       151.2500 121.5000 135.2500 Du        
   4515 ****       151.2500 121.5000 135.5000 Du        
   4516 ****       151.2500 121.5000 135.7500 Du        
   4517 ****       151.2500 121.7500 133.7500 Du        
   4518 ****       151.2500 121.7500 134.0000 Du        
   4519 ****       151.2500 121.7500 134.2500 Du        
   4520 ****       151.2500 121.7500 134.5000 Du        
   4521 ****       151.2500 121.7500 134.7500 Du        
   4522 ****       151.2500 121.7500 135.0000 Du        
   4523 ****       151.2500 121.7500 135.2500 Du        
   4524 ****       151.2500 121.7500 135.5000 Du        
   4525 ****       151.2500 122.0000 133.7500 Du        
   4526 ****       151.2500 122.0000 134.0000 Du        
   4527 ****       151.2500 122.0000 134.2500 Du        
   4528 ****       151.2500 122.0000 134.5000 Du        
   4529 ****       151.2500 122.0000 134.7500 Du        
   4530 ****       151.2500 122.0000 135.0000 Du        
   4531 ****       151.2500 122.0000 135.2500 Du        
   4532 ****       151.2500 122.2500 134.0000 Du        
   4533 ****       151.2500 122.2500 134.2500 Du        
   4534 ****       151.2500 122.2500 134.5000 Du        
   4535 ****       151.2500 122.2500 134.7500 Du        
   4536 ****       151.2500 122.2500 135.0000 Du        
   4537 ****       151.2500 122.5000 134.0000 Du        
   4538 ****       151.2500 122.5000 134.2500 Du        
   4539 ****       151.2500 122.5000 134.5000 Du        
   4540 ****       151.2500 122.5000 134.7500 Du        
   4541 ****       151.2500 122.5000 135.0000 Du        
   4542 ****       151.2500 122.7500 134.2500 Du        
   4543 ****       151.2500 122.7500 134.5000 Du        
   4544 ****       151.2500 122.7500 134.7500 Du        
   4545 ****       151.2500 123.0000 134.2500 Du        
   4546 ****       151.2500 123.0000 134.5000 Du        
   4547 ****       151.5000 108.7500 145.5000 Du        
   4548 ****       151.5000 109.0000 145.5000 Du        
   4549 ****       151.5000 109.0000 145.7500 Du        
   4550 ****       151.5000 109.0000 146.0000 Du        
   4551 ****       151.5000 109.0000 146.2500 Du        
   4552 ****       151.5000 109.2500 145.5000 Du        
   4553 ****       151.5000 109.2500 145.7500 Du        
   4554 ****       151.5000 109.2500 146.0000 Du        
   4555 ****       151.5000 109.2500 146.2500 Du        
   4556 ****       151.5000 109.5000 145.0000 Du        
   4557 ****       151.5000 109.5000 145.2500 Du        
   4558 ****       151.5000 109.5000 145.7500 Du        
   4559 ****       151.5000 109.5000 146.0000 Du        
   4560 ****       151.5000 109.7500 145.7500 Du        
   4561 ****       151.5000 113.2500 146.0000 Du        
   4562 ****       151.5000 113.5000 145.7500 Du        
   4563 ****       151.5000 113.5000 146.0000 Du        
   4564 ****       151.5000 113.5000 146.2500 Du        
   4565 ****       151.5000 113.7500 145.7500 Du        
   4566 ****       151.5000 113.7500 146.0000 Du        
   4567 ****       151.5000 113.7500 146.2500 Du        
   4568 ****       151.5000 114.0000 145.7500 Du        
   4569 ****       151.5000 114.0000 146.0000 Du        
   4570 ****       151.5000 114.0000 146.2500 Du        
   4571 ****       151.5000 119.5000 134.7500 Du        
   4572 ****       151.5000 119.7500 134.7500 Du        
   4573 ****       151.5000 120.0000 134.7500 Du        
   4574 ****       151.5000 120.0000 135.0000 Du        
   4575 ****       151.5000 120.2500 134.2500 Du        
   4576 ****       151.5000 120.2500 134.5000 Du        
   4577 ****       151.5000 120.2500 134.7500 Du        
   4578 ****       151.5000 120.2500 135.0000 Du        
   4579 ****       151.5000 120.5000 134.2500 Du        
   4580 ****       151.5000 120.7500 134.2500 Du        
   4581 ****       151.5000 120.7500 134.5000 Du        
   4582 ****       151.5000 120.7500 134.7500 Du        
   4583 ****       151.5000 120.7500 135.0000 Du        
   4584 ****       151.5000 121.0000 134.0000 Du        
   4585 ****       151.5000 121.0000 134.2500 Du        
   4586 ****       151.5000 121.0000 134.5000 Du        
   4587 ****       151.5000 121.0000 134.7500 Du        
   4588 ****       151.5000 121.0000 135.0000 Du        
   4589 ****       151.5000 121.0000 135.2500 Du        
   4590 ****       151.5000 121.2500 133.7500 Du        
   4591 ****       151.5000 121.2500 134.0000 Du        
   4592 ****       151.5000 121.2500 134.2500 Du        
   4593 ****       151.5000 121.2500 134.5000 Du        
   4594 ****       151.5000 121.2500 134.7500 Du        
   4595 ****       151.5000 121.2500 135.0000 Du        
   4596 ****       151.5000 121.2500 135.2500 Du        
   4597 ****       151.5000 121.5000 133.7500 Du        
   4598 ****       151.5000 121.5000 134.0000 Du        
   4599 ****       151.5000 121.5000 134.2500 Du        
   4600 ****       151.5000 121.5000 134.5000 Du        
   4601 ****       151.5000 121.5000 134.7500 Du        
   4602 ****       151.5000 121.5000 135.0000 Du        
   4603 ****       151.5000 121.5000 135.2500 Du        
   4604 ****       151.5000 121.5000 135.5000 Du        
   4605 ****       151.5000 121.7500 133.7500 Du        
   4606 ****       151.5000 121.7500 134.0000 Du        
   4607 ****       151.5000 121.7500 134.2500 Du        
   4608 ****       151.5000 121.7500 134.5000 Du        
   4609 ****       151.5000 121.7500 134.7500 Du        
   4610 ****       151.5000 121.7500 135.0000 Du        
   4611 ****       151.5000 121.7500 135.2500 Du        
   4612 ****       151.5000 121.7500 135.5000 Du        
   4613 ****       151.5000 122.0000 133.7500 Du        
   4614 ****       151.5000 122.0000 134.0000 Du        
   4615 ****       151.5000 122.0000 134.2500 Du        
   4616 ****       151.5000 122.0000 134.5000 Du        
   4617 ****       151.5000 122.0000 134.7500 Du        
   4618 ****       151.5000 122.0000 135.0000 Du        
   4619 ****       151.5000 122.0000 135.2500 Du        
   4620 ****       151.5000 122.2500 133.7500 Du        
   4621 ****       151.5000 122.2500 134.0000 Du        
   4622 ****       151.5000 122.2500 134.2500 Du        
   4623 ****       151.5000 122.2500 134.5000 Du        
   4624 ****       151.5000 122.2500 134.7500 Du        
   4625 ****       151.5000 122.2500 135.0000 Du        
   4626 ****       151.5000 122.2500 135.2500 Du        
   4627 ****       151.5000 122.5000 134.0000 Du        
   4628 ****       151.5000 122.5000 134.2500 Du        
   4629 ****       151.5000 122.5000 134.5000 Du        
   4630 ****       151.5000 122.5000 134.7500 Du        
   4631 ****       151.5000 122.5000 135.0000 Du        
   4632 ****       151.5000 122.7500 134.2500 Du        
   4633 ****       151.5000 122.7500 134.5000 Du        
   4634 ****       151.5000 122.7500 134.7500 Du        
   4635 ****       151.5000 122.7500 135.0000 Du        
   4636 ****       151.5000 123.0000 134.5000 Du        
   4637 ****       151.5000 123.0000 134.7500 Du        
   4638 ****       151.7500 106.7500 126.5000 Du        
   4639 ****       151.7500 106.7500 126.7500 Du        
   4640 ****       151.7500 107.0000 125.7500 Du        
   4641 ****       151.7500 107.0000 126.0000 Du        
   4642 ****       151.7500 107.0000 126.2500 Du        
   4643 ****       151.7500 107.0000 126.5000 Du        
   4644 ****       151.7500 107.2500 125.7500 Du        
   4645 ****       151.7500 107.2500 126.0000 Du        
   4646 ****       151.7500 107.2500 126.2500 Du        
   4647 ****       151.7500 107.2500 126.5000 Du        
   4648 ****       151.7500 107.5000 125.5000 Du        
   4649 ****       151.7500 107.5000 125.7500 Du        
   4650 ****       151.7500 107.5000 126.0000 Du        
   4651 ****       151.7500 107.5000 126.2500 Du        
   4652 ****       151.7500 107.5000 126.5000 Du        
   4653 ****       151.7500 107.5000 126.7500 Du        
   4654 ****       151.7500 107.7500 125.5000 Du        
   4655 ****       151.7500 107.7500 125.7500 Du        
   4656 ****       151.7500 107.7500 126.0000 Du        
   4657 ****       151.7500 107.7500 126.2500 Du        
   4658 ****       151.7500 107.7500 126.5000 Du        
   4659 ****       151.7500 108.0000 126.2500 Du        
   4660 ****       151.7500 108.0000 126.5000 Du        
   4661 ****       151.7500 109.0000 145.5000 Du        
   4662 ****       151.7500 109.0000 145.7500 Du        
   4663 ****       151.7500 109.0000 146.0000 Du        
   4664 ****       151.7500 109.2500 145.5000 Du        
   4665 ****       151.7500 109.2500 145.7500 Du        
   4666 ****       151.7500 109.2500 146.0000 Du        
   4667 ****       151.7500 113.2500 145.7500 Du        
   4668 ****       151.7500 113.2500 146.0000 Du        
   4669 ****       151.7500 113.5000 145.7500 Du        
   4670 ****       151.7500 113.5000 146.0000 Du        
   4671 ****       151.7500 113.5000 146.2500 Du        
   4672 ****       151.7500 113.7500 145.7500 Du        
   4673 ****       151.7500 113.7500 146.0000 Du        
   4674 ****       151.7500 113.7500 146.2500 Du        
   4675 ****       151.7500 113.7500 146.5000 Du        
   4676 ****       151.7500 114.0000 145.7500 Du        
   4677 ****       151.7500 114.0000 146.0000 Du        
   4678 ****       151.7500 114.0000 146.2500 Du        
   4679 ****       151.7500 120.2500 134.2500 Du        
   4680 ****       151.7500 120.2500 134.7500 Du        
   4681 ****       151.7500 120.2500 135.0000 Du        
   4682 ****       151.7500 120.5000 134.2500 Du        
   4683 ****       151.7500 120.7500 134.0000 Du        
   4684 ****       151.7500 120.7500 134.2500 Du        
   4685 ****       151.7500 120.7500 134.5000 Du        
   4686 ****       151.7500 120.7500 134.7500 Du        
   4687 ****       151.7500 120.7500 135.0000 Du        
   4688 ****       151.7500 120.7500 135.2500 Du        
   4689 ****       151.7500 121.0000 134.0000 Du        
   4690 ****       151.7500 121.0000 134.2500 Du        
   4691 ****       151.7500 121.0000 134.5000 Du        
   4692 ****       151.7500 121.0000 134.7500 Du        
   4693 ****       151.7500 121.0000 135.0000 Du        
   4694 ****       151.7500 121.0000 135.2500 Du        
   4695 ****       151.7500 121.2500 133.7500 Du        
   4696 ****       151.7500 121.2500 134.0000 Du        
   4697 ****       151.7500 121.2500 134.2500 Du        
   4698 ****       151.7500 121.2500 134.5000 Du        
   4699 ****       151.7500 121.2500 134.7500 Du        
   4700 ****       151.7500 121.2500 135.0000 Du        
   4701 ****       151.7500 121.2500 135.2500 Du        
   4702 ****       151.7500 121.2500 135.5000 Du        
   4703 ****       151.7500 121.2500 135.7500 Du        
   4704 ****       151.7500 121.5000 133.7500 Du        
   4705 ****       151.7500 121.5000 134.0000 Du        
   4706 ****       151.7500 121.5000 134.2500 Du        
   4707 ****       151.7500 121.5000 134.5000 Du        
   4708 ****       151.7500 121.5000 134.7500 Du        
   4709 ****       151.7500 121.5000 135.0000 Du        
   4710 ****       151.7500 121.5000 135.2500 Du        
   4711 ****       151.7500 121.5000 135.5000 Du        
   4712 ****       151.7500 121.5000 135.7500 Du        
   4713 ****       151.7500 121.5000 136.0000 Du        
   4714 ****       151.7500 121.5000 136.2500 Du        
   4715 ****       151.7500 121.7500 133.7500 Du        
   4716 ****       151.7500 121.7500 134.0000 Du        
   4717 ****       151.7500 121.7500 134.2500 Du        
   4718 ****       151.7500 121.7500 134.5000 Du        
   4719 ****       151.7500 121.7500 134.7500 Du        
   4720 ****       151.7500 121.7500 135.0000 Du        
   4721 ****       151.7500 121.7500 135.2500 Du        
   4722 ****       151.7500 121.7500 135.5000 Du        
   4723 ****       151.7500 121.7500 135.7500 Du        
   4724 ****       151.7500 121.7500 136.0000 Du        
   4725 ****       151.7500 122.0000 133.7500 Du        
   4726 ****       151.7500 122.0000 134.0000 Du        
   4727 ****       151.7500 122.0000 134.2500 Du        
   4728 ****       151.7500 122.0000 134.5000 Du        
   4729 ****       151.7500 122.0000 134.7500 Du        
   4730 ****       151.7500 122.0000 135.0000 Du        
   4731 ****       151.7500 122.0000 135.2500 Du        
   4732 ****       151.7500 122.0000 135.5000 Du        
   4733 ****       151.7500 122.0000 135.7500 Du        
   4734 ****       151.7500 122.2500 133.7500 Du        
   4735 ****       151.7500 122.2500 134.0000 Du        
   4736 ****       151.7500 122.2500 134.2500 Du        
   4737 ****       151.7500 122.2500 134.5000 Du        
   4738 ****       151.7500 122.2500 134.7500 Du        
   4739 ****       151.7500 122.2500 135.0000 Du        
   4740 ****       151.7500 122.2500 135.2500 Du        
   4741 ****       151.7500 122.2500 135.5000 Du        
   4742 ****       151.7500 122.5000 134.0000 Du        
   4743 ****       151.7500 122.5000 134.2500 Du        
   4744 ****       151.7500 122.5000 134.5000 Du        
   4745 ****       151.7500 122.5000 134.7500 Du        
   4746 ****       151.7500 122.5000 135.0000 Du        
   4747 ****       151.7500 122.5000 135.2500 Du        
   4748 ****       151.7500 122.7500 134.2500 Du        
   4749 ****       151.7500 122.7500 134.5000 Du        
   4750 ****       151.7500 122.7500 134.7500 Du        
   4751 ****       151.7500 122.7500 135.0000 Du        
   4752 ****       152.0000 106.5000 126.5000 Du        
   4753 ****       152.0000 106.5000 126.7500 Du        
   4754 ****       152.0000 106.5000 127.0000 Du        
   4755 ****       152.0000 106.7500 126.0000 Du        
   4756 ****       152.0000 106.7500 126.2500 Du        
   4757 ****       152.0000 106.7500 126.5000 Du        
   4758 ****       152.0000 106.7500 126.7500 Du        
   4759 ****       152.0000 106.7500 127.0000 Du        
   4760 ****       152.0000 107.0000 125.7500 Du        
   4761 ****       152.0000 107.0000 126.0000 Du        
   4762 ****       152.0000 107.0000 126.2500 Du        
   4763 ****       152.0000 107.0000 126.5000 Du        
   4764 ****       152.0000 107.0000 126.7500 Du        
   4765 ****       152.0000 107.2500 125.7500 Du        
   4766 ****       152.0000 107.2500 126.0000 Du        
   4767 ****       152.0000 107.2500 126.2500 Du        
   4768 ****       152.0000 107.2500 126.5000 Du        
   4769 ****       152.0000 107.2500 126.7500 Du        
   4770 ****       152.0000 107.5000 125.5000 Du        
   4771 ****       152.0000 107.5000 125.7500 Du        
   4772 ****       152.0000 107.5000 126.0000 Du        
   4773 ****       152.0000 107.5000 126.2500 Du        
   4774 ****       152.0000 107.5000 126.5000 Du        
   4775 ****       152.0000 107.5000 126.7500 Du        
   4776 ****       152.0000 107.7500 125.7500 Du        
   4777 ****       152.0000 107.7500 126.0000 Du        
   4778 ****       152.0000 107.7500 126.2500 Du        
   4779 ****       152.0000 107.7500 126.5000 Du        
   4780 ****       152.0000 107.7500 126.7500 Du        
   4781 ****       152.0000 108.0000 126.2500 Du        
   4782 ****       152.0000 108.0000 126.5000 Du        
   4783 ****       152.0000 108.0000 126.7500 Du        
   4784 ****       152.0000 113.2500 146.0000 Du        
   4785 ****       152.0000 113.5000 145.7500 Du        
   4786 ****       152.0000 113.5000 146.0000 Du        
   4787 ****       152.0000 113.5000 146.2500 Du        
   4788 ****       152.0000 113.5000 146.5000 Du        
   4789 ****       152.0000 113.7500 145.7500 Du        
   4790 ****       152.0000 113.7500 146.0000 Du        
   4791 ****       152.0000 113.7500 146.2500 Du        
   4792 ****       152.0000 113.7500 146.5000 Du        
   4793 ****       152.0000 114.0000 145.7500 Du        
   4794 ****       152.0000 114.0000 146.0000 Du        
   4795 ****       152.0000 114.0000 146.2500 Du        
   4796 ****       152.0000 114.0000 146.5000 Du        
   4797 ****       152.0000 120.2500 135.0000 Du        
   4798 ****       152.0000 120.7500 134.2500 Du        
   4799 ****       152.0000 120.7500 134.7500 Du        
   4800 ****       152.0000 120.7500 135.0000 Du        
   4801 ****       152.0000 120.7500 135.2500 Du        
   4802 ****       152.0000 121.0000 134.0000 Du        
   4803 ****       152.0000 121.0000 134.2500 Du        
   4804 ****       152.0000 121.0000 134.5000 Du        
   4805 ****       152.0000 121.0000 134.7500 Du        
   4806 ****       152.0000 121.0000 135.0000 Du        
   4807 ****       152.0000 121.0000 135.2500 Du        
   4808 ****       152.0000 121.2500 134.0000 Du        
   4809 ****       152.0000 121.2500 134.2500 Du        
   4810 ****       152.0000 121.2500 134.5000 Du        
   4811 ****       152.0000 121.2500 134.7500 Du        
   4812 ****       152.0000 121.2500 135.0000 Du        
   4813 ****       152.0000 121.2500 135.2500 Du        
   4814 ****       152.0000 121.2500 135.5000 Du        
   4815 ****       152.0000 121.2500 135.7500 Du        
   4816 ****       152.0000 121.2500 136.0000 Du        
   4817 ****       152.0000 121.5000 133.7500 Du        
   4818 ****       152.0000 121.5000 134.0000 Du        
   4819 ****       152.0000 121.5000 134.2500 Du        
   4820 ****       152.0000 121.5000 134.5000 Du        
   4821 ****       152.0000 121.5000 134.7500 Du        
   4822 ****       152.0000 121.5000 135.0000 Du        
   4823 ****       152.0000 121.5000 135.2500 Du        
   4824 ****       152.0000 121.5000 135.5000 Du        
   4825 ****       152.0000 121.5000 135.7500 Du        
   4826 ****       152.0000 121.5000 136.0000 Du        
   4827 ****       152.0000 121.5000 136.2500 Du        
   4828 ****       152.0000 121.7500 133.7500 Du        
   4829 ****       152.0000 121.7500 134.0000 Du        
   4830 ****       152.0000 121.7500 134.2500 Du        
   4831 ****       152.0000 121.7500 134.5000 Du        
   4832 ****       152.0000 121.7500 134.7500 Du        
   4833 ****       152.0000 121.7500 135.0000 Du        
   4834 ****       152.0000 121.7500 135.2500 Du        
   4835 ****       152.0000 121.7500 135.5000 Du        
   4836 ****       152.0000 121.7500 135.7500 Du        
   4837 ****       152.0000 121.7500 136.0000 Du        
   4838 ****       152.0000 121.7500 136.2500 Du        
   4839 ****       152.0000 122.0000 133.5000 Du        
   4840 ****       152.0000 122.0000 133.7500 Du        
   4841 ****       152.0000 122.0000 134.0000 Du        
   4842 ****       152.0000 122.0000 134.2500 Du        
   4843 ****       152.0000 122.0000 134.5000 Du        
   4844 ****       152.0000 122.0000 134.7500 Du        
   4845 ****       152.0000 122.0000 135.0000 Du        
   4846 ****       152.0000 122.0000 135.2500 Du        
   4847 ****       152.0000 122.0000 135.5000 Du        
   4848 ****       152.0000 122.0000 135.7500 Du        
   4849 ****       152.0000 122.0000 136.0000 Du        
   4850 ****       152.0000 122.0000 136.2500 Du        
   4851 ****       152.0000 122.2500 133.7500 Du        
   4852 ****       152.0000 122.2500 134.0000 Du        
   4853 ****       152.0000 122.2500 134.2500 Du        
   4854 ****       152.0000 122.2500 134.5000 Du        
   4855 ****       152.0000 122.2500 134.7500 Du        
   4856 ****       152.0000 122.2500 135.0000 Du        
   4857 ****       152.0000 122.2500 135.2500 Du        
   4858 ****       152.0000 122.2500 135.5000 Du        
   4859 ****       152.0000 122.2500 135.7500 Du        
   4860 ****       152.0000 122.2500 136.0000 Du        
   4861 ****       152.0000 122.5000 134.2500 Du        
   4862 ****       152.0000 122.5000 134.5000 Du        
   4863 ****       152.0000 122.5000 134.7500 Du        
   4864 ****       152.0000 122.5000 135.0000 Du        
   4865 ****       152.0000 122.5000 135.2500 Du        
   4866 ****       152.0000 122.5000 135.5000 Du        
   4867 ****       152.0000 122.5000 135.7500 Du        
   4868 ****       152.0000 122.7500 134.7500 Du        
   4869 ****       152.0000 122.7500 135.0000 Du        
   4870 ****       152.0000 122.7500 135.2500 Du        
   4871 ****       152.2500 102.7500 151.2500 Du        
   4872 ****       152.2500 106.5000 126.5000 Du        
   4873 ****       152.2500 106.5000 126.7500 Du        
   4874 ****       152.2500 106.5000 127.0000 Du        
   4875 ****       152.2500 106.7500 126.0000 Du        
   4876 ****       152.2500 106.7500 126.2500 Du        
   4877 ****       152.2500 106.7500 126.5000 Du        
   4878 ****       152.2500 106.7500 126.7500 Du        
   4879 ****       152.2500 106.7500 127.0000 Du        
   4880 ****       152.2500 107.0000 125.7500 Du        
   4881 ****       152.2500 107.0000 126.0000 Du        
   4882 ****       152.2500 107.0000 126.2500 Du        
   4883 ****       152.2500 107.0000 126.5000 Du        
   4884 ****       152.2500 107.0000 126.7500 Du        
   4885 ****       152.2500 107.0000 127.0000 Du        
   4886 ****       152.2500 107.2500 125.7500 Du        
   4887 ****       152.2500 107.2500 126.0000 Du        
   4888 ****       152.2500 107.2500 126.2500 Du        
   4889 ****       152.2500 107.2500 126.5000 Du        
   4890 ****       152.2500 107.2500 126.7500 Du        
   4891 ****       152.2500 107.2500 127.0000 Du        
   4892 ****       152.2500 107.5000 125.7500 Du        
   4893 ****       152.2500 107.5000 126.0000 Du        
   4894 ****       152.2500 107.5000 126.2500 Du        
   4895 ****       152.2500 107.5000 126.5000 Du        
   4896 ****       152.2500 107.5000 126.7500 Du        
   4897 ****       152.2500 107.5000 127.0000 Du        
   4898 ****       152.2500 107.7500 126.0000 Du        
   4899 ****       152.2500 107.7500 126.2500 Du        
   4900 ****       152.2500 107.7500 126.5000 Du        
   4901 ****       152.2500 107.7500 126.7500 Du        
   4902 ****       152.2500 107.7500 127.0000 Du        
   4903 ****       152.2500 113.2500 146.0000 Du        
   4904 ****       152.2500 113.2500 146.2500 Du        
   4905 ****       152.2500 113.5000 145.7500 Du        
   4906 ****       152.2500 113.5000 146.0000 Du        
   4907 ****       152.2500 113.5000 146.2500 Du        
   4908 ****       152.2500 113.5000 146.5000 Du        
   4909 ****       152.2500 113.7500 145.7500 Du        
   4910 ****       152.2500 113.7500 146.0000 Du        
   4911 ****       152.2500 113.7500 146.2500 Du        
   4912 ****       152.2500 113.7500 146.5000 Du        
   4913 ****       152.2500 113.7500 146.7500 Du        
   4914 ****       152.2500 114.0000 146.0000 Du        
   4915 ****       152.2500 114.0000 146.2500 Du        
   4916 ****       152.2500 114.0000 146.5000 Du        
   4917 ****       152.2500 120.7500 135.0000 Du        
   4918 ****       152.2500 120.7500 135.2500 Du        
   4919 ****       152.2500 121.0000 134.2500 Du        
   4920 ****       152.2500 121.0000 134.7500 Du        
   4921 ****       152.2500 121.0000 135.0000 Du        
   4922 ****       152.2500 121.0000 135.2500 Du        
   4923 ****       152.2500 121.2500 134.2500 Du        
   4924 ****       152.2500 121.2500 134.5000 Du        
   4925 ****       152.2500 121.2500 134.7500 Du        
   4926 ****       152.2500 121.2500 135.0000 Du        
   4927 ****       152.2500 121.2500 135.2500 Du        
   4928 ****       152.2500 121.2500 135.5000 Du        
   4929 ****       152.2500 121.2500 135.7500 Du        
   4930 ****       152.2500 121.2500 136.0000 Du        
   4931 ****       152.2500 121.2500 136.2500 Du        
   4932 ****       152.2500 121.5000 134.0000 Du        
   4933 ****       152.2500 121.5000 134.2500 Du        
   4934 ****       152.2500 121.5000 134.5000 Du        
   4935 ****       152.2500 121.5000 134.7500 Du        
   4936 ****       152.2500 121.5000 135.0000 Du        
   4937 ****       152.2500 121.5000 135.2500 Du        
   4938 ****       152.2500 121.5000 135.5000 Du        
   4939 ****       152.2500 121.5000 135.7500 Du        
   4940 ****       152.2500 121.5000 136.0000 Du        
   4941 ****       152.2500 121.5000 136.2500 Du        
   4942 ****       152.2500 121.7500 133.7500 Du        
   4943 ****       152.2500 121.7500 134.0000 Du        
   4944 ****       152.2500 121.7500 134.2500 Du        
   4945 ****       152.2500 121.7500 134.5000 Du        
   4946 ****       152.2500 121.7500 134.7500 Du        
   4947 ****       152.2500 121.7500 135.0000 Du        
   4948 ****       152.2500 121.7500 135.2500 Du        
   4949 ****       152.2500 121.7500 135.5000 Du        
   4950 ****       152.2500 121.7500 135.7500 Du        
   4951 ****       152.2500 121.7500 136.0000 Du        
   4952 ****       152.2500 121.7500 136.2500 Du        
   4953 ****       152.2500 121.7500 136.5000 Du        
   4954 ****       152.2500 121.7500 136.7500 Du        
   4955 ****       152.2500 122.0000 133.7500 Du        
   4956 ****       152.2500 122.0000 134.0000 Du        
   4957 ****       152.2500 122.0000 134.2500 Du        
   4958 ****       152.2500 122.0000 134.5000 Du        
   4959 ****       152.2500 122.0000 134.7500 Du        
   4960 ****       152.2500 122.0000 135.0000 Du        
   4961 ****       152.2500 122.0000 135.2500 Du        
   4962 ****       152.2500 122.0000 135.5000 Du        
   4963 ****       152.2500 122.0000 135.7500 Du        
   4964 ****       152.2500 122.0000 136.0000 Du        
   4965 ****       152.2500 122.0000 136.2500 Du        
   4966 ****       152.2500 122.0000 136.5000 Du        
   4967 ****       152.2500 122.2500 134.0000 Du        
   4968 ****       152.2500 122.2500 134.2500 Du        
   4969 ****       152.2500 122.2500 134.5000 Du        
   4970 ****       152.2500 122.2500 134.7500 Du        
   4971 ****       152.2500 122.2500 135.0000 Du        
   4972 ****       152.2500 122.2500 135.2500 Du        
   4973 ****       152.2500 122.2500 135.5000 Du        
   4974 ****       152.2500 122.2500 135.7500 Du        
   4975 ****       152.2500 122.2500 136.0000 Du        
   4976 ****       152.2500 122.2500 136.2500 Du        
   4977 ****       152.2500 122.5000 134.7500 Du        
   4978 ****       152.2500 122.5000 135.0000 Du        
   4979 ****       152.2500 122.5000 135.2500 Du        
   4980 ****       152.2500 122.5000 135.5000 Du        
   4981 ****       152.2500 122.5000 135.7500 Du        
   4982 ****       152.2500 122.5000 136.0000 Du        
   4983 ****       152.2500 122.7500 135.2500 Du        
   4984 ****       152.2500 122.7500 135.5000 Du        
   4985 ****       152.5000 102.5000 151.2500 Du        
   4986 ****       152.5000 102.7500 151.0000 Du        
   4987 ****       152.5000 102.7500 151.2500 Du        
   4988 ****       152.5000 103.0000 151.2500 Du        
   4989 ****       152.5000 106.5000 126.7500 Du        
   4990 ****       152.5000 106.5000 127.0000 Du        
   4991 ****       152.5000 106.5000 127.2500 Du        
   4992 ****       152.5000 106.7500 126.5000 Du        
   4993 ****       152.5000 106.7500 126.7500 Du        
   4994 ****       152.5000 106.7500 127.0000 Du        
   4995 ****       152.5000 106.7500 127.2500 Du        
   4996 ****       152.5000 106.7500 127.5000 Du        
   4997 ****       152.5000 107.0000 126.0000 Du        
   4998 ****       152.5000 107.0000 126.2500 Du        
   4999 ****       152.5000 107.0000 126.5000 Du        
   5000 ****       152.5000 107.0000 126.7500 Du        
   5001 ****       152.5000 107.0000 127.0000 Du        
   5002 ****       152.5000 107.0000 127.2500 Du        
   5003 ****       152.5000 107.2500 126.0000 Du        
   5004 ****       152.5000 107.2500 126.2500 Du        
   5005 ****       152.5000 107.2500 126.5000 Du        
   5006 ****       152.5000 107.2500 126.7500 Du        
   5007 ****       152.5000 107.2500 127.0000 Du        
   5008 ****       152.5000 107.2500 127.2500 Du        
   5009 ****       152.5000 107.5000 125.7500 Du        
   5010 ****       152.5000 107.5000 126.0000 Du        
   5011 ****       152.5000 107.5000 126.2500 Du        
   5012 ****       152.5000 107.5000 126.5000 Du        
   5013 ****       152.5000 107.5000 126.7500 Du        
   5014 ****       152.5000 107.5000 127.0000 Du        
   5015 ****       152.5000 107.7500 126.0000 Du        
   5016 ****       152.5000 107.7500 126.2500 Du        
   5017 ****       152.5000 107.7500 126.5000 Du        
   5018 ****       152.5000 107.7500 126.7500 Du        
   5019 ****       152.5000 107.7500 127.0000 Du        
   5020 ****       152.5000 113.5000 146.0000 Du        
   5021 ****       152.5000 113.5000 146.2500 Du        
   5022 ****       152.5000 113.5000 146.5000 Du        
   5023 ****       152.5000 113.7500 146.0000 Du        
   5024 ****       152.5000 113.7500 146.2500 Du        
   5025 ****       152.5000 113.7500 146.5000 Du        
   5026 ****       152.5000 113.7500 146.7500 Du        
   5027 ****       152.5000 114.0000 146.2500 Du        
   5028 ****       152.5000 114.0000 146.5000 Du        
   5029 ****       152.5000 114.0000 146.7500 Du        
   5030 ****       152.5000 121.0000 134.7500 Du        
   5031 ****       152.5000 121.0000 135.0000 Du        
   5032 ****       152.5000 121.0000 135.2500 Du        
   5033 ****       152.5000 121.0000 135.5000 Du        
   5034 ****       152.5000 121.0000 135.7500 Du        
   5035 ****       152.5000 121.0000 136.0000 Du        
   5036 ****       152.5000 121.0000 136.2500 Du        
   5037 ****       152.5000 121.2500 134.5000 Du        
   5038 ****       152.5000 121.2500 134.7500 Du        
   5039 ****       152.5000 121.2500 135.0000 Du        
   5040 ****       152.5000 121.2500 135.2500 Du        
   5041 ****       152.5000 121.2500 135.5000 Du        
   5042 ****       152.5000 121.2500 135.7500 Du        
   5043 ****       152.5000 121.2500 136.0000 Du        
   5044 ****       152.5000 121.2500 136.2500 Du        
   5045 ****       152.5000 121.2500 136.5000 Du        
   5046 ****       152.5000 121.5000 134.2500 Du        
   5047 ****       152.5000 121.5000 134.5000 Du        
   5048 ****       152.5000 121.5000 134.7500 Du        
   5049 ****       152.5000 121.5000 135.0000 Du        
   5050 ****       152.5000 121.5000 135.2500 Du        
   5051 ****       152.5000 121.5000 135.5000 Du        
   5052 ****       152.5000 121.5000 135.7500 Du        
   5053 ****       152.5000 121.5000 136.0000 Du        
   5054 ****       152.5000 121.5000 136.2500 Du        
   5055 ****       152.5000 121.5000 136.5000 Du        
   5056 ****       152.5000 121.5000 136.7500 Du        
   5057 ****       152.5000 121.7500 134.0000 Du        
   5058 ****       152.5000 121.7500 134.2500 Du        
   5059 ****       152.5000 121.7500 134.5000 Du        
   5060 ****       152.5000 121.7500 134.7500 Du        
   5061 ****       152.5000 121.7500 135.0000 Du        
   5062 ****       152.5000 121.7500 135.2500 Du        
   5063 ****       152.5000 121.7500 135.5000 Du        
   5064 ****       152.5000 121.7500 135.7500 Du        
   5065 ****       152.5000 121.7500 136.0000 Du        
   5066 ****       152.5000 121.7500 136.2500 Du        
   5067 ****       152.5000 121.7500 136.5000 Du        
   5068 ****       152.5000 121.7500 136.7500 Du        
   5069 ****       152.5000 121.7500 137.0000 Du        
   5070 ****       152.5000 122.0000 134.0000 Du        
   5071 ****       152.5000 122.0000 134.2500 Du        
   5072 ****       152.5000 122.0000 134.5000 Du        
   5073 ****       152.5000 122.0000 134.7500 Du        
   5074 ****       152.5000 122.0000 135.0000 Du        
   5075 ****       152.5000 122.0000 135.2500 Du        
   5076 ****       152.5000 122.0000 135.5000 Du        
   5077 ****       152.5000 122.0000 135.7500 Du        
   5078 ****       152.5000 122.0000 136.0000 Du        
   5079 ****       152.5000 122.0000 136.2500 Du        
   5080 ****       152.5000 122.0000 136.5000 Du        
   5081 ****       152.5000 122.0000 136.7500 Du        
   5082 ****       152.5000 122.2500 134.7500 Du        
   5083 ****       152.5000 122.2500 135.0000 Du        
   5084 ****       152.5000 122.2500 135.2500 Du        
   5085 ****       152.5000 122.2500 135.5000 Du        
   5086 ****       152.5000 122.2500 135.7500 Du        
   5087 ****       152.5000 122.2500 136.0000 Du        
   5088 ****       152.5000 122.2500 136.2500 Du        
   5089 ****       152.5000 122.2500 136.5000 Du        
   5090 ****       152.5000 122.2500 136.7500 Du        
   5091 ****       152.5000 122.5000 135.0000 Du        
   5092 ****       152.5000 122.5000 135.2500 Du        
   5093 ****       152.5000 122.5000 135.5000 Du        
   5094 ****       152.5000 122.5000 135.7500 Du        
   5095 ****       152.5000 122.5000 136.0000 Du        
   5096 ****       152.5000 122.5000 136.2500 Du        
   5097 ****       152.5000 122.5000 136.5000 Du        
   5098 ****       152.5000 122.5000 136.7500 Du        
   5099 ****       152.5000 122.7500 135.5000 Du        
   5100 ****       152.5000 122.7500 135.7500 Du        
   5101 ****       152.5000 122.7500 136.0000 Du        
   5102 ****       152.5000 122.7500 136.2500 Du        
   5103 ****       152.7500 102.5000 151.2500 Du        
   5104 ****       152.7500 102.7500 151.0000 Du        
   5105 ****       152.7500 102.7500 151.2500 Du        
   5106 ****       152.7500 103.0000 151.0000 Du        
   5107 ****       152.7500 103.0000 151.2500 Du        
   5108 ****       152.7500 106.0000 127.7500 Du        
   5109 ****       152.7500 106.2500 127.5000 Du        
   5110 ****       152.7500 106.2500 127.7500 Du        
   5111 ****       152.7500 106.5000 127.0000 Du        
   5112 ****       152.7500 106.5000 127.2500 Du        
   5113 ****       152.7500 106.5000 127.5000 Du        
   5114 ****       152.7500 106.5000 127.7500 Du        
   5115 ****       152.7500 106.7500 126.5000 Du        
   5116 ****       152.7500 106.7500 126.7500 Du        
   5117 ****       152.7500 106.7500 127.0000 Du        
   5118 ****       152.7500 106.7500 127.2500 Du        
   5119 ****       152.7500 106.7500 127.5000 Du        
   5120 ****       152.7500 106.7500 127.7500 Du        
   5121 ****       152.7500 107.0000 126.0000 Du        
   5122 ****       152.7500 107.0000 126.2500 Du        
   5123 ****       152.7500 107.0000 126.5000 Du        
   5124 ****       152.7500 107.0000 126.7500 Du        
   5125 ****       152.7500 107.0000 127.0000 Du        
   5126 ****       152.7500 107.0000 127.2500 Du        
   5127 ****       152.7500 107.0000 127.5000 Du        
   5128 ****       152.7500 107.2500 126.0000 Du        
   5129 ****       152.7500 107.2500 126.2500 Du        
   5130 ****       152.7500 107.2500 126.5000 Du        
   5131 ****       152.7500 107.2500 126.7500 Du        
   5132 ****       152.7500 107.2500 127.0000 Du        
   5133 ****       152.7500 107.2500 127.2500 Du        
   5134 ****       152.7500 107.2500 127.5000 Du        
   5135 ****       152.7500 107.5000 126.0000 Du        
   5136 ****       152.7500 107.5000 126.2500 Du        
   5137 ****       152.7500 107.5000 126.5000 Du        
   5138 ****       152.7500 107.5000 126.7500 Du        
   5139 ****       152.7500 107.5000 127.0000 Du        
   5140 ****       152.7500 107.5000 127.2500 Du        
   5141 ****       152.7500 107.5000 127.5000 Du        
   5142 ****       152.7500 107.7500 126.2500 Du        
   5143 ****       152.7500 107.7500 126.5000 Du        
   5144 ****       152.7500 107.7500 126.7500 Du        
   5145 ****       152.7500 107.7500 127.0000 Du        
   5146 ****       152.7500 113.5000 146.0000 Du        
   5147 ****       152.7500 113.5000 146.2500 Du        
   5148 ****       152.7500 113.5000 146.5000 Du        
   5149 ****       152.7500 113.5000 146.7500 Du        
   5150 ****       152.7500 113.7500 146.0000 Du        
   5151 ****       152.7500 113.7500 146.2500 Du        
   5152 ****       152.7500 113.7500 146.5000 Du        
   5153 ****       152.7500 113.7500 146.7500 Du        
   5154 ****       152.7500 114.0000 146.2500 Du        
   5155 ****       152.7500 114.0000 146.5000 Du        
   5156 ****       152.7500 114.0000 146.7500 Du        
   5157 ****       152.7500 121.0000 135.0000 Du        
   5158 ****       152.7500 121.0000 135.2500 Du        
   5159 ****       152.7500 121.0000 135.7500 Du        
   5160 ****       152.7500 121.0000 136.0000 Du        
   5161 ****       152.7500 121.0000 136.2500 Du        
   5162 ****       152.7500 121.0000 136.5000 Du        
   5163 ****       152.7500 121.2500 134.7500 Du        
   5164 ****       152.7500 121.2500 135.0000 Du        
   5165 ****       152.7500 121.2500 135.2500 Du        
   5166 ****       152.7500 121.2500 135.5000 Du        
   5167 ****       152.7500 121.2500 135.7500 Du        
   5168 ****       152.7500 121.2500 136.0000 Du        
   5169 ****       152.7500 121.2500 136.2500 Du        
   5170 ****       152.7500 121.2500 136.5000 Du        
   5171 ****       152.7500 121.2500 136.7500 Du        
   5172 ****       152.7500 121.5000 134.7500 Du        
   5173 ****       152.7500 121.5000 135.0000 Du        
   5174 ****       152.7500 121.5000 135.2500 Du        
   5175 ****       152.7500 121.5000 135.5000 Du        
   5176 ****       152.7500 121.5000 135.7500 Du        
   5177 ****       152.7500 121.5000 136.0000 Du        
   5178 ****       152.7500 121.5000 136.2500 Du        
   5179 ****       152.7500 121.5000 136.5000 Du        
   5180 ****       152.7500 121.5000 136.7500 Du        
   5181 ****       152.7500 121.5000 137.0000 Du        
   5182 ****       152.7500 121.7500 134.7500 Du        
   5183 ****       152.7500 121.7500 135.0000 Du        
   5184 ****       152.7500 121.7500 135.2500 Du        
   5185 ****       152.7500 121.7500 135.5000 Du        
   5186 ****       152.7500 121.7500 135.7500 Du        
   5187 ****       152.7500 121.7500 136.0000 Du        
   5188 ****       152.7500 121.7500 136.2500 Du        
   5189 ****       152.7500 121.7500 136.5000 Du        
   5190 ****       152.7500 121.7500 136.7500 Du        
   5191 ****       152.7500 121.7500 137.0000 Du        
   5192 ****       152.7500 122.0000 134.7500 Du        
   5193 ****       152.7500 122.0000 135.0000 Du        
   5194 ****       152.7500 122.0000 135.2500 Du        
   5195 ****       152.7500 122.0000 135.5000 Du        
   5196 ****       152.7500 122.0000 135.7500 Du        
   5197 ****       152.7500 122.0000 136.0000 Du        
   5198 ****       152.7500 122.0000 136.2500 Du        
   5199 ****       152.7500 122.0000 136.5000 Du        
   5200 ****       152.7500 122.0000 136.7500 Du        
   5201 ****       152.7500 122.0000 137.0000 Du        
   5202 ****       152.7500 122.2500 135.2500 Du        
   5203 ****       152.7500 122.2500 135.5000 Du        
   5204 ****       152.7500 122.2500 135.7500 Du        
   5205 ****       152.7500 122.2500 136.0000 Du        
   5206 ****       152.7500 122.2500 136.2500 Du        
   5207 ****       152.7500 122.2500 136.5000 Du        
   5208 ****       152.7500 122.2500 136.7500 Du        
   5209 ****       152.7500 122.2500 137.0000 Du        
   5210 ****       152.7500 122.5000 135.5000 Du        
   5211 ****       152.7500 122.5000 135.7500 Du        
   5212 ****       152.7500 122.5000 136.0000 Du        
   5213 ****       152.7500 122.5000 136.2500 Du        
   5214 ****       152.7500 122.5000 136.5000 Du        
   5215 ****       152.7500 122.5000 136.7500 Du        
   5216 ****       152.7500 122.5000 137.0000 Du        
   5217 ****       152.7500 122.7500 135.7500 Du        
   5218 ****       152.7500 122.7500 136.0000 Du        
   5219 ****       152.7500 122.7500 136.2500 Du        
   5220 ****       152.7500 122.7500 136.5000 Du        
   5221 ****       152.7500 122.7500 136.7500 Du        
   5222 ****       152.7500 122.7500 137.0000 Du        
   5223 ****       152.7500 123.0000 136.0000 Du        
   5224 ****       152.7500 123.0000 136.2500 Du        
   5225 ****       152.7500 123.0000 136.5000 Du        
   5226 ****       152.7500 123.0000 136.7500 Du        
   5227 ****       153.0000 102.7500 151.0000 Du        
   5228 ****       153.0000 102.7500 151.2500 Du        
   5229 ****       153.0000 103.0000 151.0000 Du        
   5230 ****       153.0000 103.0000 151.2500 Du        
   5231 ****       153.0000 106.0000 127.7500 Du        
   5232 ****       153.0000 106.0000 128.0000 Du        
   5233 ****       153.0000 106.0000 128.2500 Du        
   5234 ****       153.0000 106.2500 127.5000 Du        
   5235 ****       153.0000 106.2500 127.7500 Du        
   5236 ****       153.0000 106.2500 128.0000 Du        
   5237 ****       153.0000 106.2500 128.2500 Du        
   5238 ****       153.0000 106.5000 127.0000 Du        
   5239 ****       153.0000 106.5000 127.2500 Du        
   5240 ****       153.0000 106.5000 127.5000 Du        
   5241 ****       153.0000 106.5000 127.7500 Du        
   5242 ****       153.0000 106.5000 128.0000 Du        
   5243 ****       153.0000 106.5000 128.2500 Du        
   5244 ****       153.0000 106.7500 126.5000 Du        
   5245 ****       153.0000 106.7500 126.7500 Du        
   5246 ****       153.0000 106.7500 127.0000 Du        
   5247 ****       153.0000 106.7500 127.2500 Du        
   5248 ****       153.0000 106.7500 127.5000 Du        
   5249 ****       153.0000 106.7500 127.7500 Du        
   5250 ****       153.0000 106.7500 128.0000 Du        
   5251 ****       153.0000 107.0000 126.0000 Du        
   5252 ****       153.0000 107.0000 126.2500 Du        
   5253 ****       153.0000 107.0000 126.5000 Du        
   5254 ****       153.0000 107.0000 126.7500 Du        
   5255 ****       153.0000 107.0000 127.0000 Du        
   5256 ****       153.0000 107.0000 127.2500 Du        
   5257 ****       153.0000 107.0000 127.5000 Du        
   5258 ****       153.0000 107.0000 127.7500 Du        
   5259 ****       153.0000 107.0000 128.0000 Du        
   5260 ****       153.0000 107.2500 126.0000 Du        
   5261 ****       153.0000 107.2500 126.2500 Du        
   5262 ****       153.0000 107.2500 126.5000 Du        
   5263 ****       153.0000 107.2500 126.7500 Du        
   5264 ****       153.0000 107.2500 127.0000 Du        
   5265 ****       153.0000 107.2500 127.2500 Du        
   5266 ****       153.0000 107.2500 127.5000 Du        
   5267 ****       153.0000 107.2500 127.7500 Du        
   5268 ****       153.0000 107.5000 126.2500 Du        
   5269 ****       153.0000 107.5000 126.5000 Du        
   5270 ****       153.0000 107.5000 126.7500 Du        
   5271 ****       153.0000 107.5000 127.0000 Du        
   5272 ****       153.0000 107.5000 127.2500 Du        
   5273 ****       153.0000 107.5000 127.5000 Du        
   5274 ****       153.0000 107.5000 127.7500 Du        
   5275 ****       153.0000 107.7500 126.7500 Du        
   5276 ****       153.0000 113.5000 146.0000 Du        
   5277 ****       153.0000 113.5000 146.2500 Du        
   5278 ****       153.0000 113.5000 146.5000 Du        
   5279 ****       153.0000 113.5000 146.7500 Du        
   5280 ****       153.0000 113.7500 146.0000 Du        
   5281 ****       153.0000 113.7500 146.2500 Du        
   5282 ****       153.0000 113.7500 146.5000 Du        
   5283 ****       153.0000 113.7500 146.7500 Du        
   5284 ****       153.0000 113.7500 147.0000 Du        
   5285 ****       153.0000 114.0000 146.2500 Du        
   5286 ****       153.0000 114.0000 146.5000 Du        
   5287 ****       153.0000 114.0000 146.7500 Du        
   5288 ****       153.0000 114.0000 147.0000 Du        
   5289 ****       153.0000 120.7500 136.0000 Du        
   5290 ****       153.0000 121.0000 135.2500 Du        
   5291 ****       153.0000 121.0000 135.7500 Du        
   5292 ****       153.0000 121.0000 136.0000 Du        
   5293 ****       153.0000 121.0000 136.2500 Du        
   5294 ****       153.0000 121.0000 136.5000 Du        
   5295 ****       153.0000 121.0000 136.7500 Du        
   5296 ****       153.0000 121.0000 137.0000 Du        
   5297 ****       153.0000 121.2500 135.0000 Du        
   5298 ****       153.0000 121.2500 135.2500 Du        
   5299 ****       153.0000 121.2500 135.5000 Du        
   5300 ****       153.0000 121.2500 135.7500 Du        
   5301 ****       153.0000 121.2500 136.0000 Du        
   5302 ****       153.0000 121.2500 136.2500 Du        
   5303 ****       153.0000 121.2500 136.5000 Du        
   5304 ****       153.0000 121.2500 136.7500 Du        
   5305 ****       153.0000 121.2500 137.0000 Du        
   5306 ****       153.0000 121.5000 135.0000 Du        
   5307 ****       153.0000 121.5000 135.2500 Du        
   5308 ****       153.0000 121.5000 135.5000 Du        
   5309 ****       153.0000 121.5000 135.7500 Du        
   5310 ****       153.0000 121.5000 136.0000 Du        
   5311 ****       153.0000 121.5000 136.2500 Du        
   5312 ****       153.0000 121.5000 136.5000 Du        
   5313 ****       153.0000 121.5000 136.7500 Du        
   5314 ****       153.0000 121.5000 137.0000 Du        
   5315 ****       153.0000 121.7500 135.2500 Du        
   5316 ****       153.0000 121.7500 135.5000 Du        
   5317 ****       153.0000 121.7500 135.7500 Du        
   5318 ****       153.0000 121.7500 136.0000 Du        
   5319 ****       153.0000 121.7500 136.2500 Du        
   5320 ****       153.0000 121.7500 136.5000 Du        
   5321 ****       153.0000 121.7500 136.7500 Du        
   5322 ****       153.0000 121.7500 137.0000 Du        
   5323 ****       153.0000 121.7500 137.2500 Du        
   5324 ****       153.0000 122.0000 135.7500 Du        
   5325 ****       153.0000 122.0000 136.0000 Du        
   5326 ****       153.0000 122.0000 136.2500 Du        
   5327 ****       153.0000 122.0000 136.5000 Du        
   5328 ****       153.0000 122.0000 136.7500 Du        
   5329 ****       153.0000 122.0000 137.0000 Du        
   5330 ****       153.0000 122.0000 137.2500 Du        
   5331 ****       153.0000 122.2500 135.7500 Du        
   5332 ****       153.0000 122.2500 136.0000 Du        
   5333 ****       153.0000 122.2500 136.2500 Du        
   5334 ****       153.0000 122.2500 136.5000 Du        
   5335 ****       153.0000 122.2500 136.7500 Du        
   5336 ****       153.0000 122.2500 137.0000 Du        
   5337 ****       153.0000 122.2500 137.2500 Du        
   5338 ****       153.0000 122.5000 136.0000 Du        
   5339 ****       153.0000 122.5000 136.2500 Du        
   5340 ****       153.0000 122.5000 136.5000 Du        
   5341 ****       153.0000 122.5000 136.7500 Du        
   5342 ****       153.0000 122.5000 137.0000 Du        
   5343 ****       153.0000 122.5000 137.2500 Du        
   5344 ****       153.0000 122.7500 136.0000 Du        
   5345 ****       153.0000 122.7500 136.2500 Du        
   5346 ****       153.0000 122.7500 136.5000 Du        
   5347 ****       153.0000 122.7500 136.7500 Du        
   5348 ****       153.0000 122.7500 137.0000 Du        
   5349 ****       153.0000 123.0000 136.0000 Du        
   5350 ****       153.0000 123.0000 136.2500 Du        
   5351 ****       153.0000 123.0000 136.5000 Du        
   5352 ****       153.0000 123.0000 136.7500 Du        
   5353 ****       153.0000 123.0000 137.0000 Du        
   5354 ****       153.0000 123.2500 136.7500 Du        
   5355 ****       153.2500 106.0000 127.7500 Du        
   5356 ****       153.2500 106.0000 128.0000 Du        
   5357 ****       153.2500 106.0000 128.2500 Du        
   5358 ****       153.2500 106.0000 128.5000 Du        
   5359 ****       153.2500 106.2500 127.5000 Du        
   5360 ****       153.2500 106.2500 127.7500 Du        
   5361 ****       153.2500 106.2500 128.0000 Du        
   5362 ****       153.2500 106.2500 128.2500 Du        
   5363 ****       153.2500 106.2500 128.5000 Du        
   5364 ****       153.2500 106.5000 127.0000 Du        
   5365 ****       153.2500 106.5000 127.2500 Du        
   5366 ****       153.2500 106.5000 127.5000 Du        
   5367 ****       153.2500 106.5000 127.7500 Du        
   5368 ****       153.2500 106.5000 128.0000 Du        
   5369 ****       153.2500 106.5000 128.2500 Du        
   5370 ****       153.2500 106.5000 128.5000 Du        
   5371 ****       153.2500 106.7500 126.5000 Du        
   5372 ****       153.2500 106.7500 126.7500 Du        
   5373 ****       153.2500 106.7500 127.0000 Du        
   5374 ****       153.2500 106.7500 127.2500 Du        
   5375 ****       153.2500 106.7500 127.5000 Du        
   5376 ****       153.2500 106.7500 127.7500 Du        
   5377 ****       153.2500 106.7500 128.0000 Du        
   5378 ****       153.2500 106.7500 128.2500 Du        
   5379 ****       153.2500 106.7500 128.5000 Du        
   5380 ****       153.2500 107.0000 126.2500 Du        
   5381 ****       153.2500 107.0000 126.5000 Du        
   5382 ****       153.2500 107.0000 126.7500 Du        
   5383 ****       153.2500 107.0000 127.0000 Du        
   5384 ****       153.2500 107.0000 127.2500 Du        
   5385 ****       153.2500 107.0000 127.5000 Du        
   5386 ****       153.2500 107.0000 127.7500 Du        
   5387 ****       153.2500 107.0000 128.0000 Du        
   5388 ****       153.2500 107.0000 128.2500 Du        
   5389 ****       153.2500 107.2500 126.2500 Du        
   5390 ****       153.2500 107.2500 126.5000 Du        
   5391 ****       153.2500 107.2500 126.7500 Du        
   5392 ****       153.2500 107.2500 127.0000 Du        
   5393 ****       153.2500 107.2500 127.2500 Du        
   5394 ****       153.2500 107.2500 127.5000 Du        
   5395 ****       153.2500 107.2500 127.7500 Du        
   5396 ****       153.2500 107.2500 128.0000 Du        
   5397 ****       153.2500 107.2500 128.2500 Du        
   5398 ****       153.2500 107.5000 126.2500 Du        
   5399 ****       153.2500 107.5000 126.5000 Du        
   5400 ****       153.2500 107.5000 126.7500 Du        
   5401 ****       153.2500 107.5000 127.0000 Du        
   5402 ****       153.2500 107.5000 127.2500 Du        
   5403 ****       153.2500 107.5000 127.5000 Du        
   5404 ****       153.2500 107.5000 127.7500 Du        
   5405 ****       153.2500 107.5000 128.0000 Du        
   5406 ****       153.2500 113.5000 146.2500 Du        
   5407 ****       153.2500 113.5000 146.5000 Du        
   5408 ****       153.2500 113.5000 146.7500 Du        
   5409 ****       153.2500 113.7500 146.2500 Du        
   5410 ****       153.2500 113.7500 146.5000 Du        
   5411 ****       153.2500 113.7500 146.7500 Du        
   5412 ****       153.2500 113.7500 147.0000 Du        
   5413 ****       153.2500 114.0000 146.2500 Du        
   5414 ****       153.2500 114.0000 146.5000 Du        
   5415 ****       153.2500 114.0000 146.7500 Du        
   5416 ****       153.2500 114.0000 147.0000 Du        
   5417 ****       153.2500 121.0000 135.7500 Du        
   5418 ****       153.2500 121.0000 136.0000 Du        
   5419 ****       153.2500 121.0000 136.2500 Du        
   5420 ****       153.2500 121.0000 136.5000 Du        
   5421 ****       153.2500 121.0000 136.7500 Du        
   5422 ****       153.2500 121.0000 137.0000 Du        
   5423 ****       153.2500 121.2500 135.7500 Du        
   5424 ****       153.2500 121.2500 136.0000 Du        
   5425 ****       153.2500 121.2500 136.2500 Du        
   5426 ****       153.2500 121.2500 136.5000 Du        
   5427 ****       153.2500 121.2500 136.7500 Du        
   5428 ****       153.2500 121.2500 137.0000 Du        
   5429 ****       153.2500 121.5000 135.7500 Du        
   5430 ****       153.2500 121.5000 136.0000 Du        
   5431 ****       153.2500 121.5000 136.2500 Du        
   5432 ****       153.2500 121.5000 136.5000 Du        
   5433 ****       153.2500 121.5000 136.7500 Du        
   5434 ****       153.2500 121.5000 137.0000 Du        
   5435 ****       153.2500 121.7500 135.7500 Du        
   5436 ****       153.2500 121.7500 136.0000 Du        
   5437 ****       153.2500 121.7500 136.2500 Du        
   5438 ****       153.2500 121.7500 136.5000 Du        
   5439 ****       153.2500 121.7500 136.7500 Du        
   5440 ****       153.2500 121.7500 137.0000 Du        
   5441 ****       153.2500 121.7500 137.2500 Du        
   5442 ****       153.2500 122.0000 136.0000 Du        
   5443 ****       153.2500 122.0000 136.2500 Du        
   5444 ****       153.2500 122.0000 136.5000 Du        
   5445 ****       153.2500 122.0000 136.7500 Du        
   5446 ****       153.2500 122.0000 137.0000 Du        
   5447 ****       153.2500 122.0000 137.2500 Du        
   5448 ****       153.2500 122.2500 136.0000 Du        
   5449 ****       153.2500 122.2500 136.2500 Du        
   5450 ****       153.2500 122.2500 136.5000 Du        
   5451 ****       153.2500 122.2500 136.7500 Du        
   5452 ****       153.2500 122.2500 137.0000 Du        
   5453 ****       153.2500 122.2500 137.2500 Du        
   5454 ****       153.2500 122.5000 136.0000 Du        
   5455 ****       153.2500 122.5000 136.2500 Du        
   5456 ****       153.2500 122.5000 136.5000 Du        
   5457 ****       153.2500 122.5000 136.7500 Du        
   5458 ****       153.2500 122.5000 137.0000 Du        
   5459 ****       153.2500 122.5000 137.2500 Du        
   5460 ****       153.2500 122.7500 136.2500 Du        
   5461 ****       153.2500 122.7500 136.5000 Du        
   5462 ****       153.2500 122.7500 136.7500 Du        
   5463 ****       153.2500 122.7500 137.0000 Du        
   5464 ****       153.2500 122.7500 137.2500 Du        
   5465 ****       153.2500 123.0000 136.2500 Du        
   5466 ****       153.2500 123.0000 136.5000 Du        
   5467 ****       153.2500 123.0000 136.7500 Du        
   5468 ****       153.2500 123.0000 137.0000 Du        
   5469 ****       153.2500 123.0000 137.2500 Du        
   5470 ****       153.2500 123.2500 136.7500 Du        
   5471 ****       153.2500 123.2500 137.0000 Du        
   5472 ****       153.5000 106.0000 127.7500 Du        
   5473 ****       153.5000 106.0000 128.0000 Du        
   5474 ****       153.5000 106.0000 128.2500 Du        
   5475 ****       153.5000 106.0000 128.5000 Du        
   5476 ****       153.5000 106.2500 127.5000 Du        
   5477 ****       153.5000 106.2500 127.7500 Du        
   5478 ****       153.5000 106.2500 128.0000 Du        
   5479 ****       153.5000 106.2500 128.2500 Du        
   5480 ****       153.5000 106.2500 128.5000 Du        
   5481 ****       153.5000 106.5000 127.2500 Du        
   5482 ****       153.5000 106.5000 127.5000 Du        
   5483 ****       153.5000 106.5000 127.7500 Du        
   5484 ****       153.5000 106.5000 128.0000 Du        
   5485 ****       153.5000 106.5000 128.2500 Du        
   5486 ****       153.5000 106.5000 128.5000 Du        
   5487 ****       153.5000 106.5000 128.7500 Du        
   5488 ****       153.5000 106.7500 126.7500 Du        
   5489 ****       153.5000 106.7500 127.0000 Du        
   5490 ****       153.5000 106.7500 127.2500 Du        
   5491 ****       153.5000 106.7500 127.5000 Du        
   5492 ****       153.5000 106.7500 127.7500 Du        
   5493 ****       153.5000 106.7500 128.0000 Du        
   5494 ****       153.5000 106.7500 128.2500 Du        
   5495 ****       153.5000 106.7500 128.5000 Du        
   5496 ****       153.5000 106.7500 128.7500 Du        
   5497 ****       153.5000 107.0000 126.5000 Du        
   5498 ****       153.5000 107.0000 126.7500 Du        
   5499 ****       153.5000 107.0000 127.0000 Du        
   5500 ****       153.5000 107.0000 127.2500 Du        
   5501 ****       153.5000 107.0000 127.5000 Du        
   5502 ****       153.5000 107.0000 127.7500 Du        
   5503 ****       153.5000 107.0000 128.0000 Du        
   5504 ****       153.5000 107.0000 128.2500 Du        
   5505 ****       153.5000 107.0000 128.5000 Du        
   5506 ****       153.5000 107.0000 128.7500 Du        
   5507 ****       153.5000 107.2500 126.5000 Du        
   5508 ****       153.5000 107.2500 126.7500 Du        
   5509 ****       153.5000 107.2500 127.0000 Du        
   5510 ****       153.5000 107.2500 127.2500 Du        
   5511 ****       153.5000 107.2500 127.5000 Du        
   5512 ****       153.5000 107.2500 127.7500 Du        
   5513 ****       153.5000 107.2500 128.0000 Du        
   5514 ****       153.5000 107.2500 128.2500 Du        
   5515 ****       153.5000 107.2500 128.5000 Du        
   5516 ****       153.5000 107.2500 128.7500 Du        
   5517 ****       153.5000 107.5000 126.5000 Du        
   5518 ****       153.5000 107.5000 126.7500 Du        
   5519 ****       153.5000 107.5000 127.0000 Du        
   5520 ****       153.5000 107.5000 127.2500 Du        
   5521 ****       153.5000 107.5000 127.5000 Du        
   5522 ****       153.5000 107.5000 127.7500 Du        
   5523 ****       153.5000 107.5000 128.0000 Du        
   5524 ****       153.5000 107.5000 128.2500 Du        
   5525 ****       153.5000 107.5000 128.5000 Du        
   5526 ****       153.5000 113.5000 146.2500 Du        
   5527 ****       153.5000 113.5000 146.5000 Du        
   5528 ****       153.5000 113.5000 146.7500 Du        
   5529 ****       153.5000 113.5000 147.0000 Du        
   5530 ****       153.5000 113.7500 146.2500 Du        
   5531 ****       153.5000 113.7500 146.5000 Du        
   5532 ****       153.5000 113.7500 146.7500 Du        
   5533 ****       153.5000 113.7500 147.0000 Du        
   5534 ****       153.5000 114.0000 146.5000 Du        
   5535 ****       153.5000 114.0000 146.7500 Du        
   5536 ****       153.5000 114.0000 147.0000 Du        
   5537 ****       153.5000 114.2500 146.7500 Du        
   5538 ****       153.5000 114.2500 147.0000 Du        
   5539 ****       153.5000 121.0000 136.0000 Du        
   5540 ****       153.5000 121.0000 136.2500 Du        
   5541 ****       153.5000 121.0000 136.5000 Du        
   5542 ****       153.5000 121.0000 136.7500 Du        
   5543 ****       153.5000 121.0000 137.0000 Du        
   5544 ****       153.5000 121.2500 136.0000 Du        
   5545 ****       153.5000 121.2500 136.2500 Du        
   5546 ****       153.5000 121.2500 136.5000 Du        
   5547 ****       153.5000 121.2500 136.7500 Du        
   5548 ****       153.5000 121.2500 137.0000 Du        
   5549 ****       153.5000 121.5000 136.0000 Du        
   5550 ****       153.5000 121.5000 136.2500 Du        
   5551 ****       153.5000 121.5000 136.5000 Du        
   5552 ****       153.5000 121.5000 136.7500 Du        
   5553 ****       153.5000 121.5000 137.0000 Du        
   5554 ****       153.5000 121.5000 137.2500 Du        
   5555 ****       153.5000 121.7500 136.0000 Du        
   5556 ****       153.5000 121.7500 136.2500 Du        
   5557 ****       153.5000 121.7500 136.5000 Du        
   5558 ****       153.5000 121.7500 136.7500 Du        
   5559 ****       153.5000 121.7500 137.0000 Du        
   5560 ****       153.5000 121.7500 137.2500 Du        
   5561 ****       153.5000 122.0000 136.2500 Du        
   5562 ****       153.5000 122.0000 136.5000 Du        
   5563 ****       153.5000 122.0000 136.7500 Du        
   5564 ****       153.5000 122.0000 137.0000 Du        
   5565 ****       153.5000 122.0000 137.2500 Du        
   5566 ****       153.5000 122.2500 136.2500 Du        
   5567 ****       153.5000 122.2500 136.5000 Du        
   5568 ****       153.5000 122.2500 136.7500 Du        
   5569 ****       153.5000 122.2500 137.0000 Du        
   5570 ****       153.5000 122.2500 137.2500 Du        
   5571 ****       153.5000 122.5000 136.2500 Du        
   5572 ****       153.5000 122.5000 136.5000 Du        
   5573 ****       153.5000 122.5000 136.7500 Du        
   5574 ****       153.5000 122.5000 137.0000 Du        
   5575 ****       153.5000 122.5000 137.2500 Du        
   5576 ****       153.5000 122.5000 137.5000 Du        
   5577 ****       153.5000 122.7500 136.2500 Du        
   5578 ****       153.5000 122.7500 136.5000 Du        
   5579 ****       153.5000 122.7500 136.7500 Du        
   5580 ****       153.5000 122.7500 137.0000 Du        
   5581 ****       153.5000 122.7500 137.2500 Du        
   5582 ****       153.5000 122.7500 137.5000 Du        
   5583 ****       153.5000 123.0000 136.5000 Du        
   5584 ****       153.5000 123.0000 136.7500 Du        
   5585 ****       153.5000 123.0000 137.0000 Du        
   5586 ****       153.5000 123.0000 137.2500 Du        
   5587 ****       153.5000 123.2500 136.7500 Du        
   5588 ****       153.5000 123.2500 137.0000 Du        
   5589 ****       153.5000 123.2500 137.2500 Du        
   5590 ****       153.5000 123.5000 137.0000 Du        
   5591 ****       153.7500 106.0000 127.7500 Du        
   5592 ****       153.7500 106.0000 128.0000 Du        
   5593 ****       153.7500 106.0000 128.2500 Du        
   5594 ****       153.7500 106.0000 128.5000 Du        
   5595 ****       153.7500 106.0000 128.7500 Du        
   5596 ****       153.7500 106.2500 127.5000 Du        
   5597 ****       153.7500 106.2500 127.7500 Du        
   5598 ****       153.7500 106.2500 128.0000 Du        
   5599 ****       153.7500 106.2500 128.2500 Du        
   5600 ****       153.7500 106.2500 128.5000 Du        
   5601 ****       153.7500 106.2500 128.7500 Du        
   5602 ****       153.7500 106.5000 127.0000 Du        
   5603 ****       153.7500 106.5000 127.2500 Du        
   5604 ****       153.7500 106.5000 127.5000 Du        
   5605 ****       153.7500 106.5000 127.7500 Du        
   5606 ****       153.7500 106.5000 128.0000 Du        
   5607 ****       153.7500 106.5000 128.2500 Du        
   5608 ****       153.7500 106.5000 128.5000 Du        
   5609 ****       153.7500 106.5000 128.7500 Du        
   5610 ****       153.7500 106.5000 129.0000 Du        
   5611 ****       153.7500 106.7500 126.7500 Du        
   5612 ****       153.7500 106.7500 127.0000 Du        
   5613 ****       153.7500 106.7500 127.2500 Du        
   5614 ****       153.7500 106.7500 127.5000 Du        
   5615 ****       153.7500 106.7500 127.7500 Du        
   5616 ****       153.7500 106.7500 128.0000 Du        
   5617 ****       153.7500 106.7500 128.2500 Du        
   5618 ****       153.7500 106.7500 128.5000 Du        
   5619 ****       153.7500 106.7500 128.7500 Du        
   5620 ****       153.7500 106.7500 129.0000 Du        
   5621 ****       153.7500 107.0000 126.5000 Du        
   5622 ****       153.7500 107.0000 126.7500 Du        
   5623 ****       153.7500 107.0000 127.0000 Du        
   5624 ****       153.7500 107.0000 127.2500 Du        
   5625 ****       153.7500 107.0000 127.5000 Du        
   5626 ****       153.7500 107.0000 127.7500 Du        
   5627 ****       153.7500 107.0000 128.0000 Du        
   5628 ****       153.7500 107.0000 128.2500 Du        
   5629 ****       153.7500 107.0000 128.5000 Du        
   5630 ****       153.7500 107.0000 128.7500 Du        
   5631 ****       153.7500 107.0000 129.0000 Du        
   5632 ****       153.7500 107.2500 126.5000 Du        
   5633 ****       153.7500 107.2500 126.7500 Du        
   5634 ****       153.7500 107.2500 127.0000 Du        
   5635 ****       153.7500 107.2500 127.2500 Du        
   5636 ****       153.7500 107.2500 127.5000 Du        
   5637 ****       153.7500 107.2500 127.7500 Du        
   5638 ****       153.7500 107.2500 128.0000 Du        
   5639 ****       153.7500 107.2500 128.2500 Du        
   5640 ****       153.7500 107.2500 128.5000 Du        
   5641 ****       153.7500 107.2500 128.7500 Du        
   5642 ****       153.7500 107.2500 129.0000 Du        
   5643 ****       153.7500 107.5000 126.5000 Du        
   5644 ****       153.7500 107.5000 126.7500 Du        
   5645 ****       153.7500 107.5000 127.0000 Du        
   5646 ****       153.7500 107.5000 127.2500 Du        
   5647 ****       153.7500 107.5000 127.5000 Du        
   5648 ****       153.7500 107.5000 127.7500 Du        
   5649 ****       153.7500 107.5000 128.0000 Du        
   5650 ****       153.7500 107.5000 128.2500 Du        
   5651 ****       153.7500 107.5000 128.5000 Du        
   5652 ****       153.7500 107.5000 128.7500 Du        
   5653 ****       153.7500 113.2500 146.7500 Du        
   5654 ****       153.7500 113.5000 146.5000 Du        
   5655 ****       153.7500 113.5000 146.7500 Du        
   5656 ****       153.7500 113.5000 147.0000 Du        
   5657 ****       153.7500 113.7500 146.2500 Du        
   5658 ****       153.7500 113.7500 146.5000 Du        
   5659 ****       153.7500 113.7500 146.7500 Du        
   5660 ****       153.7500 113.7500 147.0000 Du        
   5661 ****       153.7500 114.0000 146.2500 Du        
   5662 ****       153.7500 114.0000 146.5000 Du        
   5663 ****       153.7500 114.0000 146.7500 Du        
   5664 ****       153.7500 114.0000 147.0000 Du        
   5665 ****       153.7500 114.2500 146.5000 Du        
   5666 ****       153.7500 114.2500 146.7500 Du        
   5667 ****       153.7500 114.2500 147.0000 Du        
   5668 ****       153.7500 121.0000 136.0000 Du        
   5669 ****       153.7500 121.0000 136.2500 Du        
   5670 ****       153.7500 121.0000 136.5000 Du        
   5671 ****       153.7500 121.0000 136.7500 Du        
   5672 ****       153.7500 121.2500 136.0000 Du        
   5673 ****       153.7500 121.2500 136.2500 Du        
   5674 ****       153.7500 121.2500 136.5000 Du        
   5675 ****       153.7500 121.2500 136.7500 Du        
   5676 ****       153.7500 121.5000 136.2500 Du        
   5677 ****       153.7500 121.5000 136.5000 Du        
   5678 ****       153.7500 121.5000 136.7500 Du        
   5679 ****       153.7500 121.5000 137.0000 Du        
   5680 ****       153.7500 121.7500 136.2500 Du        
   5681 ****       153.7500 121.7500 136.5000 Du        
   5682 ****       153.7500 121.7500 136.7500 Du        
   5683 ****       153.7500 121.7500 137.0000 Du        
   5684 ****       153.7500 122.0000 136.5000 Du        
   5685 ****       153.7500 122.0000 136.7500 Du        
   5686 ****       153.7500 122.0000 137.0000 Du        
   5687 ****       153.7500 122.0000 137.2500 Du        
   5688 ****       153.7500 122.2500 136.5000 Du        
   5689 ****       153.7500 122.2500 136.7500 Du        
   5690 ****       153.7500 122.2500 137.0000 Du        
   5691 ****       153.7500 122.2500 137.2500 Du        
   5692 ****       153.7500 122.5000 136.5000 Du        
   5693 ****       153.7500 122.5000 136.7500 Du        
   5694 ****       153.7500 122.5000 137.0000 Du        
   5695 ****       153.7500 122.5000 137.2500 Du        
   5696 ****       153.7500 122.5000 137.5000 Du        
   5697 ****       153.7500 122.7500 136.5000 Du        
   5698 ****       153.7500 122.7500 136.7500 Du        
   5699 ****       153.7500 122.7500 137.0000 Du        
   5700 ****       153.7500 122.7500 137.2500 Du        
   5701 ****       153.7500 122.7500 137.5000 Du        
   5702 ****       153.7500 123.0000 136.7500 Du        
   5703 ****       153.7500 123.0000 137.0000 Du        
   5704 ****       153.7500 123.0000 137.2500 Du        
   5705 ****       153.7500 123.0000 137.5000 Du        
   5706 ****       153.7500 123.2500 136.7500 Du        
   5707 ****       153.7500 123.2500 137.0000 Du        
   5708 ****       153.7500 123.2500 137.2500 Du        
   5709 ****       153.7500 123.2500 137.5000 Du        
   5710 ****       153.7500 123.5000 137.0000 Du        
   5711 ****       153.7500 123.5000 137.2500 Du        
   5712 ****       153.7500 123.5000 137.5000 Du        
   5713 ****       154.0000 106.0000 127.7500 Du        
   5714 ****       154.0000 106.0000 128.0000 Du        
   5715 ****       154.0000 106.0000 128.2500 Du        
   5716 ****       154.0000 106.0000 128.5000 Du        
   5717 ****       154.0000 106.0000 128.7500 Du        
   5718 ****       154.0000 106.0000 129.0000 Du        
   5719 ****       154.0000 106.2500 127.5000 Du        
   5720 ****       154.0000 106.2500 127.7500 Du        
   5721 ****       154.0000 106.2500 128.0000 Du        
   5722 ****       154.0000 106.2500 128.2500 Du        
   5723 ****       154.0000 106.2500 128.5000 Du        
   5724 ****       154.0000 106.2500 128.7500 Du        
   5725 ****       154.0000 106.2500 129.0000 Du        
   5726 ****       154.0000 106.5000 127.0000 Du        
   5727 ****       154.0000 106.5000 127.2500 Du        
   5728 ****       154.0000 106.5000 127.5000 Du        
   5729 ****       154.0000 106.5000 127.7500 Du        
   5730 ****       154.0000 106.5000 128.0000 Du        
   5731 ****       154.0000 106.5000 128.2500 Du        
   5732 ****       154.0000 106.5000 128.5000 Du        
   5733 ****       154.0000 106.5000 128.7500 Du        
   5734 ****       154.0000 106.5000 129.0000 Du        
   5735 ****       154.0000 106.7500 126.7500 Du        
   5736 ****       154.0000 106.7500 127.0000 Du        
   5737 ****       154.0000 106.7500 127.2500 Du        
   5738 ****       154.0000 106.7500 127.5000 Du        
   5739 ****       154.0000 106.7500 127.7500 Du        
   5740 ****       154.0000 106.7500 128.0000 Du        
   5741 ****       154.0000 106.7500 128.2500 Du        
   5742 ****       154.0000 106.7500 128.5000 Du        
   5743 ****       154.0000 106.7500 128.7500 Du        
   5744 ****       154.0000 106.7500 129.0000 Du        
   5745 ****       154.0000 107.0000 126.5000 Du        
   5746 ****       154.0000 107.0000 126.7500 Du        
   5747 ****       154.0000 107.0000 127.0000 Du        
   5748 ****       154.0000 107.0000 127.2500 Du        
   5749 ****       154.0000 107.0000 127.5000 Du        
   5750 ****       154.0000 107.0000 127.7500 Du        
   5751 ****       154.0000 107.0000 128.0000 Du        
   5752 ****       154.0000 107.0000 128.2500 Du        
   5753 ****       154.0000 107.0000 128.5000 Du        
   5754 ****       154.0000 107.0000 128.7500 Du        
   5755 ****       154.0000 107.0000 129.0000 Du        
   5756 ****       154.0000 107.2500 126.5000 Du        
   5757 ****       154.0000 107.2500 126.7500 Du        
   5758 ****       154.0000 107.2500 127.0000 Du        
   5759 ****       154.0000 107.2500 127.2500 Du        
   5760 ****       154.0000 107.2500 127.5000 Du        
   5761 ****       154.0000 107.2500 127.7500 Du        
   5762 ****       154.0000 107.2500 128.0000 Du        
   5763 ****       154.0000 107.2500 128.2500 Du        
   5764 ****       154.0000 107.2500 128.5000 Du        
   5765 ****       154.0000 107.2500 128.7500 Du        
   5766 ****       154.0000 107.2500 129.0000 Du        
   5767 ****       154.0000 107.5000 126.7500 Du        
   5768 ****       154.0000 107.5000 127.0000 Du        
   5769 ****       154.0000 107.5000 127.2500 Du        
   5770 ****       154.0000 107.5000 127.5000 Du        
   5771 ****       154.0000 107.5000 127.7500 Du        
   5772 ****       154.0000 107.5000 128.0000 Du        
   5773 ****       154.0000 107.5000 128.2500 Du        
   5774 ****       154.0000 107.5000 128.5000 Du        
   5775 ****       154.0000 107.5000 128.7500 Du        
   5776 ****       154.0000 107.7500 128.0000 Du        
   5777 ****       154.0000 107.7500 128.2500 Du        
   5778 ****       154.0000 107.7500 128.5000 Du        
   5779 ****       154.0000 113.2500 146.7500 Du        
   5780 ****       154.0000 113.2500 147.0000 Du        
   5781 ****       154.0000 113.5000 146.5000 Du        
   5782 ****       154.0000 113.5000 146.7500 Du        
   5783 ****       154.0000 113.5000 147.0000 Du        
   5784 ****       154.0000 113.7500 146.2500 Du        
   5785 ****       154.0000 113.7500 146.5000 Du        
   5786 ****       154.0000 113.7500 146.7500 Du        
   5787 ****       154.0000 113.7500 147.0000 Du        
   5788 ****       154.0000 113.7500 147.2500 Du        
   5789 ****       154.0000 114.0000 146.2500 Du        
   5790 ****       154.0000 114.0000 146.5000 Du        
   5791 ****       154.0000 114.0000 146.7500 Du        
   5792 ****       154.0000 114.0000 147.0000 Du        
   5793 ****       154.0000 114.0000 147.2500 Du        
   5794 ****       154.0000 114.2500 146.5000 Du        
   5795 ****       154.0000 114.2500 146.7500 Du        
   5796 ****       154.0000 114.2500 147.0000 Du        
   5797 ****       154.0000 114.2500 147.2500 Du        
   5798 ****       154.0000 114.5000 146.7500 Du        
   5799 ****       154.0000 114.5000 147.0000 Du        
   5800 ****       154.0000 120.7500 136.2500 Du        
   5801 ****       154.0000 121.0000 136.2500 Du        
   5802 ****       154.0000 121.0000 136.5000 Du        
   5803 ****       154.0000 121.0000 136.7500 Du        
   5804 ****       154.0000 121.2500 136.2500 Du        
   5805 ****       154.0000 121.2500 136.5000 Du        
   5806 ****       154.0000 121.2500 136.7500 Du        
   5807 ****       154.0000 121.5000 136.5000 Du        
   5808 ****       154.0000 121.5000 136.7500 Du        
   5809 ****       154.0000 121.7500 136.5000 Du        
   5810 ****       154.0000 121.7500 136.7500 Du        
   5811 ****       154.0000 121.7500 137.0000 Du        
   5812 ****       154.0000 122.0000 136.5000 Du        
   5813 ****       154.0000 122.0000 136.7500 Du        
   5814 ****       154.0000 122.0000 137.0000 Du        
   5815 ****       154.0000 122.2500 136.7500 Du        
   5816 ****       154.0000 122.2500 137.0000 Du        
   5817 ****       154.0000 122.2500 137.2500 Du        
   5818 ****       154.0000 122.5000 136.7500 Du        
   5819 ****       154.0000 122.5000 137.0000 Du        
   5820 ****       154.0000 122.5000 137.2500 Du        
   5821 ****       154.0000 122.7500 136.7500 Du        
   5822 ****       154.0000 122.7500 137.0000 Du        
   5823 ****       154.0000 122.7500 137.2500 Du        
   5824 ****       154.0000 122.7500 137.5000 Du        
   5825 ****       154.0000 123.0000 136.7500 Du        
   5826 ****       154.0000 123.0000 137.0000 Du        
   5827 ****       154.0000 123.0000 137.2500 Du        
   5828 ****       154.0000 123.0000 137.5000 Du        
   5829 ****       154.0000 123.2500 136.7500 Du        
   5830 ****       154.0000 123.2500 137.0000 Du        
   5831 ****       154.0000 123.2500 137.2500 Du        
   5832 ****       154.0000 123.2500 137.5000 Du        
   5833 ****       154.0000 123.2500 137.7500 Du        
   5834 ****       154.0000 123.5000 137.0000 Du        
   5835 ****       154.0000 123.5000 137.2500 Du        
   5836 ****       154.0000 123.5000 137.5000 Du        
   5837 ****       154.0000 123.5000 137.7500 Du        
   5838 ****       154.2500 106.0000 128.0000 Du        
   5839 ****       154.2500 106.0000 128.2500 Du        
   5840 ****       154.2500 106.0000 128.5000 Du        
   5841 ****       154.2500 106.0000 128.7500 Du        
   5842 ****       154.2500 106.0000 129.0000 Du        
   5843 ****       154.2500 106.2500 127.7500 Du        
   5844 ****       154.2500 106.2500 128.0000 Du        
   5845 ****       154.2500 106.2500 128.2500 Du        
   5846 ****       154.2500 106.2500 128.5000 Du        
   5847 ****       154.2500 106.2500 128.7500 Du        
   5848 ****       154.2500 106.2500 129.0000 Du        
   5849 ****       154.2500 106.5000 127.0000 Du        
   5850 ****       154.2500 106.5000 127.2500 Du        
   5851 ****       154.2500 106.5000 127.5000 Du        
   5852 ****       154.2500 106.5000 127.7500 Du        
   5853 ****       154.2500 106.5000 128.0000 Du        
   5854 ****       154.2500 106.5000 128.2500 Du        
   5855 ****       154.2500 106.5000 128.5000 Du        
   5856 ****       154.2500 106.5000 128.7500 Du        
   5857 ****       154.2500 106.5000 129.0000 Du        
   5858 ****       154.2500 106.7500 126.7500 Du        
   5859 ****       154.2500 106.7500 127.0000 Du        
   5860 ****       154.2500 106.7500 127.2500 Du        
   5861 ****       154.2500 106.7500 127.5000 Du        
   5862 ****       154.2500 106.7500 127.7500 Du        
   5863 ****       154.2500 106.7500 128.0000 Du        
   5864 ****       154.2500 106.7500 128.2500 Du        
   5865 ****       154.2500 106.7500 128.5000 Du        
   5866 ****       154.2500 106.7500 128.7500 Du        
   5867 ****       154.2500 106.7500 129.0000 Du        
   5868 ****       154.2500 107.0000 126.5000 Du        
   5869 ****       154.2500 107.0000 126.7500 Du        
   5870 ****       154.2500 107.0000 127.0000 Du        
   5871 ****       154.2500 107.0000 127.2500 Du        
   5872 ****       154.2500 107.0000 127.5000 Du        
   5873 ****       154.2500 107.0000 127.7500 Du        
   5874 ****       154.2500 107.0000 128.0000 Du        
   5875 ****       154.2500 107.0000 128.2500 Du        
   5876 ****       154.2500 107.0000 128.5000 Du        
   5877 ****       154.2500 107.0000 128.7500 Du        
   5878 ****       154.2500 107.2500 126.5000 Du        
   5879 ****       154.2500 107.2500 126.7500 Du        
   5880 ****       154.2500 107.2500 127.0000 Du        
   5881 ****       154.2500 107.2500 127.2500 Du        
   5882 ****       154.2500 107.2500 127.5000 Du        
   5883 ****       154.2500 107.2500 127.7500 Du        
   5884 ****       154.2500 107.2500 128.0000 Du        
   5885 ****       154.2500 107.2500 128.2500 Du        
   5886 ****       154.2500 107.2500 128.5000 Du        
   5887 ****       154.2500 107.2500 128.7500 Du        
   5888 ****       154.2500 107.5000 126.5000 Du        
   5889 ****       154.2500 107.5000 126.7500 Du        
   5890 ****       154.2500 107.5000 127.0000 Du        
   5891 ****       154.2500 107.5000 127.2500 Du        
   5892 ****       154.2500 107.5000 127.5000 Du        
   5893 ****       154.2500 107.5000 127.7500 Du        
   5894 ****       154.2500 107.5000 128.0000 Du        
   5895 ****       154.2500 107.5000 128.2500 Du        
   5896 ****       154.2500 107.5000 128.5000 Du        
   5897 ****       154.2500 107.5000 128.7500 Du        
   5898 ****       154.2500 107.7500 127.7500 Du        
   5899 ****       154.2500 107.7500 128.0000 Du        
   5900 ****       154.2500 107.7500 128.2500 Du        
   5901 ****       154.2500 107.7500 128.5000 Du        
   5902 ****       154.2500 113.2500 146.7500 Du        
   5903 ****       154.2500 113.2500 147.0000 Du        
   5904 ****       154.2500 113.5000 146.5000 Du        
   5905 ****       154.2500 113.5000 146.7500 Du        
   5906 ****       154.2500 113.5000 147.0000 Du        
   5907 ****       154.2500 113.7500 146.2500 Du        
   5908 ****       154.2500 113.7500 146.5000 Du        
   5909 ****       154.2500 113.7500 146.7500 Du        
   5910 ****       154.2500 113.7500 147.0000 Du        
   5911 ****       154.2500 113.7500 147.2500 Du        
   5912 ****       154.2500 114.0000 146.2500 Du        
   5913 ****       154.2500 114.0000 146.5000 Du        
   5914 ****       154.2500 114.0000 146.7500 Du        
   5915 ****       154.2500 114.0000 147.0000 Du        
   5916 ****       154.2500 114.0000 147.2500 Du        
   5917 ****       154.2500 114.2500 146.2500 Du        
   5918 ****       154.2500 114.2500 146.5000 Du        
   5919 ****       154.2500 114.2500 146.7500 Du        
   5920 ****       154.2500 114.2500 147.0000 Du        
   5921 ****       154.2500 114.2500 147.2500 Du        
   5922 ****       154.2500 114.5000 146.5000 Du        
   5923 ****       154.2500 114.5000 146.7500 Du        
   5924 ****       154.2500 114.5000 147.0000 Du        
   5925 ****       154.2500 114.5000 147.2500 Du        
   5926 ****       154.2500 121.0000 136.2500 Du        
   5927 ****       154.2500 122.2500 136.7500 Du        
   5928 ****       154.2500 122.2500 137.0000 Du        
   5929 ****       154.2500 122.5000 137.0000 Du        
   5930 ****       154.2500 122.5000 137.2500 Du        
   5931 ****       154.2500 122.7500 137.0000 Du        
   5932 ****       154.2500 122.7500 137.2500 Du        
   5933 ****       154.2500 122.7500 137.5000 Du        
   5934 ****       154.2500 123.0000 137.0000 Du        
   5935 ****       154.2500 123.0000 137.2500 Du        
   5936 ****       154.2500 123.0000 137.5000 Du        
   5937 ****       154.2500 123.0000 137.7500 Du        
   5938 ****       154.2500 123.2500 137.0000 Du        
   5939 ****       154.2500 123.2500 137.2500 Du        
   5940 ****       154.2500 123.2500 137.5000 Du        
   5941 ****       154.2500 123.2500 137.7500 Du        
   5942 ****       154.2500 123.5000 137.2500 Du        
   5943 ****       154.2500 123.5000 137.5000 Du        
   5944 ****       154.2500 123.5000 137.7500 Du        
   5945 ****       154.5000 106.0000 128.5000 Du        
   5946 ****       154.5000 106.0000 128.7500 Du        
   5947 ****       154.5000 106.2500 128.5000 Du        
   5948 ****       154.5000 106.2500 128.7500 Du        
   5949 ****       154.5000 106.5000 127.0000 Du        
   5950 ****       154.5000 106.5000 127.2500 Du        
   5951 ****       154.5000 106.5000 127.5000 Du        
   5952 ****       154.5000 106.5000 127.7500 Du        
   5953 ****       154.5000 106.5000 128.0000 Du        
   5954 ****       154.5000 106.5000 128.2500 Du        
   5955 ****       154.5000 106.5000 128.5000 Du        
   5956 ****       154.5000 106.5000 128.7500 Du        
   5957 ****       154.5000 106.7500 126.7500 Du        
   5958 ****       154.5000 106.7500 127.0000 Du        
   5959 ****       154.5000 106.7500 127.2500 Du        
   5960 ****       154.5000 106.7500 127.5000 Du        
   5961 ****       154.5000 106.7500 127.7500 Du        
   5962 ****       154.5000 106.7500 128.0000 Du        
   5963 ****       154.5000 106.7500 128.2500 Du        
   5964 ****       154.5000 106.7500 128.5000 Du        
   5965 ****       154.5000 106.7500 128.7500 Du        
   5966 ****       154.5000 107.0000 126.7500 Du        
   5967 ****       154.5000 107.0000 127.0000 Du        
   5968 ****       154.5000 107.0000 127.2500 Du        
   5969 ****       154.5000 107.0000 127.5000 Du        
   5970 ****       154.5000 107.0000 127.7500 Du        
   5971 ****       154.5000 107.0000 128.0000 Du        
   5972 ****       154.5000 107.0000 128.2500 Du        
   5973 ****       154.5000 107.0000 128.5000 Du        
   5974 ****       154.5000 107.0000 128.7500 Du        
   5975 ****       154.5000 107.2500 126.5000 Du        
   5976 ****       154.5000 107.2500 126.7500 Du        
   5977 ****       154.5000 107.2500 127.0000 Du        
   5978 ****       154.5000 107.2500 127.2500 Du        
   5979 ****       154.5000 107.2500 127.5000 Du        
   5980 ****       154.5000 107.2500 127.7500 Du        
   5981 ****       154.5000 107.2500 128.0000 Du        
   5982 ****       154.5000 107.2500 128.2500 Du        
   5983 ****       154.5000 107.2500 128.5000 Du        
   5984 ****       154.5000 107.2500 128.7500 Du        
   5985 ****       154.5000 107.5000 126.7500 Du        
   5986 ****       154.5000 107.5000 127.0000 Du        
   5987 ****       154.5000 107.5000 127.2500 Du        
   5988 ****       154.5000 107.5000 127.5000 Du        
   5989 ****       154.5000 107.5000 127.7500 Du        
   5990 ****       154.5000 107.5000 128.0000 Du        
   5991 ****       154.5000 107.5000 128.2500 Du        
   5992 ****       154.5000 107.5000 128.5000 Du        
   5993 ****       154.5000 107.7500 127.7500 Du        
   5994 ****       154.5000 107.7500 128.0000 Du        
   5995 ****       154.5000 107.7500 128.2500 Du        
   5996 ****       154.5000 107.7500 128.5000 Du        
   5997 ****       154.5000 113.5000 146.5000 Du        
   5998 ****       154.5000 113.5000 146.7500 Du        
   5999 ****       154.5000 113.5000 147.0000 Du        
   6000 ****       154.5000 113.7500 146.5000 Du        
   6001 ****       154.5000 113.7500 146.7500 Du        
   6002 ****       154.5000 113.7500 147.0000 Du        
   6003 ****       154.5000 113.7500 147.2500 Du        
   6004 ****       154.5000 114.0000 146.2500 Du        
   6005 ****       154.5000 114.0000 146.5000 Du        
   6006 ****       154.5000 114.0000 146.7500 Du        
   6007 ****       154.5000 114.0000 147.0000 Du        
   6008 ****       154.5000 114.0000 147.2500 Du        
   6009 ****       154.5000 114.2500 146.2500 Du        
   6010 ****       154.5000 114.2500 146.5000 Du        
   6011 ****       154.5000 114.2500 146.7500 Du        
   6012 ****       154.5000 114.2500 147.0000 Du        
   6013 ****       154.5000 114.2500 147.2500 Du        
   6014 ****       154.5000 114.5000 146.5000 Du        
   6015 ****       154.5000 114.5000 146.7500 Du        
   6016 ****       154.5000 114.5000 147.0000 Du        
   6017 ****       154.5000 114.5000 147.2500 Du        
   6018 ****       154.5000 122.7500 137.0000 Du        
   6019 ****       154.5000 122.7500 137.2500 Du        
   6020 ****       154.5000 123.0000 137.0000 Du        
   6021 ****       154.5000 123.0000 137.2500 Du        
   6022 ****       154.5000 123.0000 137.5000 Du        
   6023 ****       154.5000 123.2500 137.0000 Du        
   6024 ****       154.5000 123.2500 137.2500 Du        
   6025 ****       154.5000 123.2500 137.5000 Du        
   6026 ****       154.5000 123.2500 137.7500 Du        
   6027 ****       154.5000 123.5000 137.2500 Du        
   6028 ****       154.5000 123.5000 137.5000 Du        
   6029 ****       154.5000 123.5000 137.7500 Du        
   6030 ****       154.5000 123.5000 138.0000 Du        
   6031 ****       154.7500 103.0000 148.0000 Du        
   6032 ****       154.7500 103.0000 148.2500 Du        
   6033 ****       154.7500 103.2500 148.0000 Du        
   6034 ****       154.7500 103.2500 148.2500 Du        
   6035 ****       154.7500 103.2500 148.5000 Du        
   6036 ****       154.7500 103.5000 148.2500 Du        
   6037 ****       154.7500 103.7500 148.7500 Du        
   6038 ****       154.7500 103.7500 149.0000 Du        
   6039 ****       154.7500 106.2500 128.2500 Du        
   6040 ****       154.7500 106.2500 128.5000 Du        
   6041 ****       154.7500 106.5000 127.0000 Du        
   6042 ****       154.7500 106.5000 127.2500 Du        
   6043 ****       154.7500 106.5000 127.5000 Du        
   6044 ****       154.7500 106.5000 127.7500 Du        
   6045 ****       154.7500 106.5000 128.0000 Du        
   6046 ****       154.7500 106.5000 128.2500 Du        
   6047 ****       154.7500 106.5000 128.5000 Du        
   6048 ****       154.7500 106.7500 126.7500 Du        
   6049 ****       154.7500 106.7500 127.0000 Du        
   6050 ****       154.7500 106.7500 127.2500 Du        
   6051 ****       154.7500 106.7500 127.5000 Du        
   6052 ****       154.7500 106.7500 127.7500 Du        
   6053 ****       154.7500 106.7500 128.0000 Du        
   6054 ****       154.7500 106.7500 128.2500 Du        
   6055 ****       154.7500 106.7500 128.5000 Du        
   6056 ****       154.7500 107.0000 126.5000 Du        
   6057 ****       154.7500 107.0000 126.7500 Du        
   6058 ****       154.7500 107.0000 127.0000 Du        
   6059 ****       154.7500 107.0000 127.2500 Du        
   6060 ****       154.7500 107.0000 127.5000 Du        
   6061 ****       154.7500 107.0000 127.7500 Du        
   6062 ****       154.7500 107.0000 128.0000 Du        
   6063 ****       154.7500 107.0000 128.2500 Du        
   6064 ****       154.7500 107.0000 128.5000 Du        
   6065 ****       154.7500 107.2500 126.5000 Du        
   6066 ****       154.7500 107.2500 126.7500 Du        
   6067 ****       154.7500 107.2500 127.0000 Du        
   6068 ****       154.7500 107.2500 127.2500 Du        
   6069 ****       154.7500 107.2500 127.5000 Du        
   6070 ****       154.7500 107.2500 127.7500 Du        
   6071 ****       154.7500 107.2500 128.0000 Du        
   6072 ****       154.7500 107.2500 128.2500 Du        
   6073 ****       154.7500 107.2500 128.5000 Du        
   6074 ****       154.7500 107.5000 126.5000 Du        
   6075 ****       154.7500 107.5000 126.7500 Du        
   6076 ****       154.7500 107.5000 127.0000 Du        
   6077 ****       154.7500 107.5000 127.2500 Du        
   6078 ****       154.7500 107.5000 127.5000 Du        
   6079 ****       154.7500 107.5000 127.7500 Du        
   6080 ****       154.7500 107.5000 128.0000 Du        
   6081 ****       154.7500 107.5000 128.2500 Du        
   6082 ****       154.7500 107.5000 128.5000 Du        
   6083 ****       154.7500 107.7500 127.2500 Du        
   6084 ****       154.7500 107.7500 127.5000 Du        
   6085 ****       154.7500 107.7500 127.7500 Du        
   6086 ****       154.7500 107.7500 128.0000 Du        
   6087 ****       154.7500 107.7500 128.2500 Du        
   6088 ****       154.7500 107.7500 128.5000 Du        
   6089 ****       154.7500 113.5000 146.7500 Du        
   6090 ****       154.7500 113.5000 147.0000 Du        
   6091 ****       154.7500 113.5000 147.2500 Du        
   6092 ****       154.7500 113.7500 146.5000 Du        
   6093 ****       154.7500 113.7500 146.7500 Du        
   6094 ****       154.7500 113.7500 147.0000 Du        
   6095 ****       154.7500 113.7500 147.2500 Du        
   6096 ****       154.7500 114.0000 146.2500 Du        
   6097 ****       154.7500 114.0000 146.5000 Du        
   6098 ****       154.7500 114.0000 146.7500 Du        
   6099 ****       154.7500 114.0000 147.0000 Du        
   6100 ****       154.7500 114.0000 147.2500 Du        
   6101 ****       154.7500 114.2500 146.2500 Du        
   6102 ****       154.7500 114.2500 146.5000 Du        
   6103 ****       154.7500 114.2500 146.7500 Du        
   6104 ****       154.7500 114.2500 147.0000 Du        
   6105 ****       154.7500 114.2500 147.2500 Du        
   6106 ****       154.7500 114.5000 146.5000 Du        
   6107 ****       154.7500 114.5000 146.7500 Du        
   6108 ****       154.7500 114.5000 147.0000 Du        
   6109 ****       154.7500 114.5000 147.2500 Du        
   6110 ****       154.7500 114.7500 146.5000 Du        
   6111 ****       154.7500 114.7500 146.7500 Du        
   6112 ****       154.7500 114.7500 147.0000 Du        
   6113 ****       154.7500 123.0000 137.0000 Du        
   6114 ****       154.7500 123.0000 137.2500 Du        
   6115 ****       154.7500 123.0000 137.5000 Du        
   6116 ****       154.7500 123.2500 137.2500 Du        
   6117 ****       154.7500 123.2500 137.5000 Du        
   6118 ****       154.7500 123.2500 137.7500 Du        
   6119 ****       154.7500 123.5000 137.2500 Du        
   6120 ****       154.7500 123.5000 137.5000 Du        
   6121 ****       154.7500 123.5000 137.7500 Du        
   6122 ****       154.7500 123.5000 138.0000 Du        
   6123 ****       155.0000 102.7500 147.7500 Du        
   6124 ****       155.0000 102.7500 148.0000 Du        
   6125 ****       155.0000 103.0000 147.7500 Du        
   6126 ****       155.0000 103.0000 148.0000 Du        
   6127 ****       155.0000 103.0000 148.2500 Du        
   6128 ****       155.0000 103.2500 147.7500 Du        
   6129 ****       155.0000 103.2500 148.0000 Du        
   6130 ****       155.0000 103.2500 148.2500 Du        
   6131 ****       155.0000 103.2500 148.5000 Du        
   6132 ****       155.0000 103.5000 148.0000 Du        
   6133 ****       155.0000 103.5000 148.2500 Du        
   6134 ****       155.0000 103.5000 148.5000 Du        
   6135 ****       155.0000 103.5000 148.7500 Du        
   6136 ****       155.0000 103.7500 148.0000 Du        
   6137 ****       155.0000 103.7500 148.2500 Du        
   6138 ****       155.0000 103.7500 148.5000 Du        
   6139 ****       155.0000 103.7500 148.7500 Du        
   6140 ****       155.0000 103.7500 149.0000 Du        
   6141 ****       155.0000 104.0000 148.2500 Du        
   6142 ****       155.0000 104.0000 148.5000 Du        
   6143 ****       155.0000 104.0000 148.7500 Du        
   6144 ****       155.0000 104.0000 149.0000 Du        
   6145 ****       155.0000 106.2500 128.0000 Du        
   6146 ****       155.0000 106.2500 128.2500 Du        
   6147 ****       155.0000 106.5000 127.0000 Du        
   6148 ****       155.0000 106.5000 127.2500 Du        
   6149 ****       155.0000 106.5000 127.5000 Du        
   6150 ****       155.0000 106.5000 127.7500 Du        
   6151 ****       155.0000 106.5000 128.0000 Du        
   6152 ****       155.0000 106.5000 128.2500 Du        
   6153 ****       155.0000 106.5000 128.5000 Du        
   6154 ****       155.0000 106.7500 126.7500 Du        
   6155 ****       155.0000 106.7500 127.0000 Du        
   6156 ****       155.0000 106.7500 127.2500 Du        
   6157 ****       155.0000 106.7500 127.5000 Du        
   6158 ****       155.0000 106.7500 127.7500 Du        
   6159 ****       155.0000 106.7500 128.0000 Du        
   6160 ****       155.0000 106.7500 128.2500 Du        
   6161 ****       155.0000 106.7500 128.5000 Du        
   6162 ****       155.0000 107.0000 126.5000 Du        
   6163 ****       155.0000 107.0000 126.7500 Du        
   6164 ****       155.0000 107.0000 127.0000 Du        
   6165 ****       155.0000 107.0000 127.2500 Du        
   6166 ****       155.0000 107.0000 127.5000 Du        
   6167 ****       155.0000 107.0000 127.7500 Du        
   6168 ****       155.0000 107.0000 128.0000 Du        
   6169 ****       155.0000 107.0000 128.2500 Du        
   6170 ****       155.0000 107.0000 128.5000 Du        
   6171 ****       155.0000 107.2500 126.5000 Du        
   6172 ****       155.0000 107.2500 126.7500 Du        
   6173 ****       155.0000 107.2500 127.0000 Du        
   6174 ****       155.0000 107.2500 127.2500 Du        
   6175 ****       155.0000 107.2500 127.5000 Du        
   6176 ****       155.0000 107.2500 127.7500 Du        
   6177 ****       155.0000 107.2500 128.0000 Du        
   6178 ****       155.0000 107.2500 128.2500 Du        
   6179 ****       155.0000 107.2500 128.5000 Du        
   6180 ****       155.0000 107.5000 126.5000 Du        
   6181 ****       155.0000 107.5000 126.7500 Du        
   6182 ****       155.0000 107.5000 127.0000 Du        
   6183 ****       155.0000 107.5000 127.2500 Du        
   6184 ****       155.0000 107.5000 127.5000 Du        
   6185 ****       155.0000 107.5000 127.7500 Du        
   6186 ****       155.0000 107.5000 128.0000 Du        
   6187 ****       155.0000 107.5000 128.2500 Du        
   6188 ****       155.0000 107.5000 128.5000 Du        
   6189 ****       155.0000 107.7500 127.2500 Du        
   6190 ****       155.0000 107.7500 127.5000 Du        
   6191 ****       155.0000 107.7500 127.7500 Du        
   6192 ****       155.0000 107.7500 128.0000 Du        
   6193 ****       155.0000 107.7500 128.2500 Du        
   6194 ****       155.0000 108.0000 128.0000 Du        
   6195 ****       155.0000 109.5000 152.7500 Du        
   6196 ****       155.0000 109.5000 153.0000 Du        
   6197 ****       155.0000 113.5000 146.7500 Du        
   6198 ****       155.0000 113.5000 147.0000 Du        
   6199 ****       155.0000 113.7500 146.5000 Du        
   6200 ****       155.0000 113.7500 146.7500 Du        
   6201 ****       155.0000 113.7500 147.0000 Du        
   6202 ****       155.0000 113.7500 147.2500 Du        
   6203 ****       155.0000 114.0000 146.2500 Du        
   6204 ****       155.0000 114.0000 146.5000 Du        
   6205 ****       155.0000 114.0000 146.7500 Du        
   6206 ****       155.0000 114.0000 147.0000 Du        
   6207 ****       155.0000 114.0000 147.2500 Du        
   6208 ****       155.0000 114.0000 147.5000 Du        
   6209 ****       155.0000 114.2500 146.2500 Du        
   6210 ****       155.0000 114.2500 146.5000 Du        
   6211 ****       155.0000 114.2500 146.7500 Du        
   6212 ****       155.0000 114.2500 147.0000 Du        
   6213 ****       155.0000 114.2500 147.2500 Du        
   6214 ****       155.0000 114.5000 146.2500 Du        
   6215 ****       155.0000 114.5000 146.5000 Du        
   6216 ****       155.0000 114.5000 146.7500 Du        
   6217 ****       155.0000 114.5000 147.0000 Du        
   6218 ****       155.0000 114.5000 147.2500 Du        
   6219 ****       155.0000 114.7500 146.2500 Du        
   6220 ****       155.0000 114.7500 146.5000 Du        
   6221 ****       155.0000 114.7500 146.7500 Du        
   6222 ****       155.0000 114.7500 147.0000 Du        
   6223 ****       155.0000 114.7500 147.2500 Du        
   6224 ****       155.0000 115.0000 146.7500 Du        
   6225 ****       155.0000 123.2500 137.2500 Du        
   6226 ****       155.0000 123.2500 137.5000 Du        
   6227 ****       155.0000 123.5000 137.5000 Du        
   6228 ****       155.0000 123.5000 137.7500 Du        
   6229 ****       155.2500 102.2500 147.5000 Du        
   6230 ****       155.2500 102.2500 147.7500 Du        
   6231 ****       155.2500 102.5000 147.5000 Du        
   6232 ****       155.2500 102.5000 147.7500 Du        
   6233 ****       155.2500 102.5000 148.0000 Du        
   6234 ****       155.2500 102.7500 147.5000 Du        
   6235 ****       155.2500 102.7500 147.7500 Du        
   6236 ****       155.2500 102.7500 148.0000 Du        
   6237 ****       155.2500 103.0000 147.5000 Du        
   6238 ****       155.2500 103.0000 147.7500 Du        
   6239 ****       155.2500 103.0000 148.0000 Du        
   6240 ****       155.2500 103.0000 148.2500 Du        
   6241 ****       155.2500 103.2500 147.5000 Du        
   6242 ****       155.2500 103.2500 147.7500 Du        
   6243 ****       155.2500 103.2500 148.0000 Du        
   6244 ****       155.2500 103.2500 148.2500 Du        
   6245 ****       155.2500 103.2500 148.5000 Du        
   6246 ****       155.2500 103.5000 147.7500 Du        
   6247 ****       155.2500 103.5000 148.0000 Du        
   6248 ****       155.2500 103.5000 148.2500 Du        
   6249 ****       155.2500 103.5000 148.5000 Du        
   6250 ****       155.2500 103.7500 147.7500 Du        
   6251 ****       155.2500 103.7500 148.0000 Du        
   6252 ****       155.2500 103.7500 148.2500 Du        
   6253 ****       155.2500 103.7500 148.5000 Du        
   6254 ****       155.2500 103.7500 148.7500 Du        
   6255 ****       155.2500 104.0000 147.7500 Du        
   6256 ****       155.2500 104.0000 148.0000 Du        
   6257 ****       155.2500 104.0000 148.2500 Du        
   6258 ****       155.2500 104.0000 148.5000 Du        
   6259 ****       155.2500 104.0000 148.7500 Du        
   6260 ****       155.2500 104.2500 148.7500 Du        
   6261 ****       155.2500 106.2500 128.0000 Du        
   6262 ****       155.2500 106.5000 127.0000 Du        
   6263 ****       155.2500 106.5000 127.2500 Du        
   6264 ****       155.2500 106.5000 127.5000 Du        
   6265 ****       155.2500 106.5000 127.7500 Du        
   6266 ****       155.2500 106.5000 128.0000 Du        
   6267 ****       155.2500 106.5000 128.2500 Du        
   6268 ****       155.2500 106.5000 128.5000 Du        
   6269 ****       155.2500 106.7500 126.7500 Du        
   6270 ****       155.2500 106.7500 127.0000 Du        
   6271 ****       155.2500 106.7500 127.2500 Du        
   6272 ****       155.2500 106.7500 127.5000 Du        
   6273 ****       155.2500 106.7500 127.7500 Du        
   6274 ****       155.2500 106.7500 128.0000 Du        
   6275 ****       155.2500 106.7500 128.2500 Du        
   6276 ****       155.2500 106.7500 128.5000 Du        
   6277 ****       155.2500 107.0000 126.7500 Du        
   6278 ****       155.2500 107.0000 127.0000 Du        
   6279 ****       155.2500 107.0000 127.2500 Du        
   6280 ****       155.2500 107.0000 127.5000 Du        
   6281 ****       155.2500 107.0000 127.7500 Du        
   6282 ****       155.2500 107.0000 128.0000 Du        
   6283 ****       155.2500 107.0000 128.2500 Du        
   6284 ****       155.2500 107.0000 128.5000 Du        
   6285 ****       155.2500 107.2500 126.5000 Du        
   6286 ****       155.2500 107.2500 126.7500 Du        
   6287 ****       155.2500 107.2500 127.0000 Du        
   6288 ****       155.2500 107.2500 127.2500 Du        
   6289 ****       155.2500 107.2500 127.5000 Du        
   6290 ****       155.2500 107.2500 127.7500 Du        
   6291 ****       155.2500 107.2500 128.0000 Du        
   6292 ****       155.2500 107.2500 128.2500 Du        
   6293 ****       155.2500 107.5000 126.7500 Du        
   6294 ****       155.2500 107.5000 127.0000 Du        
   6295 ****       155.2500 107.5000 127.2500 Du        
   6296 ****       155.2500 107.5000 127.5000 Du        
   6297 ****       155.2500 107.5000 127.7500 Du        
   6298 ****       155.2500 107.5000 128.0000 Du        
   6299 ****       155.2500 107.5000 128.2500 Du        
   6300 ****       155.2500 107.7500 127.2500 Du        
   6301 ****       155.2500 107.7500 127.5000 Du        
   6302 ****       155.2500 107.7500 127.7500 Du        
   6303 ****       155.2500 107.7500 128.0000 Du        
   6304 ****       155.2500 107.7500 128.2500 Du        
   6305 ****       155.2500 108.0000 128.0000 Du        
   6306 ****       155.2500 109.2500 152.7500 Du        
   6307 ****       155.2500 109.5000 152.2500 Du        
   6308 ****       155.2500 109.5000 152.5000 Du        
   6309 ****       155.2500 109.5000 152.7500 Du        
   6310 ****       155.2500 109.5000 153.0000 Du        
   6311 ****       155.2500 109.7500 152.5000 Du        
   6312 ****       155.2500 109.7500 152.7500 Du        
   6313 ****       155.2500 109.7500 153.0000 Du        
   6314 ****       155.2500 113.7500 146.7500 Du        
   6315 ****       155.2500 113.7500 147.0000 Du        
   6316 ****       155.2500 113.7500 147.2500 Du        
   6317 ****       155.2500 113.7500 147.5000 Du        
   6318 ****       155.2500 114.0000 146.5000 Du        
   6319 ****       155.2500 114.0000 146.7500 Du        
   6320 ****       155.2500 114.0000 147.0000 Du        
   6321 ****       155.2500 114.0000 147.2500 Du        
   6322 ****       155.2500 114.0000 147.5000 Du        
   6323 ****       155.2500 114.2500 146.2500 Du        
   6324 ****       155.2500 114.2500 146.5000 Du        
   6325 ****       155.2500 114.2500 146.7500 Du        
   6326 ****       155.2500 114.2500 147.0000 Du        
   6327 ****       155.2500 114.2500 147.2500 Du        
   6328 ****       155.2500 114.2500 147.5000 Du        
   6329 ****       155.2500 114.5000 146.2500 Du        
   6330 ****       155.2500 114.5000 146.5000 Du        
   6331 ****       155.2500 114.5000 146.7500 Du        
   6332 ****       155.2500 114.5000 147.0000 Du        
   6333 ****       155.2500 114.5000 147.2500 Du        
   6334 ****       155.2500 114.7500 146.0000 Du        
   6335 ****       155.2500 114.7500 146.2500 Du        
   6336 ****       155.2500 114.7500 146.5000 Du        
   6337 ****       155.2500 114.7500 146.7500 Du        
   6338 ****       155.2500 114.7500 147.0000 Du        
   6339 ****       155.2500 114.7500 147.2500 Du        
   6340 ****       155.2500 115.0000 146.2500 Du        
   6341 ****       155.2500 115.0000 146.5000 Du        
   6342 ****       155.2500 115.0000 146.7500 Du        
   6343 ****       155.2500 115.0000 147.0000 Du        
   6344 ****       155.2500 115.2500 136.2500 Du        
   6345 ****       155.2500 116.7500 135.2500 Du        
   6346 ****       155.5000 102.0000 147.5000 Du        
   6347 ****       155.5000 102.2500 147.5000 Du        
   6348 ****       155.5000 102.2500 147.7500 Du        
   6349 ****       155.5000 102.5000 147.5000 Du        
   6350 ****       155.5000 102.5000 147.7500 Du        
   6351 ****       155.5000 102.7500 147.5000 Du        
   6352 ****       155.5000 102.7500 147.7500 Du        
   6353 ****       155.5000 102.7500 148.0000 Du        
   6354 ****       155.5000 103.0000 147.5000 Du        
   6355 ****       155.5000 103.0000 147.7500 Du        
   6356 ****       155.5000 103.0000 148.0000 Du        
   6357 ****       155.5000 103.0000 148.2500 Du        
   6358 ****       155.5000 103.2500 147.5000 Du        
   6359 ****       155.5000 103.2500 147.7500 Du        
   6360 ****       155.5000 103.2500 148.0000 Du        
   6361 ****       155.5000 103.2500 148.2500 Du        
   6362 ****       155.5000 103.5000 147.7500 Du        
   6363 ****       155.5000 103.5000 148.0000 Du        
   6364 ****       155.5000 103.5000 148.2500 Du        
   6365 ****       155.5000 103.7500 147.7500 Du        
   6366 ****       155.5000 103.7500 148.0000 Du        
   6367 ****       155.5000 103.7500 148.2500 Du        
   6368 ****       155.5000 104.0000 148.0000 Du        
   6369 ****       155.5000 104.0000 148.2500 Du        
   6370 ****       155.5000 106.2500 127.7500 Du        
   6371 ****       155.5000 106.2500 128.0000 Du        
   6372 ****       155.5000 106.2500 128.2500 Du        
   6373 ****       155.5000 106.5000 127.2500 Du        
   6374 ****       155.5000 106.5000 127.5000 Du        
   6375 ****       155.5000 106.5000 127.7500 Du        
   6376 ****       155.5000 106.5000 128.0000 Du        
   6377 ****       155.5000 106.5000 128.2500 Du        
   6378 ****       155.5000 106.5000 128.5000 Du        
   6379 ****       155.5000 106.7500 127.0000 Du        
   6380 ****       155.5000 106.7500 127.2500 Du        
   6381 ****       155.5000 106.7500 127.5000 Du        
   6382 ****       155.5000 106.7500 127.7500 Du        
   6383 ****       155.5000 106.7500 128.0000 Du        
   6384 ****       155.5000 106.7500 128.2500 Du        
   6385 ****       155.5000 107.0000 126.7500 Du        
   6386 ****       155.5000 107.0000 127.0000 Du        
   6387 ****       155.5000 107.0000 127.2500 Du        
   6388 ****       155.5000 107.0000 127.5000 Du        
   6389 ****       155.5000 107.0000 127.7500 Du        
   6390 ****       155.5000 107.0000 128.0000 Du        
   6391 ****       155.5000 107.0000 128.2500 Du        
   6392 ****       155.5000 107.2500 126.7500 Du        
   6393 ****       155.5000 107.2500 127.0000 Du        
   6394 ****       155.5000 107.2500 127.2500 Du        
   6395 ****       155.5000 107.2500 127.5000 Du        
   6396 ****       155.5000 107.2500 127.7500 Du        
   6397 ****       155.5000 107.2500 128.0000 Du        
   6398 ****       155.5000 107.2500 128.2500 Du        
   6399 ****       155.5000 107.5000 127.0000 Du        
   6400 ****       155.5000 107.5000 127.2500 Du        
   6401 ****       155.5000 107.5000 127.5000 Du        
   6402 ****       155.5000 107.5000 127.7500 Du        
   6403 ****       155.5000 107.5000 128.0000 Du        
   6404 ****       155.5000 107.5000 128.2500 Du        
   6405 ****       155.5000 107.7500 127.5000 Du        
   6406 ****       155.5000 107.7500 127.7500 Du        
   6407 ****       155.5000 107.7500 128.0000 Du        
   6408 ****       155.5000 107.7500 128.2500 Du        
   6409 ****       155.5000 109.0000 152.7500 Du        
   6410 ****       155.5000 109.0000 153.0000 Du        
   6411 ****       155.5000 109.2500 152.5000 Du        
   6412 ****       155.5000 109.2500 152.7500 Du        
   6413 ****       155.5000 109.2500 153.0000 Du        
   6414 ****       155.5000 109.5000 152.0000 Du        
   6415 ****       155.5000 109.5000 152.2500 Du        
   6416 ****       155.5000 109.5000 152.5000 Du        
   6417 ****       155.5000 109.5000 152.7500 Du        
   6418 ****       155.5000 109.5000 153.0000 Du        
   6419 ****       155.5000 109.5000 153.2500 Du        
   6420 ****       155.5000 109.7500 152.0000 Du        
   6421 ****       155.5000 109.7500 152.2500 Du        
   6422 ****       155.5000 109.7500 152.5000 Du        
   6423 ****       155.5000 109.7500 152.7500 Du        
   6424 ****       155.5000 109.7500 153.0000 Du        
   6425 ****       155.5000 110.0000 152.2500 Du        
   6426 ****       155.5000 113.7500 147.0000 Du        
   6427 ****       155.5000 113.7500 147.2500 Du        
   6428 ****       155.5000 113.7500 147.5000 Du        
   6429 ****       155.5000 114.0000 146.5000 Du        
   6430 ****       155.5000 114.0000 146.7500 Du        
   6431 ****       155.5000 114.0000 147.0000 Du        
   6432 ****       155.5000 114.0000 147.2500 Du        
   6433 ****       155.5000 114.2500 146.5000 Du        
   6434 ****       155.5000 114.2500 146.7500 Du        
   6435 ****       155.5000 114.2500 147.0000 Du        
   6436 ****       155.5000 114.2500 147.2500 Du        
   6437 ****       155.5000 114.5000 146.2500 Du        
   6438 ****       155.5000 114.5000 146.5000 Du        
   6439 ****       155.5000 114.5000 146.7500 Du        
   6440 ****       155.5000 114.5000 147.0000 Du        
   6441 ****       155.5000 114.5000 147.2500 Du        
   6442 ****       155.5000 114.5000 147.5000 Du        
   6443 ****       155.5000 114.7500 136.2500 Du        
   6444 ****       155.5000 114.7500 146.0000 Du        
   6445 ****       155.5000 114.7500 146.2500 Du        
   6446 ****       155.5000 114.7500 146.5000 Du        
   6447 ****       155.5000 114.7500 146.7500 Du        
   6448 ****       155.5000 114.7500 147.0000 Du        
   6449 ****       155.5000 114.7500 147.2500 Du        
   6450 ****       155.5000 115.0000 136.2500 Du        
   6451 ****       155.5000 115.0000 146.0000 Du        
   6452 ****       155.5000 115.0000 146.2500 Du        
   6453 ****       155.5000 115.0000 146.5000 Du        
   6454 ****       155.5000 115.0000 146.7500 Du        
   6455 ****       155.5000 115.0000 147.0000 Du        
   6456 ****       155.5000 115.0000 147.2500 Du        
   6457 ****       155.5000 115.2500 136.0000 Du        
   6458 ****       155.5000 115.2500 136.2500 Du        
   6459 ****       155.5000 115.2500 146.7500 Du        
   6460 ****       155.5000 116.0000 135.7500 Du        
   6461 ****       155.5000 116.2500 135.0000 Du        
   6462 ****       155.5000 116.2500 135.2500 Du        
   6463 ****       155.5000 116.2500 135.5000 Du        
   6464 ****       155.5000 116.2500 135.7500 Du        
   6465 ****       155.5000 116.2500 136.0000 Du        
   6466 ****       155.5000 116.5000 134.5000 Du        
   6467 ****       155.5000 116.5000 134.7500 Du        
   6468 ****       155.5000 116.5000 135.0000 Du        
   6469 ****       155.5000 116.5000 135.2500 Du        
   6470 ****       155.5000 116.5000 135.5000 Du        
   6471 ****       155.5000 116.7500 134.7500 Du        
   6472 ****       155.5000 116.7500 135.0000 Du        
   6473 ****       155.5000 116.7500 135.2500 Du        
   6474 ****       155.5000 116.7500 135.5000 Du        
   6475 ****       155.5000 117.0000 135.0000 Du        
   6476 ****       155.5000 117.0000 135.2500 Du        
   6477 ****       155.7500 102.0000 147.2500 Du        
   6478 ****       155.7500 102.0000 147.5000 Du        
   6479 ****       155.7500 102.2500 147.2500 Du        
   6480 ****       155.7500 102.2500 147.5000 Du        
   6481 ****       155.7500 102.2500 147.7500 Du        
   6482 ****       155.7500 102.5000 147.2500 Du        
   6483 ****       155.7500 102.5000 147.5000 Du        
   6484 ****       155.7500 102.5000 147.7500 Du        
   6485 ****       155.7500 102.7500 147.2500 Du        
   6486 ****       155.7500 102.7500 147.5000 Du        
   6487 ****       155.7500 102.7500 147.7500 Du        
   6488 ****       155.7500 102.7500 148.0000 Du        
   6489 ****       155.7500 103.0000 147.2500 Du        
   6490 ****       155.7500 103.0000 147.5000 Du        
   6491 ****       155.7500 103.0000 147.7500 Du        
   6492 ****       155.7500 103.0000 148.0000 Du        
   6493 ****       155.7500 103.0000 148.2500 Du        
   6494 ****       155.7500 103.2500 147.5000 Du        
   6495 ****       155.7500 103.2500 147.7500 Du        
   6496 ****       155.7500 103.2500 148.0000 Du        
   6497 ****       155.7500 103.2500 148.2500 Du        
   6498 ****       155.7500 103.5000 147.5000 Du        
   6499 ****       155.7500 103.5000 147.7500 Du        
   6500 ****       155.7500 103.5000 148.0000 Du        
   6501 ****       155.7500 103.5000 148.2500 Du        
   6502 ****       155.7500 103.7500 147.7500 Du        
   6503 ****       155.7500 103.7500 148.0000 Du        
   6504 ****       155.7500 103.7500 148.2500 Du        
   6505 ****       155.7500 104.0000 148.0000 Du        
   6506 ****       155.7500 104.0000 148.2500 Du        
   6507 ****       155.7500 106.2500 127.7500 Du        
   6508 ****       155.7500 106.2500 128.0000 Du        
   6509 ****       155.7500 106.2500 128.2500 Du        
   6510 ****       155.7500 106.5000 127.5000 Du        
   6511 ****       155.7500 106.5000 127.7500 Du        
   6512 ****       155.7500 106.5000 128.0000 Du        
   6513 ****       155.7500 106.5000 128.2500 Du        
   6514 ****       155.7500 106.5000 128.5000 Du        
   6515 ****       155.7500 106.7500 127.2500 Du        
   6516 ****       155.7500 106.7500 127.5000 Du        
   6517 ****       155.7500 106.7500 127.7500 Du        
   6518 ****       155.7500 106.7500 128.0000 Du        
   6519 ****       155.7500 106.7500 128.2500 Du        
   6520 ****       155.7500 107.0000 127.5000 Du        
   6521 ****       155.7500 107.0000 127.7500 Du        
   6522 ****       155.7500 107.0000 128.0000 Du        
   6523 ****       155.7500 107.0000 128.2500 Du        
   6524 ****       155.7500 107.2500 127.5000 Du        
   6525 ****       155.7500 107.2500 127.7500 Du        
   6526 ****       155.7500 107.2500 128.0000 Du        
   6527 ****       155.7500 107.2500 128.2500 Du        
   6528 ****       155.7500 107.5000 127.5000 Du        
   6529 ****       155.7500 107.5000 127.7500 Du        
   6530 ****       155.7500 107.5000 128.0000 Du        
   6531 ****       155.7500 107.5000 128.2500 Du        
   6532 ****       155.7500 107.5000 140.2500 Du        
   6533 ****       155.7500 107.7500 127.7500 Du        
   6534 ****       155.7500 107.7500 128.0000 Du        
   6535 ****       155.7500 107.7500 140.2500 Du        
   6536 ****       155.7500 108.0000 140.2500 Du        
   6537 ****       155.7500 109.0000 152.7500 Du        
   6538 ****       155.7500 109.0000 153.0000 Du        
   6539 ****       155.7500 109.0000 153.2500 Du        
   6540 ****       155.7500 109.0000 153.5000 Du        
   6541 ****       155.7500 109.2500 152.0000 Du        
   6542 ****       155.7500 109.2500 152.2500 Du        
   6543 ****       155.7500 109.2500 152.5000 Du        
   6544 ****       155.7500 109.2500 152.7500 Du        
   6545 ****       155.7500 109.2500 153.0000 Du        
   6546 ****       155.7500 109.2500 153.2500 Du        
   6547 ****       155.7500 109.5000 151.5000 Du        
   6548 ****       155.7500 109.5000 151.7500 Du        
   6549 ****       155.7500 109.5000 152.0000 Du        
   6550 ****       155.7500 109.5000 152.2500 Du        
   6551 ****       155.7500 109.5000 152.5000 Du        
   6552 ****       155.7500 109.5000 152.7500 Du        
   6553 ****       155.7500 109.5000 153.0000 Du        
   6554 ****       155.7500 109.5000 153.2500 Du        
   6555 ****       155.7500 109.7500 151.5000 Du        
   6556 ****       155.7500 109.7500 151.7500 Du        
   6557 ****       155.7500 109.7500 152.0000 Du        
   6558 ****       155.7500 109.7500 152.2500 Du        
   6559 ****       155.7500 109.7500 152.5000 Du        
   6560 ****       155.7500 109.7500 152.7500 Du        
   6561 ****       155.7500 109.7500 153.0000 Du        
   6562 ****       155.7500 110.0000 151.7500 Du        
   6563 ****       155.7500 110.0000 152.0000 Du        
   6564 ****       155.7500 110.0000 152.2500 Du        
   6565 ****       155.7500 110.0000 152.5000 Du        
   6566 ****       155.7500 110.0000 152.7500 Du        
   6567 ****       155.7500 110.2500 152.0000 Du        
   6568 ****       155.7500 110.2500 152.2500 Du        
   6569 ****       155.7500 113.7500 147.2500 Du        
   6570 ****       155.7500 113.7500 147.5000 Du        
   6571 ****       155.7500 114.0000 146.7500 Du        
   6572 ****       155.7500 114.0000 147.0000 Du        
   6573 ****       155.7500 114.0000 147.2500 Du        
   6574 ****       155.7500 114.0000 147.5000 Du        
   6575 ****       155.7500 114.2500 136.2500 Du        
   6576 ****       155.7500 114.2500 146.5000 Du        
   6577 ****       155.7500 114.2500 146.7500 Du        
   6578 ****       155.7500 114.2500 147.0000 Du        
   6579 ****       155.7500 114.2500 147.2500 Du        
   6580 ****       155.7500 114.2500 147.5000 Du        
   6581 ****       155.7500 114.5000 136.0000 Du        
   6582 ****       155.7500 114.5000 136.2500 Du        
   6583 ****       155.7500 114.5000 146.2500 Du        
   6584 ****       155.7500 114.5000 146.5000 Du        
   6585 ****       155.7500 114.5000 146.7500 Du        
   6586 ****       155.7500 114.5000 147.0000 Du        
   6587 ****       155.7500 114.5000 147.2500 Du        
   6588 ****       155.7500 114.5000 147.5000 Du        
   6589 ****       155.7500 114.7500 136.0000 Du        
   6590 ****       155.7500 114.7500 136.2500 Du        
   6591 ****       155.7500 114.7500 136.5000 Du        
   6592 ****       155.7500 114.7500 146.0000 Du        
   6593 ****       155.7500 114.7500 146.2500 Du        
   6594 ****       155.7500 114.7500 146.5000 Du        
   6595 ****       155.7500 114.7500 146.7500 Du        
   6596 ****       155.7500 114.7500 147.0000 Du        
   6597 ****       155.7500 114.7500 147.2500 Du        
   6598 ****       155.7500 114.7500 147.5000 Du        
   6599 ****       155.7500 115.0000 136.0000 Du        
   6600 ****       155.7500 115.0000 136.2500 Du        
   6601 ****       155.7500 115.0000 146.0000 Du        
   6602 ****       155.7500 115.0000 146.2500 Du        
   6603 ****       155.7500 115.0000 146.5000 Du        
   6604 ****       155.7500 115.0000 146.7500 Du        
   6605 ****       155.7500 115.0000 147.0000 Du        
   6606 ****       155.7500 115.0000 147.2500 Du        
   6607 ****       155.7500 115.0000 147.5000 Du        
   6608 ****       155.7500 115.2500 135.7500 Du        
   6609 ****       155.7500 115.2500 136.0000 Du        
   6610 ****       155.7500 115.2500 136.2500 Du        
   6611 ****       155.7500 115.2500 146.0000 Du        
   6612 ****       155.7500 115.2500 146.2500 Du        
   6613 ****       155.7500 115.2500 146.5000 Du        
   6614 ****       155.7500 115.2500 146.7500 Du        
   6615 ****       155.7500 115.2500 147.0000 Du        
   6616 ****       155.7500 115.2500 147.2500 Du        
   6617 ****       155.7500 115.7500 135.5000 Du        
   6618 ****       155.7500 115.7500 135.7500 Du        
   6619 ****       155.7500 115.7500 136.0000 Du        
   6620 ****       155.7500 116.0000 135.0000 Du        
   6621 ****       155.7500 116.0000 135.2500 Du        
   6622 ****       155.7500 116.0000 135.5000 Du        
   6623 ****       155.7500 116.0000 135.7500 Du        
   6624 ****       155.7500 116.0000 136.0000 Du        
   6625 ****       155.7500 116.2500 134.7500 Du        
   6626 ****       155.7500 116.2500 135.0000 Du        
   6627 ****       155.7500 116.2500 135.2500 Du        
   6628 ****       155.7500 116.2500 135.5000 Du        
   6629 ****       155.7500 116.2500 135.7500 Du        
   6630 ****       155.7500 116.2500 136.0000 Du        
   6631 ****       155.7500 116.5000 134.5000 Du        
   6632 ****       155.7500 116.5000 134.7500 Du        
   6633 ****       155.7500 116.5000 135.0000 Du        
   6634 ****       155.7500 116.5000 135.2500 Du        
   6635 ****       155.7500 116.5000 135.5000 Du        
   6636 ****       155.7500 116.5000 135.7500 Du        
   6637 ****       155.7500 116.7500 134.5000 Du        
   6638 ****       155.7500 116.7500 134.7500 Du        
   6639 ****       155.7500 116.7500 135.0000 Du        
   6640 ****       155.7500 116.7500 135.2500 Du        
   6641 ****       155.7500 116.7500 135.5000 Du        
   6642 ****       155.7500 116.7500 135.7500 Du        
   6643 ****       155.7500 117.0000 134.7500 Du        
   6644 ****       155.7500 117.0000 135.0000 Du        
   6645 ****       155.7500 117.0000 135.2500 Du        
   6646 ****       155.7500 117.0000 135.5000 Du        
   6647 ****       155.7500 117.0000 135.7500 Du        
   6648 ****       155.7500 117.0000 136.0000 Du        
   6649 ****       156.0000 102.0000 147.2500 Du        
   6650 ****       156.0000 102.0000 147.5000 Du        
   6651 ****       156.0000 102.2500 147.2500 Du        
   6652 ****       156.0000 102.2500 147.5000 Du        
   6653 ****       156.0000 102.2500 147.7500 Du        
   6654 ****       156.0000 102.5000 147.2500 Du        
   6655 ****       156.0000 102.5000 147.5000 Du        
   6656 ****       156.0000 102.5000 147.7500 Du        
   6657 ****       156.0000 102.7500 147.2500 Du        
   6658 ****       156.0000 102.7500 147.5000 Du        
   6659 ****       156.0000 102.7500 147.7500 Du        
   6660 ****       156.0000 102.7500 148.0000 Du        
   6661 ****       156.0000 103.0000 147.2500 Du        
   6662 ****       156.0000 103.0000 147.5000 Du        
   6663 ****       156.0000 103.0000 147.7500 Du        
   6664 ****       156.0000 103.0000 148.0000 Du        
   6665 ****       156.0000 103.0000 148.2500 Du        
   6666 ****       156.0000 103.2500 147.2500 Du        
   6667 ****       156.0000 103.2500 147.5000 Du        
   6668 ****       156.0000 103.2500 147.7500 Du        
   6669 ****       156.0000 103.2500 148.0000 Du        
   6670 ****       156.0000 103.2500 148.2500 Du        
   6671 ****       156.0000 103.5000 147.5000 Du        
   6672 ****       156.0000 103.5000 147.7500 Du        
   6673 ****       156.0000 103.5000 148.0000 Du        
   6674 ****       156.0000 103.5000 148.2500 Du        
   6675 ****       156.0000 103.7500 147.5000 Du        
   6676 ****       156.0000 103.7500 147.7500 Du        
   6677 ****       156.0000 103.7500 148.0000 Du        
   6678 ****       156.0000 103.7500 148.2500 Du        
   6679 ****       156.0000 104.0000 147.7500 Du        
   6680 ****       156.0000 104.0000 148.0000 Du        
   6681 ****       156.0000 105.7500 141.2500 Du        
   6682 ****       156.0000 106.0000 141.0000 Du        
   6683 ****       156.0000 106.0000 141.2500 Du        
   6684 ****       156.0000 106.0000 141.5000 Du        
   6685 ****       156.0000 106.2500 128.0000 Du        
   6686 ****       156.0000 106.2500 128.2500 Du        
   6687 ****       156.0000 106.2500 141.0000 Du        
   6688 ****       156.0000 106.2500 141.2500 Du        
   6689 ****       156.0000 106.5000 128.0000 Du        
   6690 ****       156.0000 106.5000 128.2500 Du        
   6691 ****       156.0000 106.7500 128.0000 Du        
   6692 ****       156.0000 106.7500 128.2500 Du        
   6693 ****       156.0000 107.0000 128.0000 Du        
   6694 ****       156.0000 107.0000 128.2500 Du        
   6695 ****       156.0000 107.0000 140.7500 Du        
   6696 ****       156.0000 107.2500 128.0000 Du        
   6697 ****       156.0000 107.2500 128.2500 Du        
   6698 ****       156.0000 107.2500 140.5000 Du        
   6699 ****       156.0000 107.2500 140.7500 Du        
   6700 ****       156.0000 107.5000 140.2500 Du        
   6701 ****       156.0000 107.5000 140.5000 Du        
   6702 ****       156.0000 107.7500 140.0000 Du        
   6703 ****       156.0000 107.7500 140.2500 Du        
   6704 ****       156.0000 108.0000 140.2500 Du        
   6705 ****       156.0000 108.7500 153.2500 Du        
   6706 ****       156.0000 108.7500 153.5000 Du        
   6707 ****       156.0000 109.0000 152.2500 Du        
   6708 ****       156.0000 109.0000 152.5000 Du        
   6709 ****       156.0000 109.0000 152.7500 Du        
   6710 ****       156.0000 109.0000 153.0000 Du        
   6711 ****       156.0000 109.0000 153.2500 Du        
   6712 ****       156.0000 109.0000 153.5000 Du        
   6713 ****       156.0000 109.2500 152.0000 Du        
   6714 ****       156.0000 109.2500 152.2500 Du        
   6715 ****       156.0000 109.2500 152.5000 Du        
   6716 ****       156.0000 109.2500 152.7500 Du        
   6717 ****       156.0000 109.2500 153.0000 Du        
   6718 ****       156.0000 109.2500 153.2500 Du        
   6719 ****       156.0000 109.2500 153.5000 Du        
   6720 ****       156.0000 109.5000 151.5000 Du        
   6721 ****       156.0000 109.5000 151.7500 Du        
   6722 ****       156.0000 109.5000 152.0000 Du        
   6723 ****       156.0000 109.5000 152.2500 Du        
   6724 ****       156.0000 109.5000 152.5000 Du        
   6725 ****       156.0000 109.5000 152.7500 Du        
   6726 ****       156.0000 109.5000 153.0000 Du        
   6727 ****       156.0000 109.5000 153.2500 Du        
   6728 ****       156.0000 109.7500 151.2500 Du        
   6729 ****       156.0000 109.7500 151.5000 Du        
   6730 ****       156.0000 109.7500 151.7500 Du        
   6731 ****       156.0000 109.7500 152.0000 Du        
   6732 ****       156.0000 109.7500 152.2500 Du        
   6733 ****       156.0000 109.7500 152.5000 Du        
   6734 ****       156.0000 109.7500 152.7500 Du        
   6735 ****       156.0000 109.7500 153.0000 Du        
   6736 ****       156.0000 110.0000 151.2500 Du        
   6737 ****       156.0000 110.0000 151.5000 Du        
   6738 ****       156.0000 110.0000 151.7500 Du        
   6739 ****       156.0000 110.0000 152.0000 Du        
   6740 ****       156.0000 110.0000 152.2500 Du        
   6741 ****       156.0000 110.0000 152.5000 Du        
   6742 ****       156.0000 110.0000 152.7500 Du        
   6743 ****       156.0000 110.2500 151.5000 Du        
   6744 ****       156.0000 110.2500 151.7500 Du        
   6745 ****       156.0000 110.2500 152.0000 Du        
   6746 ****       156.0000 110.2500 152.2500 Du        
   6747 ****       156.0000 110.2500 152.5000 Du        
   6748 ****       156.0000 110.5000 151.5000 Du        
   6749 ****       156.0000 110.5000 151.7500 Du        
   6750 ****       156.0000 110.5000 152.0000 Du        
   6751 ****       156.0000 113.7500 136.2500 Du        
   6752 ****       156.0000 113.7500 147.5000 Du        
   6753 ****       156.0000 114.0000 136.0000 Du        
   6754 ****       156.0000 114.0000 136.2500 Du        
   6755 ****       156.0000 114.0000 146.7500 Du        
   6756 ****       156.0000 114.0000 147.0000 Du        
   6757 ****       156.0000 114.0000 147.2500 Du        
   6758 ****       156.0000 114.0000 147.5000 Du        
   6759 ****       156.0000 114.2500 136.0000 Du        
   6760 ****       156.0000 114.2500 136.2500 Du        
   6761 ****       156.0000 114.2500 136.5000 Du        
   6762 ****       156.0000 114.2500 146.5000 Du        
   6763 ****       156.0000 114.2500 146.7500 Du        
   6764 ****       156.0000 114.2500 147.0000 Du        
   6765 ****       156.0000 114.2500 147.2500 Du        
   6766 ****       156.0000 114.2500 147.5000 Du        
   6767 ****       156.0000 114.5000 135.7500 Du        
   6768 ****       156.0000 114.5000 136.0000 Du        
   6769 ****       156.0000 114.5000 136.2500 Du        
   6770 ****       156.0000 114.5000 136.5000 Du        
   6771 ****       156.0000 114.5000 146.2500 Du        
   6772 ****       156.0000 114.5000 146.5000 Du        
   6773 ****       156.0000 114.5000 146.7500 Du        
   6774 ****       156.0000 114.5000 147.0000 Du        
   6775 ****       156.0000 114.5000 147.2500 Du        
   6776 ****       156.0000 114.5000 147.5000 Du        
   6777 ****       156.0000 114.7500 135.7500 Du        
   6778 ****       156.0000 114.7500 136.0000 Du        
   6779 ****       156.0000 114.7500 136.2500 Du        
   6780 ****       156.0000 114.7500 136.5000 Du        
   6781 ****       156.0000 114.7500 146.0000 Du        
   6782 ****       156.0000 114.7500 146.2500 Du        
   6783 ****       156.0000 114.7500 146.5000 Du        
   6784 ****       156.0000 114.7500 146.7500 Du        
   6785 ****       156.0000 114.7500 147.0000 Du        
   6786 ****       156.0000 114.7500 147.2500 Du        
   6787 ****       156.0000 114.7500 147.5000 Du        
   6788 ****       156.0000 115.0000 135.7500 Du        
   6789 ****       156.0000 115.0000 136.0000 Du        
   6790 ****       156.0000 115.0000 136.2500 Du        
   6791 ****       156.0000 115.0000 136.5000 Du        
   6792 ****       156.0000 115.0000 146.0000 Du        
   6793 ****       156.0000 115.0000 146.2500 Du        
   6794 ****       156.0000 115.0000 146.5000 Du        
   6795 ****       156.0000 115.0000 146.7500 Du        
   6796 ****       156.0000 115.0000 147.0000 Du        
   6797 ****       156.0000 115.0000 147.2500 Du        
   6798 ****       156.0000 115.0000 147.5000 Du        
   6799 ****       156.0000 115.2500 135.5000 Du        
   6800 ****       156.0000 115.2500 135.7500 Du        
   6801 ****       156.0000 115.2500 136.0000 Du        
   6802 ****       156.0000 115.2500 136.2500 Du        
   6803 ****       156.0000 115.2500 145.7500 Du        
   6804 ****       156.0000 115.2500 146.0000 Du        
   6805 ****       156.0000 115.2500 146.2500 Du        
   6806 ****       156.0000 115.2500 146.5000 Du        
   6807 ****       156.0000 115.2500 146.7500 Du        
   6808 ****       156.0000 115.2500 147.0000 Du        
   6809 ****       156.0000 115.2500 147.2500 Du        
   6810 ****       156.0000 115.2500 147.5000 Du        
   6811 ****       156.0000 115.5000 135.5000 Du        
   6812 ****       156.0000 115.5000 135.7500 Du        
   6813 ****       156.0000 115.5000 136.0000 Du        
   6814 ****       156.0000 115.5000 136.2500 Du        
   6815 ****       156.0000 115.5000 146.0000 Du        
   6816 ****       156.0000 115.5000 146.2500 Du        
   6817 ****       156.0000 115.5000 146.5000 Du        
   6818 ****       156.0000 115.5000 146.7500 Du        
   6819 ****       156.0000 115.5000 147.0000 Du        
   6820 ****       156.0000 115.5000 147.2500 Du        
   6821 ****       156.0000 115.7500 135.2500 Du        
   6822 ****       156.0000 115.7500 135.5000 Du        
   6823 ****       156.0000 115.7500 135.7500 Du        
   6824 ****       156.0000 115.7500 136.0000 Du        
   6825 ****       156.0000 115.7500 136.2500 Du        
   6826 ****       156.0000 116.0000 135.0000 Du        
   6827 ****       156.0000 116.0000 135.2500 Du        
   6828 ****       156.0000 116.0000 135.5000 Du        
   6829 ****       156.0000 116.0000 135.7500 Du        
   6830 ****       156.0000 116.0000 136.0000 Du        
   6831 ****       156.0000 116.0000 136.2500 Du        
   6832 ****       156.0000 116.2500 134.7500 Du        
   6833 ****       156.0000 116.2500 135.0000 Du        
   6834 ****       156.0000 116.2500 135.2500 Du        
   6835 ****       156.0000 116.2500 135.5000 Du        
   6836 ****       156.0000 116.2500 135.7500 Du        
   6837 ****       156.0000 116.2500 136.0000 Du        
   6838 ****       156.0000 116.2500 136.2500 Du        
   6839 ****       156.0000 116.5000 134.5000 Du        
   6840 ****       156.0000 116.5000 134.7500 Du        
   6841 ****       156.0000 116.5000 135.0000 Du        
   6842 ****       156.0000 116.5000 135.2500 Du        
   6843 ****       156.0000 116.5000 135.5000 Du        
   6844 ****       156.0000 116.5000 135.7500 Du        
   6845 ****       156.0000 116.5000 136.0000 Du        
   6846 ****       156.0000 116.7500 134.5000 Du        
   6847 ****       156.0000 116.7500 134.7500 Du        
   6848 ****       156.0000 116.7500 135.0000 Du        
   6849 ****       156.0000 116.7500 135.2500 Du        
   6850 ****       156.0000 116.7500 135.5000 Du        
   6851 ****       156.0000 116.7500 135.7500 Du        
   6852 ****       156.0000 116.7500 136.0000 Du        
   6853 ****       156.0000 116.7500 136.2500 Du        
   6854 ****       156.0000 117.0000 134.7500 Du        
   6855 ****       156.0000 117.0000 135.0000 Du        
   6856 ****       156.0000 117.0000 135.2500 Du        
   6857 ****       156.0000 117.0000 135.5000 Du        
   6858 ****       156.0000 117.0000 135.7500 Du        
   6859 ****       156.0000 117.0000 136.0000 Du        
   6860 ****       156.0000 117.2500 135.2500 Du        
   6861 ****       156.0000 117.2500 135.5000 Du        
   6862 ****       156.0000 117.2500 135.7500 Du        
   6863 ****       156.0000 117.2500 136.0000 Du        
   6864 ****       156.0000 117.5000 140.5000 Du        
   6865 ****       156.0000 118.0000 135.7500 Du        
   6866 ****       156.0000 118.0000 136.0000 Du        
   6867 ****       156.2500 101.7500 147.2500 Du        
   6868 ****       156.2500 101.7500 147.5000 Du        
   6869 ****       156.2500 102.0000 147.2500 Du        
   6870 ****       156.2500 102.0000 147.5000 Du        
   6871 ****       156.2500 102.0000 147.7500 Du        
   6872 ****       156.2500 102.2500 147.2500 Du        
   6873 ****       156.2500 102.2500 147.5000 Du        
   6874 ****       156.2500 102.2500 147.7500 Du        
   6875 ****       156.2500 102.5000 147.2500 Du        
   6876 ****       156.2500 102.5000 147.5000 Du        
   6877 ****       156.2500 102.5000 147.7500 Du        
   6878 ****       156.2500 102.7500 147.2500 Du        
   6879 ****       156.2500 102.7500 147.5000 Du        
   6880 ****       156.2500 102.7500 147.7500 Du        
   6881 ****       156.2500 102.7500 148.0000 Du        
   6882 ****       156.2500 103.0000 147.2500 Du        
   6883 ****       156.2500 103.0000 147.5000 Du        
   6884 ****       156.2500 103.0000 147.7500 Du        
   6885 ****       156.2500 103.0000 148.0000 Du        
   6886 ****       156.2500 103.0000 148.2500 Du        
   6887 ****       156.2500 103.2500 147.2500 Du        
   6888 ****       156.2500 103.2500 147.5000 Du        
   6889 ****       156.2500 103.2500 147.7500 Du        
   6890 ****       156.2500 103.2500 148.0000 Du        
   6891 ****       156.2500 103.2500 148.2500 Du        
   6892 ****       156.2500 103.5000 147.5000 Du        
   6893 ****       156.2500 103.5000 147.7500 Du        
   6894 ****       156.2500 103.5000 148.0000 Du        
   6895 ****       156.2500 103.7500 147.7500 Du        
   6896 ****       156.2500 103.7500 148.0000 Du        
   6897 ****       156.2500 105.5000 141.2500 Du        
   6898 ****       156.2500 105.7500 141.0000 Du        
   6899 ****       156.2500 105.7500 141.2500 Du        
   6900 ****       156.2500 105.7500 141.5000 Du        
   6901 ****       156.2500 106.0000 141.0000 Du        
   6902 ****       156.2500 106.0000 141.2500 Du        
   6903 ****       156.2500 106.0000 141.5000 Du        
   6904 ****       156.2500 106.2500 141.0000 Du        
   6905 ****       156.2500 106.2500 141.2500 Du        
   6906 ****       156.2500 106.5000 141.0000 Du        
   6907 ****       156.2500 106.7500 140.7500 Du        
   6908 ****       156.2500 106.7500 141.0000 Du        
   6909 ****       156.2500 107.0000 140.5000 Du        
   6910 ****       156.2500 107.0000 140.7500 Du        
   6911 ****       156.2500 107.2500 140.2500 Du        
   6912 ****       156.2500 107.2500 140.5000 Du        
   6913 ****       156.2500 107.2500 140.7500 Du        
   6914 ****       156.2500 107.5000 140.2500 Du        
   6915 ****       156.2500 107.5000 140.5000 Du        
   6916 ****       156.2500 107.7500 140.2500 Du        
   6917 ****       156.2500 108.0000 140.2500 Du        
   6918 ****       156.2500 108.7500 153.0000 Du        
   6919 ****       156.2500 108.7500 153.2500 Du        
   6920 ****       156.2500 109.0000 152.2500 Du        
   6921 ****       156.2500 109.0000 152.5000 Du        
   6922 ****       156.2500 109.0000 152.7500 Du        
   6923 ****       156.2500 109.0000 153.0000 Du        
   6924 ****       156.2500 109.0000 153.2500 Du        
   6925 ****       156.2500 109.0000 153.5000 Du        
   6926 ****       156.2500 109.2500 151.7500 Du        
   6927 ****       156.2500 109.2500 152.0000 Du        
   6928 ****       156.2500 109.2500 152.2500 Du        
   6929 ****       156.2500 109.2500 152.5000 Du        
   6930 ****       156.2500 109.2500 152.7500 Du        
   6931 ****       156.2500 109.2500 153.0000 Du        
   6932 ****       156.2500 109.2500 153.2500 Du        
   6933 ****       156.2500 109.5000 151.2500 Du        
   6934 ****       156.2500 109.5000 151.5000 Du        
   6935 ****       156.2500 109.5000 151.7500 Du        
   6936 ****       156.2500 109.5000 152.0000 Du        
   6937 ****       156.2500 109.5000 152.2500 Du        
   6938 ****       156.2500 109.5000 152.5000 Du        
   6939 ****       156.2500 109.5000 152.7500 Du        
   6940 ****       156.2500 109.5000 153.0000 Du        
   6941 ****       156.2500 109.5000 153.2500 Du        
   6942 ****       156.2500 109.7500 151.0000 Du        
   6943 ****       156.2500 109.7500 151.2500 Du        
   6944 ****       156.2500 109.7500 151.5000 Du        
   6945 ****       156.2500 109.7500 151.7500 Du        
   6946 ****       156.2500 109.7500 152.0000 Du        
   6947 ****       156.2500 109.7500 152.2500 Du        
   6948 ****       156.2500 109.7500 152.5000 Du        
   6949 ****       156.2500 109.7500 152.7500 Du        
   6950 ****       156.2500 109.7500 153.0000 Du        
   6951 ****       156.2500 110.0000 150.7500 Du        
   6952 ****       156.2500 110.0000 151.0000 Du        
   6953 ****       156.2500 110.0000 151.2500 Du        
   6954 ****       156.2500 110.0000 151.5000 Du        
   6955 ****       156.2500 110.0000 151.7500 Du        
   6956 ****       156.2500 110.0000 152.0000 Du        
   6957 ****       156.2500 110.0000 152.2500 Du        
   6958 ****       156.2500 110.0000 152.5000 Du        
   6959 ****       156.2500 110.0000 152.7500 Du        
   6960 ****       156.2500 110.2500 150.7500 Du        
   6961 ****       156.2500 110.2500 151.0000 Du        
   6962 ****       156.2500 110.2500 151.2500 Du        
   6963 ****       156.2500 110.2500 151.5000 Du        
   6964 ****       156.2500 110.2500 151.7500 Du        
   6965 ****       156.2500 110.2500 152.0000 Du        
   6966 ****       156.2500 110.2500 152.2500 Du        
   6967 ****       156.2500 110.2500 152.5000 Du        
   6968 ****       156.2500 110.5000 151.0000 Du        
   6969 ****       156.2500 110.5000 151.2500 Du        
   6970 ****       156.2500 110.5000 151.5000 Du        
   6971 ****       156.2500 110.5000 151.7500 Du        
   6972 ****       156.2500 110.5000 152.0000 Du        
   6973 ****       156.2500 110.5000 152.2500 Du        
   6974 ****       156.2500 110.7500 151.5000 Du        
   6975 ****       156.2500 110.7500 151.7500 Du        
   6976 ****       156.2500 113.5000 136.2500 Du        
   6977 ****       156.2500 113.7500 136.0000 Du        
   6978 ****       156.2500 113.7500 136.2500 Du        
   6979 ****       156.2500 113.7500 136.5000 Du        
   6980 ****       156.2500 113.7500 147.5000 Du        
   6981 ****       156.2500 114.0000 135.7500 Du        
   6982 ****       156.2500 114.0000 136.0000 Du        
   6983 ****       156.2500 114.0000 136.2500 Du        
   6984 ****       156.2500 114.0000 136.5000 Du        
   6985 ****       156.2500 114.0000 136.7500 Du        
   6986 ****       156.2500 114.0000 147.0000 Du        
   6987 ****       156.2500 114.0000 147.2500 Du        
   6988 ****       156.2500 114.0000 147.5000 Du        
   6989 ****       156.2500 114.0000 147.7500 Du        
   6990 ****       156.2500 114.2500 135.7500 Du        
   6991 ****       156.2500 114.2500 136.0000 Du        
   6992 ****       156.2500 114.2500 136.2500 Du        
   6993 ****       156.2500 114.2500 136.5000 Du        
   6994 ****       156.2500 114.2500 136.7500 Du        
   6995 ****       156.2500 114.2500 146.7500 Du        
   6996 ****       156.2500 114.2500 147.0000 Du        
   6997 ****       156.2500 114.2500 147.2500 Du        
   6998 ****       156.2500 114.2500 147.5000 Du        
   6999 ****       156.2500 114.5000 135.7500 Du        
   7000 ****       156.2500 114.5000 136.0000 Du        
   7001 ****       156.2500 114.5000 136.2500 Du        
   7002 ****       156.2500 114.5000 136.5000 Du        
   7003 ****       156.2500 114.5000 136.7500 Du        
   7004 ****       156.2500 114.5000 146.5000 Du        
   7005 ****       156.2500 114.5000 146.7500 Du        
   7006 ****       156.2500 114.5000 147.0000 Du        
   7007 ****       156.2500 114.5000 147.2500 Du        
   7008 ****       156.2500 114.5000 147.5000 Du        
   7009 ****       156.2500 114.5000 147.7500 Du        
   7010 ****       156.2500 114.7500 135.7500 Du        
   7011 ****       156.2500 114.7500 136.0000 Du        
   7012 ****       156.2500 114.7500 136.2500 Du        
   7013 ****       156.2500 114.7500 136.5000 Du        
   7014 ****       156.2500 114.7500 146.0000 Du        
   7015 ****       156.2500 114.7500 146.2500 Du        
   7016 ****       156.2500 114.7500 146.5000 Du        
   7017 ****       156.2500 114.7500 146.7500 Du        
   7018 ****       156.2500 114.7500 147.0000 Du        
   7019 ****       156.2500 114.7500 147.2500 Du        
   7020 ****       156.2500 114.7500 147.5000 Du        
   7021 ****       156.2500 114.7500 147.7500 Du        
   7022 ****       156.2500 115.0000 135.5000 Du        
   7023 ****       156.2500 115.0000 135.7500 Du        
   7024 ****       156.2500 115.0000 136.0000 Du        
   7025 ****       156.2500 115.0000 136.2500 Du        
   7026 ****       156.2500 115.0000 136.5000 Du        
   7027 ****       156.2500 115.0000 146.0000 Du        
   7028 ****       156.2500 115.0000 146.2500 Du        
   7029 ****       156.2500 115.0000 146.5000 Du        
   7030 ****       156.2500 115.0000 146.7500 Du        
   7031 ****       156.2500 115.0000 147.0000 Du        
   7032 ****       156.2500 115.0000 147.2500 Du        
   7033 ****       156.2500 115.0000 147.5000 Du        
   7034 ****       156.2500 115.0000 147.7500 Du        
   7035 ****       156.2500 115.2500 135.5000 Du        
   7036 ****       156.2500 115.2500 135.7500 Du        
   7037 ****       156.2500 115.2500 136.0000 Du        
   7038 ****       156.2500 115.2500 136.2500 Du        
   7039 ****       156.2500 115.2500 146.0000 Du        
   7040 ****       156.2500 115.2500 146.2500 Du        
   7041 ****       156.2500 115.2500 146.5000 Du        
   7042 ****       156.2500 115.2500 146.7500 Du        
   7043 ****       156.2500 115.2500 147.0000 Du        
   7044 ****       156.2500 115.2500 147.2500 Du        
   7045 ****       156.2500 115.2500 147.5000 Du        
   7046 ****       156.2500 115.2500 147.7500 Du        
   7047 ****       156.2500 115.5000 135.5000 Du        
   7048 ****       156.2500 115.5000 135.7500 Du        
   7049 ****       156.2500 115.5000 136.0000 Du        
   7050 ****       156.2500 115.5000 136.2500 Du        
   7051 ****       156.2500 115.5000 145.7500 Du        
   7052 ****       156.2500 115.5000 146.0000 Du        
   7053 ****       156.2500 115.5000 146.2500 Du        
   7054 ****       156.2500 115.5000 146.5000 Du        
   7055 ****       156.2500 115.5000 146.7500 Du        
   7056 ****       156.2500 115.5000 147.0000 Du        
   7057 ****       156.2500 115.5000 147.2500 Du        
   7058 ****       156.2500 115.5000 147.5000 Du        
   7059 ****       156.2500 115.7500 135.2500 Du        
   7060 ****       156.2500 115.7500 135.5000 Du        
   7061 ****       156.2500 115.7500 135.7500 Du        
   7062 ****       156.2500 115.7500 136.0000 Du        
   7063 ****       156.2500 115.7500 136.2500 Du        
   7064 ****       156.2500 115.7500 146.2500 Du        
   7065 ****       156.2500 115.7500 146.5000 Du        
   7066 ****       156.2500 115.7500 146.7500 Du        
   7067 ****       156.2500 115.7500 147.0000 Du        
   7068 ****       156.2500 115.7500 147.2500 Du        
   7069 ****       156.2500 116.0000 135.0000 Du        
   7070 ****       156.2500 116.0000 135.2500 Du        
   7071 ****       156.2500 116.0000 135.5000 Du        
   7072 ****       156.2500 116.0000 135.7500 Du        
   7073 ****       156.2500 116.0000 136.0000 Du        
   7074 ****       156.2500 116.0000 136.2500 Du        
   7075 ****       156.2500 116.2500 134.7500 Du        
   7076 ****       156.2500 116.2500 135.0000 Du        
   7077 ****       156.2500 116.2500 135.2500 Du        
   7078 ****       156.2500 116.2500 135.5000 Du        
   7079 ****       156.2500 116.2500 135.7500 Du        
   7080 ****       156.2500 116.2500 136.0000 Du        
   7081 ****       156.2500 116.2500 136.2500 Du        
   7082 ****       156.2500 116.5000 134.7500 Du        
   7083 ****       156.2500 116.5000 135.0000 Du        
   7084 ****       156.2500 116.5000 135.2500 Du        
   7085 ****       156.2500 116.5000 135.5000 Du        
   7086 ****       156.2500 116.5000 135.7500 Du        
   7087 ****       156.2500 116.5000 136.0000 Du        
   7088 ****       156.2500 116.5000 136.2500 Du        
   7089 ****       156.2500 116.7500 134.7500 Du        
   7090 ****       156.2500 116.7500 135.0000 Du        
   7091 ****       156.2500 116.7500 135.2500 Du        
   7092 ****       156.2500 116.7500 135.5000 Du        
   7093 ****       156.2500 116.7500 135.7500 Du        
   7094 ****       156.2500 116.7500 136.0000 Du        
   7095 ****       156.2500 117.0000 135.0000 Du        
   7096 ****       156.2500 117.0000 135.2500 Du        
   7097 ****       156.2500 117.0000 135.5000 Du        
   7098 ****       156.2500 117.0000 135.7500 Du        
   7099 ****       156.2500 117.0000 136.0000 Du        
   7100 ****       156.2500 117.0000 136.2500 Du        
   7101 ****       156.2500 117.2500 135.2500 Du        
   7102 ****       156.2500 117.2500 135.5000 Du        
   7103 ****       156.2500 117.2500 135.7500 Du        
   7104 ****       156.2500 117.2500 136.0000 Du        
   7105 ****       156.2500 117.5000 135.7500 Du        
   7106 ****       156.2500 117.5000 136.0000 Du        
   7107 ****       156.2500 117.5000 136.2500 Du        
   7108 ****       156.2500 117.5000 140.5000 Du        
   7109 ****       156.2500 117.5000 140.7500 Du        
   7110 ****       156.2500 117.5000 141.0000 Du        
   7111 ****       156.2500 117.7500 135.7500 Du        
   7112 ****       156.2500 117.7500 136.0000 Du        
   7113 ****       156.2500 117.7500 140.5000 Du        
   7114 ****       156.2500 117.7500 140.7500 Du        
   7115 ****       156.2500 117.7500 141.0000 Du        
   7116 ****       156.2500 118.0000 135.7500 Du        
   7117 ****       156.2500 118.0000 136.0000 Du        
   7118 ****       156.2500 118.0000 136.2500 Du        
   7119 ****       156.5000 101.7500 147.2500 Du        
   7120 ****       156.5000 101.7500 147.5000 Du        
   7121 ****       156.5000 102.0000 147.2500 Du        
   7122 ****       156.5000 102.0000 147.5000 Du        
   7123 ****       156.5000 102.2500 147.0000 Du        
   7124 ****       156.5000 102.2500 147.2500 Du        
   7125 ****       156.5000 102.2500 147.5000 Du        
   7126 ****       156.5000 102.2500 147.7500 Du        
   7127 ****       156.5000 102.5000 147.2500 Du        
   7128 ****       156.5000 102.5000 147.5000 Du        
   7129 ****       156.5000 102.5000 147.7500 Du        
   7130 ****       156.5000 102.7500 147.2500 Du        
   7131 ****       156.5000 102.7500 147.5000 Du        
   7132 ****       156.5000 102.7500 147.7500 Du        
   7133 ****       156.5000 102.7500 148.0000 Du        
   7134 ****       156.5000 103.0000 147.2500 Du        
   7135 ****       156.5000 103.0000 147.5000 Du        
   7136 ****       156.5000 103.0000 147.7500 Du        
   7137 ****       156.5000 103.0000 148.0000 Du        
   7138 ****       156.5000 103.2500 147.2500 Du        
   7139 ****       156.5000 103.2500 147.5000 Du        
   7140 ****       156.5000 103.2500 147.7500 Du        
   7141 ****       156.5000 103.2500 148.0000 Du        
   7142 ****       156.5000 105.7500 141.2500 Du        
   7143 ****       156.5000 106.0000 141.0000 Du        
   7144 ****       156.5000 106.0000 141.2500 Du        
   7145 ****       156.5000 106.2500 141.0000 Du        
   7146 ****       156.5000 106.2500 141.2500 Du        
   7147 ****       156.5000 107.0000 140.7500 Du        
   7148 ****       156.5000 107.2500 140.5000 Du        
   7149 ****       156.5000 107.2500 140.7500 Du        
   7150 ****       156.5000 109.0000 152.2500 Du        
   7151 ****       156.5000 109.0000 152.5000 Du        
   7152 ****       156.5000 109.0000 152.7500 Du        
   7153 ****       156.5000 109.0000 153.0000 Du        
   7154 ****       156.5000 109.0000 153.2500 Du        
   7155 ****       156.5000 109.0000 153.5000 Du        
   7156 ****       156.5000 109.2500 151.7500 Du        
   7157 ****       156.5000 109.2500 152.0000 Du        
   7158 ****       156.5000 109.2500 152.2500 Du        
   7159 ****       156.5000 109.2500 152.5000 Du        
   7160 ****       156.5000 109.2500 152.7500 Du        
   7161 ****       156.5000 109.2500 153.0000 Du        
   7162 ****       156.5000 109.2500 153.2500 Du        
   7163 ****       156.5000 109.5000 151.2500 Du        
   7164 ****       156.5000 109.5000 151.5000 Du        
   7165 ****       156.5000 109.5000 151.7500 Du        
   7166 ****       156.5000 109.5000 152.0000 Du        
   7167 ****       156.5000 109.5000 152.2500 Du        
   7168 ****       156.5000 109.5000 152.5000 Du        
   7169 ****       156.5000 109.5000 152.7500 Du        
   7170 ****       156.5000 109.5000 153.0000 Du        
   7171 ****       156.5000 109.5000 153.2500 Du        
   7172 ****       156.5000 109.7500 150.7500 Du        
   7173 ****       156.5000 109.7500 151.0000 Du        
   7174 ****       156.5000 109.7500 151.2500 Du        
   7175 ****       156.5000 109.7500 151.5000 Du        
   7176 ****       156.5000 109.7500 151.7500 Du        
   7177 ****       156.5000 109.7500 152.0000 Du        
   7178 ****       156.5000 109.7500 152.2500 Du        
   7179 ****       156.5000 109.7500 152.5000 Du        
   7180 ****       156.5000 109.7500 152.7500 Du        
   7181 ****       156.5000 109.7500 153.0000 Du        
   7182 ****       156.5000 110.0000 150.5000 Du        
   7183 ****       156.5000 110.0000 150.7500 Du        
   7184 ****       156.5000 110.0000 151.0000 Du        
   7185 ****       156.5000 110.0000 151.2500 Du        
   7186 ****       156.5000 110.0000 151.5000 Du        
   7187 ****       156.5000 110.0000 151.7500 Du        
   7188 ****       156.5000 110.0000 152.0000 Du        
   7189 ****       156.5000 110.0000 152.2500 Du        
   7190 ****       156.5000 110.0000 152.5000 Du        
   7191 ****       156.5000 110.0000 152.7500 Du        
   7192 ****       156.5000 110.2500 150.5000 Du        
   7193 ****       156.5000 110.2500 150.7500 Du        
   7194 ****       156.5000 110.2500 151.0000 Du        
   7195 ****       156.5000 110.2500 151.2500 Du        
   7196 ****       156.5000 110.2500 151.5000 Du        
   7197 ****       156.5000 110.2500 151.7500 Du        
   7198 ****       156.5000 110.2500 152.0000 Du        
   7199 ****       156.5000 110.2500 152.2500 Du        
   7200 ****       156.5000 110.2500 152.5000 Du        
   7201 ****       156.5000 110.5000 150.2500 Du        
   7202 ****       156.5000 110.5000 150.5000 Du        
   7203 ****       156.5000 110.5000 150.7500 Du        
   7204 ****       156.5000 110.5000 151.0000 Du        
   7205 ****       156.5000 110.5000 151.2500 Du        
   7206 ****       156.5000 110.5000 151.5000 Du        
   7207 ****       156.5000 110.5000 151.7500 Du        
   7208 ****       156.5000 110.5000 152.0000 Du        
   7209 ****       156.5000 110.5000 152.2500 Du        
   7210 ****       156.5000 110.7500 150.2500 Du        
   7211 ****       156.5000 110.7500 150.5000 Du        
   7212 ****       156.5000 110.7500 150.7500 Du        
   7213 ****       156.5000 110.7500 151.0000 Du        
   7214 ****       156.5000 110.7500 151.2500 Du        
   7215 ****       156.5000 110.7500 151.5000 Du        
   7216 ****       156.5000 110.7500 151.7500 Du        
   7217 ****       156.5000 110.7500 152.0000 Du        
   7218 ****       156.5000 111.0000 151.5000 Du        
   7219 ****       156.5000 113.2500 136.2500 Du        
   7220 ****       156.5000 113.2500 136.5000 Du        
   7221 ****       156.5000 113.2500 136.7500 Du        
   7222 ****       156.5000 113.5000 136.0000 Du        
   7223 ****       156.5000 113.5000 136.2500 Du        
   7224 ****       156.5000 113.5000 136.5000 Du        
   7225 ****       156.5000 113.5000 136.7500 Du        
   7226 ****       156.5000 113.7500 135.7500 Du        
   7227 ****       156.5000 113.7500 136.0000 Du        
   7228 ****       156.5000 113.7500 136.2500 Du        
   7229 ****       156.5000 113.7500 136.5000 Du        
   7230 ****       156.5000 113.7500 136.7500 Du        
   7231 ****       156.5000 113.7500 137.0000 Du        
   7232 ****       156.5000 113.7500 147.7500 Du        
   7233 ****       156.5000 113.7500 148.0000 Du        
   7234 ****       156.5000 114.0000 135.7500 Du        
   7235 ****       156.5000 114.0000 136.0000 Du        
   7236 ****       156.5000 114.0000 136.2500 Du        
   7237 ****       156.5000 114.0000 136.5000 Du        
   7238 ****       156.5000 114.0000 136.7500 Du        
   7239 ****       156.5000 114.0000 147.5000 Du        
   7240 ****       156.5000 114.0000 147.7500 Du        
   7241 ****       156.5000 114.0000 148.0000 Du        
   7242 ****       156.5000 114.2500 135.7500 Du        
   7243 ****       156.5000 114.2500 136.0000 Du        
   7244 ****       156.5000 114.2500 136.2500 Du        
   7245 ****       156.5000 114.2500 136.5000 Du        
   7246 ****       156.5000 114.2500 136.7500 Du        
   7247 ****       156.5000 114.2500 147.0000 Du        
   7248 ****       156.5000 114.2500 147.2500 Du        
   7249 ****       156.5000 114.2500 147.5000 Du        
   7250 ****       156.5000 114.2500 147.7500 Du        
   7251 ****       156.5000 114.2500 148.0000 Du        
   7252 ****       156.5000 114.5000 135.7500 Du        
   7253 ****       156.5000 114.5000 136.0000 Du        
   7254 ****       156.5000 114.5000 136.2500 Du        
   7255 ****       156.5000 114.5000 136.5000 Du        
   7256 ****       156.5000 114.5000 146.5000 Du        
   7257 ****       156.5000 114.5000 146.7500 Du        
   7258 ****       156.5000 114.5000 147.0000 Du        
   7259 ****       156.5000 114.5000 147.2500 Du        
   7260 ****       156.5000 114.5000 147.5000 Du        
   7261 ****       156.5000 114.5000 147.7500 Du        
   7262 ****       156.5000 114.5000 148.0000 Du        
   7263 ****       156.5000 114.7500 135.7500 Du        
   7264 ****       156.5000 114.7500 136.0000 Du        
   7265 ****       156.5000 114.7500 136.2500 Du        
   7266 ****       156.5000 114.7500 136.5000 Du        
   7267 ****       156.5000 114.7500 146.2500 Du        
   7268 ****       156.5000 114.7500 146.5000 Du        
   7269 ****       156.5000 114.7500 146.7500 Du        
   7270 ****       156.5000 114.7500 147.0000 Du        
   7271 ****       156.5000 114.7500 147.2500 Du        
   7272 ****       156.5000 114.7500 147.5000 Du        
   7273 ****       156.5000 114.7500 147.7500 Du        
   7274 ****       156.5000 114.7500 148.0000 Du        
   7275 ****       156.5000 115.0000 135.5000 Du        
   7276 ****       156.5000 115.0000 135.7500 Du        
   7277 ****       156.5000 115.0000 136.0000 Du        
   7278 ****       156.5000 115.0000 136.2500 Du        
   7279 ****       156.5000 115.0000 136.5000 Du        
   7280 ****       156.5000 115.0000 145.7500 Du        
   7281 ****       156.5000 115.0000 146.0000 Du        
   7282 ****       156.5000 115.0000 146.2500 Du        
   7283 ****       156.5000 115.0000 146.5000 Du        
   7284 ****       156.5000 115.0000 146.7500 Du        
   7285 ****       156.5000 115.0000 147.0000 Du        
   7286 ****       156.5000 115.0000 147.2500 Du        
   7287 ****       156.5000 115.0000 147.5000 Du        
   7288 ****       156.5000 115.0000 147.7500 Du        
   7289 ****       156.5000 115.0000 148.0000 Du        
   7290 ****       156.5000 115.2500 135.5000 Du        
   7291 ****       156.5000 115.2500 135.7500 Du        
   7292 ****       156.5000 115.2500 136.0000 Du        
   7293 ****       156.5000 115.2500 136.2500 Du        
   7294 ****       156.5000 115.2500 145.7500 Du        
   7295 ****       156.5000 115.2500 146.0000 Du        
   7296 ****       156.5000 115.2500 146.2500 Du        
   7297 ****       156.5000 115.2500 146.5000 Du        
   7298 ****       156.5000 115.2500 146.7500 Du        
   7299 ****       156.5000 115.2500 147.0000 Du        
   7300 ****       156.5000 115.2500 147.2500 Du        
   7301 ****       156.5000 115.2500 147.5000 Du        
   7302 ****       156.5000 115.2500 147.7500 Du        
   7303 ****       156.5000 115.5000 135.5000 Du        
   7304 ****       156.5000 115.5000 135.7500 Du        
   7305 ****       156.5000 115.5000 136.0000 Du        
   7306 ****       156.5000 115.5000 136.2500 Du        
   7307 ****       156.5000 115.5000 145.5000 Du        
   7308 ****       156.5000 115.5000 145.7500 Du        
   7309 ****       156.5000 115.5000 146.0000 Du        
   7310 ****       156.5000 115.5000 146.2500 Du        
   7311 ****       156.5000 115.5000 146.5000 Du        
   7312 ****       156.5000 115.5000 146.7500 Du        
   7313 ****       156.5000 115.5000 147.0000 Du        
   7314 ****       156.5000 115.5000 147.2500 Du        
   7315 ****       156.5000 115.5000 147.5000 Du        
   7316 ****       156.5000 115.5000 147.7500 Du        
   7317 ****       156.5000 115.7500 135.2500 Du        
   7318 ****       156.5000 115.7500 135.5000 Du        
   7319 ****       156.5000 115.7500 135.7500 Du        
   7320 ****       156.5000 115.7500 136.0000 Du        
   7321 ****       156.5000 115.7500 136.2500 Du        
   7322 ****       156.5000 115.7500 145.7500 Du        
   7323 ****       156.5000 115.7500 146.0000 Du        
   7324 ****       156.5000 115.7500 146.2500 Du        
   7325 ****       156.5000 115.7500 146.5000 Du        
   7326 ****       156.5000 115.7500 146.7500 Du        
   7327 ****       156.5000 115.7500 147.0000 Du        
   7328 ****       156.5000 115.7500 147.2500 Du        
   7329 ****       156.5000 115.7500 147.5000 Du        
   7330 ****       156.5000 115.7500 147.7500 Du        
   7331 ****       156.5000 116.0000 135.0000 Du        
   7332 ****       156.5000 116.0000 135.2500 Du        
   7333 ****       156.5000 116.0000 135.5000 Du        
   7334 ****       156.5000 116.0000 135.7500 Du        
   7335 ****       156.5000 116.0000 136.0000 Du        
   7336 ****       156.5000 116.0000 136.2500 Du        
   7337 ****       156.5000 116.2500 135.0000 Du        
   7338 ****       156.5000 116.2500 135.2500 Du        
   7339 ****       156.5000 116.2500 135.5000 Du        
   7340 ****       156.5000 116.2500 135.7500 Du        
   7341 ****       156.5000 116.2500 136.0000 Du        
   7342 ****       156.5000 116.2500 136.2500 Du        
   7343 ****       156.5000 116.5000 134.7500 Du        
   7344 ****       156.5000 116.5000 135.0000 Du        
   7345 ****       156.5000 116.5000 135.2500 Du        
   7346 ****       156.5000 116.5000 135.5000 Du        
   7347 ****       156.5000 116.5000 135.7500 Du        
   7348 ****       156.5000 116.5000 136.0000 Du        
   7349 ****       156.5000 116.7500 134.7500 Du        
   7350 ****       156.5000 116.7500 135.0000 Du        
   7351 ****       156.5000 116.7500 135.2500 Du        
   7352 ****       156.5000 116.7500 135.5000 Du        
   7353 ****       156.5000 116.7500 135.7500 Du        
   7354 ****       156.5000 116.7500 136.0000 Du        
   7355 ****       156.5000 116.7500 136.2500 Du        
   7356 ****       156.5000 117.0000 134.7500 Du        
   7357 ****       156.5000 117.0000 135.0000 Du        
   7358 ****       156.5000 117.0000 135.2500 Du        
   7359 ****       156.5000 117.0000 135.5000 Du        
   7360 ****       156.5000 117.0000 135.7500 Du        
   7361 ****       156.5000 117.0000 136.0000 Du        
   7362 ****       156.5000 117.0000 136.2500 Du        
   7363 ****       156.5000 117.2500 135.0000 Du        
   7364 ****       156.5000 117.2500 135.2500 Du        
   7365 ****       156.5000 117.2500 135.5000 Du        
   7366 ****       156.5000 117.2500 135.7500 Du        
   7367 ****       156.5000 117.2500 136.0000 Du        
   7368 ****       156.5000 117.2500 136.2500 Du        
   7369 ****       156.5000 117.2500 140.7500 Du        
   7370 ****       156.5000 117.2500 141.0000 Du        
   7371 ****       156.5000 117.2500 141.2500 Du        
   7372 ****       156.5000 117.2500 141.5000 Du        
   7373 ****       156.5000 117.5000 135.2500 Du        
   7374 ****       156.5000 117.5000 135.7500 Du        
   7375 ****       156.5000 117.5000 136.0000 Du        
   7376 ****       156.5000 117.5000 140.5000 Du        
   7377 ****       156.5000 117.5000 140.7500 Du        
   7378 ****       156.5000 117.5000 141.0000 Du        
   7379 ****       156.5000 117.5000 141.2500 Du        
   7380 ****       156.5000 117.5000 141.5000 Du        
   7381 ****       156.5000 117.7500 136.0000 Du        
   7382 ****       156.5000 117.7500 136.2500 Du        
   7383 ****       156.5000 117.7500 140.5000 Du        
   7384 ****       156.5000 117.7500 140.7500 Du        
   7385 ****       156.5000 117.7500 141.0000 Du        
   7386 ****       156.5000 117.7500 141.2500 Du        
   7387 ****       156.5000 118.0000 136.0000 Du        
   7388 ****       156.7500 101.5000 147.2500 Du        
   7389 ****       156.7500 101.7500 147.2500 Du        
   7390 ****       156.7500 101.7500 147.5000 Du        
   7391 ****       156.7500 102.0000 147.0000 Du        
   7392 ****       156.7500 102.0000 147.2500 Du        
   7393 ****       156.7500 102.0000 147.5000 Du        
   7394 ****       156.7500 102.0000 147.7500 Du        
   7395 ****       156.7500 102.2500 147.0000 Du        
   7396 ****       156.7500 102.2500 147.2500 Du        
   7397 ****       156.7500 102.2500 147.5000 Du        
   7398 ****       156.7500 102.2500 147.7500 Du        
   7399 ****       156.7500 102.5000 147.0000 Du        
   7400 ****       156.7500 102.5000 147.2500 Du        
   7401 ****       156.7500 102.5000 147.5000 Du        
   7402 ****       156.7500 102.5000 147.7500 Du        
   7403 ****       156.7500 102.7500 147.0000 Du        
   7404 ****       156.7500 102.7500 147.2500 Du        
   7405 ****       156.7500 102.7500 147.5000 Du        
   7406 ****       156.7500 102.7500 147.7500 Du        
   7407 ****       156.7500 102.7500 148.0000 Du        
   7408 ****       156.7500 103.0000 147.0000 Du        
   7409 ****       156.7500 103.0000 147.2500 Du        
   7410 ****       156.7500 103.0000 147.5000 Du        
   7411 ****       156.7500 103.0000 147.7500 Du        
   7412 ****       156.7500 103.0000 148.0000 Du        
   7413 ****       156.7500 103.2500 147.2500 Du        
   7414 ****       156.7500 103.2500 147.5000 Du        
   7415 ****       156.7500 103.2500 147.7500 Du        
   7416 ****       156.7500 103.2500 148.0000 Du        
   7417 ****       156.7500 105.5000 141.2500 Du        
   7418 ****       156.7500 105.7500 141.0000 Du        
   7419 ****       156.7500 105.7500 141.2500 Du        
   7420 ****       156.7500 106.0000 141.0000 Du        
   7421 ****       156.7500 106.0000 141.2500 Du        
   7422 ****       156.7500 106.2500 141.0000 Du        
   7423 ****       156.7500 106.2500 141.2500 Du        
   7424 ****       156.7500 108.7500 152.5000 Du        
   7425 ****       156.7500 108.7500 152.7500 Du        
   7426 ****       156.7500 108.7500 153.0000 Du        
   7427 ****       156.7500 109.0000 152.0000 Du        
   7428 ****       156.7500 109.0000 152.2500 Du        
   7429 ****       156.7500 109.0000 152.5000 Du        
   7430 ****       156.7500 109.0000 152.7500 Du        
   7431 ****       156.7500 109.0000 153.0000 Du        
   7432 ****       156.7500 109.0000 153.2500 Du        
   7433 ****       156.7500 109.2500 151.5000 Du        
   7434 ****       156.7500 109.2500 151.7500 Du        
   7435 ****       156.7500 109.2500 152.0000 Du        
   7436 ****       156.7500 109.2500 152.2500 Du        
   7437 ****       156.7500 109.2500 152.5000 Du        
   7438 ****       156.7500 109.2500 152.7500 Du        
   7439 ****       156.7500 109.2500 153.0000 Du        
   7440 ****       156.7500 109.2500 153.2500 Du        
   7441 ****       156.7500 109.5000 151.0000 Du        
   7442 ****       156.7500 109.5000 151.2500 Du        
   7443 ****       156.7500 109.5000 151.5000 Du        
   7444 ****       156.7500 109.5000 151.7500 Du        
   7445 ****       156.7500 109.5000 152.0000 Du        
   7446 ****       156.7500 109.5000 152.2500 Du        
   7447 ****       156.7500 109.5000 152.5000 Du        
   7448 ****       156.7500 109.5000 152.7500 Du        
   7449 ****       156.7500 109.5000 153.0000 Du        
   7450 ****       156.7500 109.7500 150.5000 Du        
   7451 ****       156.7500 109.7500 150.7500 Du        
   7452 ****       156.7500 109.7500 151.0000 Du        
   7453 ****       156.7500 109.7500 151.2500 Du        
   7454 ****       156.7500 109.7500 151.5000 Du        
   7455 ****       156.7500 109.7500 151.7500 Du        
   7456 ****       156.7500 109.7500 152.0000 Du        
   7457 ****       156.7500 109.7500 152.2500 Du        
   7458 ****       156.7500 109.7500 152.5000 Du        
   7459 ****       156.7500 109.7500 152.7500 Du        
   7460 ****       156.7500 109.7500 153.0000 Du        
   7461 ****       156.7500 110.0000 150.2500 Du        
   7462 ****       156.7500 110.0000 150.5000 Du        
   7463 ****       156.7500 110.0000 150.7500 Du        
   7464 ****       156.7500 110.0000 151.0000 Du        
   7465 ****       156.7500 110.0000 151.2500 Du        
   7466 ****       156.7500 110.0000 151.5000 Du        
   7467 ****       156.7500 110.0000 151.7500 Du        
   7468 ****       156.7500 110.0000 152.0000 Du        
   7469 ****       156.7500 110.0000 152.2500 Du        
   7470 ****       156.7500 110.0000 152.5000 Du        
   7471 ****       156.7500 110.0000 152.7500 Du        
   7472 ****       156.7500 110.2500 150.2500 Du        
   7473 ****       156.7500 110.2500 150.5000 Du        
   7474 ****       156.7500 110.2500 150.7500 Du        
   7475 ****       156.7500 110.2500 151.0000 Du        
   7476 ****       156.7500 110.2500 151.2500 Du        
   7477 ****       156.7500 110.2500 151.5000 Du        
   7478 ****       156.7500 110.2500 151.7500 Du        
   7479 ****       156.7500 110.2500 152.0000 Du        
   7480 ****       156.7500 110.2500 152.2500 Du        
   7481 ****       156.7500 110.2500 152.5000 Du        
   7482 ****       156.7500 110.5000 150.0000 Du        
   7483 ****       156.7500 110.5000 150.2500 Du        
   7484 ****       156.7500 110.5000 150.5000 Du        
   7485 ****       156.7500 110.5000 150.7500 Du        
   7486 ****       156.7500 110.5000 151.0000 Du        
   7487 ****       156.7500 110.5000 151.2500 Du        
   7488 ****       156.7500 110.5000 151.5000 Du        
   7489 ****       156.7500 110.5000 151.7500 Du        
   7490 ****       156.7500 110.5000 152.0000 Du        
   7491 ****       156.7500 110.5000 152.2500 Du        
   7492 ****       156.7500 110.7500 149.7500 Du        
   7493 ****       156.7500 110.7500 150.0000 Du        
   7494 ****       156.7500 110.7500 150.2500 Du        
   7495 ****       156.7500 110.7500 150.5000 Du        
   7496 ****       156.7500 110.7500 150.7500 Du        
   7497 ****       156.7500 110.7500 151.0000 Du        
   7498 ****       156.7500 110.7500 151.2500 Du        
   7499 ****       156.7500 110.7500 151.5000 Du        
   7500 ****       156.7500 110.7500 151.7500 Du        
   7501 ****       156.7500 110.7500 152.0000 Du        
   7502 ****       156.7500 111.0000 149.7500 Du        
   7503 ****       156.7500 111.0000 150.0000 Du        
   7504 ****       156.7500 111.0000 150.2500 Du        
   7505 ****       156.7500 111.0000 150.5000 Du        
   7506 ****       156.7500 111.0000 150.7500 Du        
   7507 ****       156.7500 111.0000 151.0000 Du        
   7508 ****       156.7500 111.0000 151.2500 Du        
   7509 ****       156.7500 111.0000 151.5000 Du        
   7510 ****       156.7500 111.0000 151.7500 Du        
   7511 ****       156.7500 112.7500 136.7500 Du        
   7512 ****       156.7500 112.7500 137.0000 Du        
   7513 ****       156.7500 113.0000 136.2500 Du        
   7514 ****       156.7500 113.0000 136.5000 Du        
   7515 ****       156.7500 113.0000 136.7500 Du        
   7516 ****       156.7500 113.0000 137.0000 Du        
   7517 ****       156.7500 113.2500 136.0000 Du        
   7518 ****       156.7500 113.2500 136.2500 Du        
   7519 ****       156.7500 113.2500 136.5000 Du        
   7520 ****       156.7500 113.2500 136.7500 Du        
   7521 ****       156.7500 113.2500 137.0000 Du        
   7522 ****       156.7500 113.5000 136.0000 Du        
   7523 ****       156.7500 113.5000 136.2500 Du        
   7524 ****       156.7500 113.5000 136.5000 Du        
   7525 ****       156.7500 113.5000 136.7500 Du        
   7526 ****       156.7500 113.5000 137.0000 Du        
   7527 ****       156.7500 113.5000 147.7500 Du        
   7528 ****       156.7500 113.5000 148.0000 Du        
   7529 ****       156.7500 113.5000 148.2500 Du        
   7530 ****       156.7500 113.5000 148.5000 Du        
   7531 ****       156.7500 113.7500 135.7500 Du        
   7532 ****       156.7500 113.7500 136.0000 Du        
   7533 ****       156.7500 113.7500 136.2500 Du        
   7534 ****       156.7500 113.7500 136.5000 Du        
   7535 ****       156.7500 113.7500 136.7500 Du        
   7536 ****       156.7500 113.7500 137.0000 Du        
   7537 ****       156.7500 113.7500 147.5000 Du        
   7538 ****       156.7500 113.7500 147.7500 Du        
   7539 ****       156.7500 113.7500 148.0000 Du        
   7540 ****       156.7500 113.7500 148.2500 Du        
   7541 ****       156.7500 113.7500 148.5000 Du        
   7542 ****       156.7500 114.0000 135.7500 Du        
   7543 ****       156.7500 114.0000 136.0000 Du        
   7544 ****       156.7500 114.0000 136.2500 Du        
   7545 ****       156.7500 114.0000 136.5000 Du        
   7546 ****       156.7500 114.0000 136.7500 Du        
   7547 ****       156.7500 114.0000 137.0000 Du        
   7548 ****       156.7500 114.0000 147.5000 Du        
   7549 ****       156.7500 114.0000 147.7500 Du        
   7550 ****       156.7500 114.0000 148.0000 Du        
   7551 ****       156.7500 114.0000 148.2500 Du        
   7552 ****       156.7500 114.2500 135.7500 Du        
   7553 ****       156.7500 114.2500 136.0000 Du        
   7554 ****       156.7500 114.2500 136.2500 Du        
   7555 ****       156.7500 114.2500 136.5000 Du        
   7556 ****       156.7500 114.2500 136.7500 Du        
   7557 ****       156.7500 114.2500 137.0000 Du        
   7558 ****       156.7500 114.2500 147.0000 Du        
   7559 ****       156.7500 114.2500 147.2500 Du        
   7560 ****       156.7500 114.2500 147.5000 Du        
   7561 ****       156.7500 114.2500 147.7500 Du        
   7562 ****       156.7500 114.2500 148.0000 Du        
   7563 ****       156.7500 114.2500 148.2500 Du        
   7564 ****       156.7500 114.5000 135.7500 Du        
   7565 ****       156.7500 114.5000 136.0000 Du        
   7566 ****       156.7500 114.5000 136.2500 Du        
   7567 ****       156.7500 114.5000 136.5000 Du        
   7568 ****       156.7500 114.5000 136.7500 Du        
   7569 ****       156.7500 114.5000 146.5000 Du        
   7570 ****       156.7500 114.5000 146.7500 Du        
   7571 ****       156.7500 114.5000 147.0000 Du        
   7572 ****       156.7500 114.5000 147.2500 Du        
   7573 ****       156.7500 114.5000 147.5000 Du        
   7574 ****       156.7500 114.5000 147.7500 Du        
   7575 ****       156.7500 114.5000 148.0000 Du        
   7576 ****       156.7500 114.5000 148.2500 Du        
   7577 ****       156.7500 114.7500 135.7500 Du        
   7578 ****       156.7500 114.7500 136.0000 Du        
   7579 ****       156.7500 114.7500 136.2500 Du        
   7580 ****       156.7500 114.7500 136.5000 Du        
   7581 ****       156.7500 114.7500 136.7500 Du        
   7582 ****       156.7500 114.7500 146.5000 Du        
   7583 ****       156.7500 114.7500 146.7500 Du        
   7584 ****       156.7500 114.7500 147.0000 Du        
   7585 ****       156.7500 114.7500 147.2500 Du        
   7586 ****       156.7500 114.7500 147.5000 Du        
   7587 ****       156.7500 114.7500 147.7500 Du        
   7588 ****       156.7500 114.7500 148.0000 Du        
   7589 ****       156.7500 114.7500 148.2500 Du        
   7590 ****       156.7500 115.0000 135.7500 Du        
   7591 ****       156.7500 115.0000 136.0000 Du        
   7592 ****       156.7500 115.0000 136.2500 Du        
   7593 ****       156.7500 115.0000 136.5000 Du        
   7594 ****       156.7500 115.0000 145.7500 Du        
   7595 ****       156.7500 115.0000 146.0000 Du        
   7596 ****       156.7500 115.0000 146.2500 Du        
   7597 ****       156.7500 115.0000 146.5000 Du        
   7598 ****       156.7500 115.0000 146.7500 Du        
   7599 ****       156.7500 115.0000 147.0000 Du        
   7600 ****       156.7500 115.0000 147.2500 Du        
   7601 ****       156.7500 115.0000 147.5000 Du        
   7602 ****       156.7500 115.0000 147.7500 Du        
   7603 ****       156.7500 115.0000 148.0000 Du        
   7604 ****       156.7500 115.0000 148.2500 Du        
   7605 ****       156.7500 115.2500 135.5000 Du        
   7606 ****       156.7500 115.2500 135.7500 Du        
   7607 ****       156.7500 115.2500 136.0000 Du        
   7608 ****       156.7500 115.2500 136.2500 Du        
   7609 ****       156.7500 115.2500 136.5000 Du        
   7610 ****       156.7500 115.2500 145.7500 Du        
   7611 ****       156.7500 115.2500 146.0000 Du        
   7612 ****       156.7500 115.2500 146.2500 Du        
   7613 ****       156.7500 115.2500 146.5000 Du        
   7614 ****       156.7500 115.2500 146.7500 Du        
   7615 ****       156.7500 115.2500 147.0000 Du        
   7616 ****       156.7500 115.2500 147.2500 Du        
   7617 ****       156.7500 115.2500 147.5000 Du        
   7618 ****       156.7500 115.2500 147.7500 Du        
   7619 ****       156.7500 115.2500 148.0000 Du        
   7620 ****       156.7500 115.5000 135.5000 Du        
   7621 ****       156.7500 115.5000 135.7500 Du        
   7622 ****       156.7500 115.5000 136.0000 Du        
   7623 ****       156.7500 115.5000 136.2500 Du        
   7624 ****       156.7500 115.5000 145.5000 Du        
   7625 ****       156.7500 115.5000 145.7500 Du        
   7626 ****       156.7500 115.5000 146.0000 Du        
   7627 ****       156.7500 115.5000 146.2500 Du        
   7628 ****       156.7500 115.5000 146.5000 Du        
   7629 ****       156.7500 115.5000 146.7500 Du        
   7630 ****       156.7500 115.5000 147.0000 Du        
   7631 ****       156.7500 115.5000 147.2500 Du        
   7632 ****       156.7500 115.5000 147.5000 Du        
   7633 ****       156.7500 115.5000 147.7500 Du        
   7634 ****       156.7500 115.5000 148.0000 Du        
   7635 ****       156.7500 115.7500 135.2500 Du        
   7636 ****       156.7500 115.7500 135.5000 Du        
   7637 ****       156.7500 115.7500 135.7500 Du        
   7638 ****       156.7500 115.7500 136.0000 Du        
   7639 ****       156.7500 115.7500 136.2500 Du        
   7640 ****       156.7500 115.7500 145.5000 Du        
   7641 ****       156.7500 115.7500 145.7500 Du        
   7642 ****       156.7500 115.7500 146.0000 Du        
   7643 ****       156.7500 115.7500 146.2500 Du        
   7644 ****       156.7500 115.7500 146.5000 Du        
   7645 ****       156.7500 115.7500 146.7500 Du        
   7646 ****       156.7500 115.7500 147.0000 Du        
   7647 ****       156.7500 115.7500 147.2500 Du        
   7648 ****       156.7500 115.7500 147.5000 Du        
   7649 ****       156.7500 115.7500 147.7500 Du        
   7650 ****       156.7500 115.7500 148.0000 Du        
   7651 ****       156.7500 116.0000 135.2500 Du        
   7652 ****       156.7500 116.0000 135.5000 Du        
   7653 ****       156.7500 116.0000 135.7500 Du        
   7654 ****       156.7500 116.0000 136.0000 Du        
   7655 ****       156.7500 116.0000 136.2500 Du        
   7656 ****       156.7500 116.2500 135.0000 Du        
   7657 ****       156.7500 116.2500 135.2500 Du        
   7658 ****       156.7500 116.2500 135.5000 Du        
   7659 ****       156.7500 116.2500 135.7500 Du        
   7660 ****       156.7500 116.2500 136.0000 Du        
   7661 ****       156.7500 116.2500 136.2500 Du        
   7662 ****       156.7500 116.5000 134.7500 Du        
   7663 ****       156.7500 116.5000 135.0000 Du        
   7664 ****       156.7500 116.5000 135.2500 Du        
   7665 ****       156.7500 116.5000 135.5000 Du        
   7666 ****       156.7500 116.5000 135.7500 Du        
   7667 ****       156.7500 116.5000 136.0000 Du        
   7668 ****       156.7500 116.5000 136.2500 Du        
   7669 ****       156.7500 116.7500 134.7500 Du        
   7670 ****       156.7500 116.7500 135.0000 Du        
   7671 ****       156.7500 116.7500 135.2500 Du        
   7672 ****       156.7500 116.7500 135.5000 Du        
   7673 ****       156.7500 116.7500 135.7500 Du        
   7674 ****       156.7500 116.7500 136.0000 Du        
   7675 ****       156.7500 116.7500 136.2500 Du        
   7676 ****       156.7500 116.7500 142.0000 Du        
   7677 ****       156.7500 116.7500 142.2500 Du        
   7678 ****       156.7500 117.0000 134.7500 Du        
   7679 ****       156.7500 117.0000 135.0000 Du        
   7680 ****       156.7500 117.0000 135.2500 Du        
   7681 ****       156.7500 117.0000 135.5000 Du        
   7682 ****       156.7500 117.0000 135.7500 Du        
   7683 ****       156.7500 117.0000 136.0000 Du        
   7684 ****       156.7500 117.0000 136.2500 Du        
   7685 ****       156.7500 117.0000 141.0000 Du        
   7686 ****       156.7500 117.0000 141.2500 Du        
   7687 ****       156.7500 117.0000 141.5000 Du        
   7688 ****       156.7500 117.0000 141.7500 Du        
   7689 ****       156.7500 117.0000 142.0000 Du        
   7690 ****       156.7500 117.0000 142.2500 Du        
   7691 ****       156.7500 117.2500 135.0000 Du        
   7692 ****       156.7500 117.2500 135.2500 Du        
   7693 ****       156.7500 117.2500 135.5000 Du        
   7694 ****       156.7500 117.2500 135.7500 Du        
   7695 ****       156.7500 117.2500 136.0000 Du        
   7696 ****       156.7500 117.2500 136.2500 Du        
   7697 ****       156.7500 117.2500 140.7500 Du        
   7698 ****       156.7500 117.2500 141.0000 Du        
   7699 ****       156.7500 117.2500 141.2500 Du        
   7700 ****       156.7500 117.2500 141.5000 Du        
   7701 ****       156.7500 117.2500 141.7500 Du        
   7702 ****       156.7500 117.2500 142.0000 Du        
   7703 ****       156.7500 117.5000 135.2500 Du        
   7704 ****       156.7500 117.5000 135.5000 Du        
   7705 ****       156.7500 117.5000 135.7500 Du        
   7706 ****       156.7500 117.5000 136.0000 Du        
   7707 ****       156.7500 117.5000 136.2500 Du        
   7708 ****       156.7500 117.5000 140.5000 Du        
   7709 ****       156.7500 117.5000 140.7500 Du        
   7710 ****       156.7500 117.5000 141.0000 Du        
   7711 ****       156.7500 117.5000 141.2500 Du        
   7712 ****       156.7500 117.5000 141.5000 Du        
   7713 ****       156.7500 117.5000 141.7500 Du        
   7714 ****       156.7500 117.7500 135.7500 Du        
   7715 ****       156.7500 117.7500 136.0000 Du        
   7716 ****       156.7500 117.7500 136.2500 Du        
   7717 ****       156.7500 117.7500 140.0000 Du        
   7718 ****       156.7500 117.7500 140.2500 Du        
   7719 ****       156.7500 117.7500 140.5000 Du        
   7720 ****       156.7500 117.7500 140.7500 Du        
   7721 ****       156.7500 117.7500 141.0000 Du        
   7722 ****       156.7500 117.7500 141.2500 Du        
   7723 ****       156.7500 117.7500 141.5000 Du        
   7724 ****       156.7500 117.7500 141.7500 Du        
   7725 ****       156.7500 118.0000 135.7500 Du        
   7726 ****       156.7500 118.0000 136.0000 Du        
   7727 ****       156.7500 118.0000 140.5000 Du        
   7728 ****       156.7500 118.0000 140.7500 Du        
   7729 ****       156.7500 118.0000 141.0000 Du        
   7730 ****       156.7500 118.0000 141.2500 Du        
   7731 ****       157.0000 101.5000 147.2500 Du        
   7732 ****       157.0000 101.5000 147.5000 Du        
   7733 ****       157.0000 101.7500 147.2500 Du        
   7734 ****       157.0000 101.7500 147.5000 Du        
   7735 ****       157.0000 102.0000 147.0000 Du        
   7736 ****       157.0000 102.0000 147.2500 Du        
   7737 ****       157.0000 102.0000 147.5000 Du        
   7738 ****       157.0000 102.0000 147.7500 Du        
   7739 ****       157.0000 102.2500 147.0000 Du        
   7740 ****       157.0000 102.2500 147.2500 Du        
   7741 ****       157.0000 102.2500 147.5000 Du        
   7742 ****       157.0000 102.2500 147.7500 Du        
   7743 ****       157.0000 102.5000 147.0000 Du        
   7744 ****       157.0000 102.5000 147.2500 Du        
   7745 ****       157.0000 102.5000 147.5000 Du        
   7746 ****       157.0000 102.5000 147.7500 Du        
   7747 ****       157.0000 102.7500 147.0000 Du        
   7748 ****       157.0000 102.7500 147.2500 Du        
   7749 ****       157.0000 102.7500 147.5000 Du        
   7750 ****       157.0000 102.7500 147.7500 Du        
   7751 ****       157.0000 102.7500 148.0000 Du        
   7752 ****       157.0000 103.0000 147.0000 Du        
   7753 ****       157.0000 103.0000 147.2500 Du        
   7754 ****       157.0000 103.0000 147.5000 Du        
   7755 ****       157.0000 103.0000 147.7500 Du        
   7756 ****       157.0000 103.0000 148.0000 Du        
   7757 ****       157.0000 103.2500 147.2500 Du        
   7758 ****       157.0000 103.2500 147.5000 Du        
   7759 ****       157.0000 103.2500 147.7500 Du        
   7760 ****       157.0000 105.7500 141.0000 Du        
   7761 ****       157.0000 105.7500 141.2500 Du        
   7762 ****       157.0000 106.0000 141.0000 Du        
   7763 ****       157.0000 106.0000 141.2500 Du        
   7764 ****       157.0000 108.7500 152.7500 Du        
   7765 ****       157.0000 108.7500 153.0000 Du        
   7766 ****       157.0000 108.7500 153.2500 Du        
   7767 ****       157.0000 109.0000 152.0000 Du        
   7768 ****       157.0000 109.0000 152.2500 Du        
   7769 ****       157.0000 109.0000 152.5000 Du        
   7770 ****       157.0000 109.0000 152.7500 Du        
   7771 ****       157.0000 109.0000 153.0000 Du        
   7772 ****       157.0000 109.0000 153.2500 Du        
   7773 ****       157.0000 109.2500 151.5000 Du        
   7774 ****       157.0000 109.2500 151.7500 Du        
   7775 ****       157.0000 109.2500 152.0000 Du        
   7776 ****       157.0000 109.2500 152.2500 Du        
   7777 ****       157.0000 109.2500 152.5000 Du        
   7778 ****       157.0000 109.2500 152.7500 Du        
   7779 ****       157.0000 109.2500 153.0000 Du        
   7780 ****       157.0000 109.2500 153.2500 Du        
   7781 ****       157.0000 109.5000 151.2500 Du        
   7782 ****       157.0000 109.5000 151.5000 Du        
   7783 ****       157.0000 109.5000 151.7500 Du        
   7784 ****       157.0000 109.5000 152.0000 Du        
   7785 ****       157.0000 109.5000 152.2500 Du        
   7786 ****       157.0000 109.5000 152.5000 Du        
   7787 ****       157.0000 109.5000 152.7500 Du        
   7788 ****       157.0000 109.5000 153.0000 Du        
   7789 ****       157.0000 109.7500 150.7500 Du        
   7790 ****       157.0000 109.7500 151.0000 Du        
   7791 ****       157.0000 109.7500 151.2500 Du        
   7792 ****       157.0000 109.7500 151.5000 Du        
   7793 ****       157.0000 109.7500 151.7500 Du        
   7794 ****       157.0000 109.7500 152.0000 Du        
   7795 ****       157.0000 109.7500 152.2500 Du        
   7796 ****       157.0000 109.7500 152.5000 Du        
   7797 ****       157.0000 109.7500 152.7500 Du        
   7798 ****       157.0000 109.7500 153.0000 Du        
   7799 ****       157.0000 110.0000 150.2500 Du        
   7800 ****       157.0000 110.0000 150.5000 Du        
   7801 ****       157.0000 110.0000 150.7500 Du        
   7802 ****       157.0000 110.0000 151.0000 Du        
   7803 ****       157.0000 110.0000 151.2500 Du        
   7804 ****       157.0000 110.0000 151.5000 Du        
   7805 ****       157.0000 110.0000 151.7500 Du        
   7806 ****       157.0000 110.0000 152.0000 Du        
   7807 ****       157.0000 110.0000 152.2500 Du        
   7808 ****       157.0000 110.0000 152.5000 Du        
   7809 ****       157.0000 110.0000 152.7500 Du        
   7810 ****       157.0000 110.2500 150.0000 Du        
   7811 ****       157.0000 110.2500 150.2500 Du        
   7812 ****       157.0000 110.2500 150.5000 Du        
   7813 ****       157.0000 110.2500 150.7500 Du        
   7814 ****       157.0000 110.2500 151.0000 Du        
   7815 ****       157.0000 110.2500 151.2500 Du        
   7816 ****       157.0000 110.2500 151.5000 Du        
   7817 ****       157.0000 110.2500 151.7500 Du        
   7818 ****       157.0000 110.2500 152.0000 Du        
   7819 ****       157.0000 110.2500 152.2500 Du        
   7820 ****       157.0000 110.2500 152.5000 Du        
   7821 ****       157.0000 110.5000 150.0000 Du        
   7822 ****       157.0000 110.5000 150.2500 Du        
   7823 ****       157.0000 110.5000 150.5000 Du        
   7824 ****       157.0000 110.5000 150.7500 Du        
   7825 ****       157.0000 110.5000 151.0000 Du        
   7826 ****       157.0000 110.5000 151.2500 Du        
   7827 ****       157.0000 110.5000 151.5000 Du        
   7828 ****       157.0000 110.5000 151.7500 Du        
   7829 ****       157.0000 110.5000 152.0000 Du        
   7830 ****       157.0000 110.5000 152.2500 Du        
   7831 ****       157.0000 110.7500 149.7500 Du        
   7832 ****       157.0000 110.7500 150.0000 Du        
   7833 ****       157.0000 110.7500 150.2500 Du        
   7834 ****       157.0000 110.7500 150.5000 Du        
   7835 ****       157.0000 110.7500 150.7500 Du        
   7836 ****       157.0000 110.7500 151.0000 Du        
   7837 ****       157.0000 110.7500 151.2500 Du        
   7838 ****       157.0000 110.7500 151.5000 Du        
   7839 ****       157.0000 110.7500 151.7500 Du        
   7840 ****       157.0000 110.7500 152.0000 Du        
   7841 ****       157.0000 111.0000 149.5000 Du        
   7842 ****       157.0000 111.0000 149.7500 Du        
   7843 ****       157.0000 111.0000 150.0000 Du        
   7844 ****       157.0000 111.0000 150.2500 Du        
   7845 ****       157.0000 111.0000 150.5000 Du        
   7846 ****       157.0000 111.0000 150.7500 Du        
   7847 ****       157.0000 111.0000 151.0000 Du        
   7848 ****       157.0000 111.0000 151.2500 Du        
   7849 ****       157.0000 111.0000 151.5000 Du        
   7850 ****       157.0000 111.0000 151.7500 Du        
   7851 ****       157.0000 111.2500 149.2500 Du        
   7852 ****       157.0000 111.2500 149.5000 Du        
   7853 ****       157.0000 111.2500 149.7500 Du        
   7854 ****       157.0000 111.2500 150.0000 Du        
   7855 ****       157.0000 111.2500 150.2500 Du        
   7856 ****       157.0000 111.2500 150.5000 Du        
   7857 ****       157.0000 111.2500 150.7500 Du        
   7858 ****       157.0000 111.2500 151.0000 Du        
   7859 ****       157.0000 111.2500 151.2500 Du        
   7860 ****       157.0000 111.5000 149.2500 Du        
   7861 ****       157.0000 111.5000 149.5000 Du        
   7862 ****       157.0000 111.5000 149.7500 Du        
   7863 ****       157.0000 111.5000 150.0000 Du        
   7864 ****       157.0000 111.7500 149.0000 Du        
   7865 ****       157.0000 112.2500 136.7500 Du        
   7866 ****       157.0000 112.7500 136.7500 Du        
   7867 ****       157.0000 112.7500 137.0000 Du        
   7868 ****       157.0000 112.7500 137.2500 Du        
   7869 ****       157.0000 113.0000 136.7500 Du        
   7870 ****       157.0000 113.0000 137.0000 Du        
   7871 ****       157.0000 113.0000 148.5000 Du        
   7872 ****       157.0000 113.2500 136.2500 Du        
   7873 ****       157.0000 113.2500 136.5000 Du        
   7874 ****       157.0000 113.2500 136.7500 Du        
   7875 ****       157.0000 113.2500 137.0000 Du        
   7876 ****       157.0000 113.2500 148.0000 Du        
   7877 ****       157.0000 113.2500 148.2500 Du        
   7878 ****       157.0000 113.2500 148.5000 Du        
   7879 ****       157.0000 113.5000 136.0000 Du        
   7880 ****       157.0000 113.5000 136.2500 Du        
   7881 ****       157.0000 113.5000 136.5000 Du        
   7882 ****       157.0000 113.5000 136.7500 Du        
   7883 ****       157.0000 113.5000 137.0000 Du        
   7884 ****       157.0000 113.5000 147.7500 Du        
   7885 ****       157.0000 113.5000 148.0000 Du        
   7886 ****       157.0000 113.5000 148.2500 Du        
   7887 ****       157.0000 113.5000 148.5000 Du        
   7888 ****       157.0000 113.5000 148.7500 Du        
   7889 ****       157.0000 113.7500 135.7500 Du        
   7890 ****       157.0000 113.7500 136.0000 Du        
   7891 ****       157.0000 113.7500 136.2500 Du        
   7892 ****       157.0000 113.7500 136.5000 Du        
   7893 ****       157.0000 113.7500 136.7500 Du        
   7894 ****       157.0000 113.7500 137.0000 Du        
   7895 ****       157.0000 113.7500 147.5000 Du        
   7896 ****       157.0000 113.7500 147.7500 Du        
   7897 ****       157.0000 113.7500 148.0000 Du        
   7898 ****       157.0000 113.7500 148.2500 Du        
   7899 ****       157.0000 113.7500 148.5000 Du        
   7900 ****       157.0000 113.7500 148.7500 Du        
   7901 ****       157.0000 114.0000 135.7500 Du        
   7902 ****       157.0000 114.0000 136.0000 Du        
   7903 ****       157.0000 114.0000 136.2500 Du        
   7904 ****       157.0000 114.0000 136.5000 Du        
   7905 ****       157.0000 114.0000 136.7500 Du        
   7906 ****       157.0000 114.0000 137.0000 Du        
   7907 ****       157.0000 114.0000 147.2500 Du        
   7908 ****       157.0000 114.0000 147.5000 Du        
   7909 ****       157.0000 114.0000 147.7500 Du        
   7910 ****       157.0000 114.0000 148.0000 Du        
   7911 ****       157.0000 114.0000 148.2500 Du        
   7912 ****       157.0000 114.0000 148.5000 Du        
   7913 ****       157.0000 114.0000 148.7500 Du        
   7914 ****       157.0000 114.2500 135.7500 Du        
   7915 ****       157.0000 114.2500 136.0000 Du        
   7916 ****       157.0000 114.2500 136.2500 Du        
   7917 ****       157.0000 114.2500 136.5000 Du        
   7918 ****       157.0000 114.2500 136.7500 Du        
   7919 ****       157.0000 114.2500 137.0000 Du        
   7920 ****       157.0000 114.2500 147.0000 Du        
   7921 ****       157.0000 114.2500 147.2500 Du        
   7922 ****       157.0000 114.2500 147.5000 Du        
   7923 ****       157.0000 114.2500 147.7500 Du        
   7924 ****       157.0000 114.2500 148.0000 Du        
   7925 ****       157.0000 114.2500 148.2500 Du        
   7926 ****       157.0000 114.2500 148.5000 Du        
   7927 ****       157.0000 114.5000 135.7500 Du        
   7928 ****       157.0000 114.5000 136.0000 Du        
   7929 ****       157.0000 114.5000 136.2500 Du        
   7930 ****       157.0000 114.5000 136.5000 Du        
   7931 ****       157.0000 114.5000 136.7500 Du        
   7932 ****       157.0000 114.5000 146.5000 Du        
   7933 ****       157.0000 114.5000 146.7500 Du        
   7934 ****       157.0000 114.5000 147.0000 Du        
   7935 ****       157.0000 114.5000 147.2500 Du        
   7936 ****       157.0000 114.5000 147.5000 Du        
   7937 ****       157.0000 114.5000 147.7500 Du        
   7938 ****       157.0000 114.5000 148.0000 Du        
   7939 ****       157.0000 114.5000 148.2500 Du        
   7940 ****       157.0000 114.5000 148.5000 Du        
   7941 ****       157.0000 114.7500 135.7500 Du        
   7942 ****       157.0000 114.7500 136.0000 Du        
   7943 ****       157.0000 114.7500 136.2500 Du        
   7944 ****       157.0000 114.7500 136.5000 Du        
   7945 ****       157.0000 114.7500 136.7500 Du        
   7946 ****       157.0000 114.7500 146.5000 Du        
   7947 ****       157.0000 114.7500 146.7500 Du        
   7948 ****       157.0000 114.7500 147.0000 Du        
   7949 ****       157.0000 114.7500 147.2500 Du        
   7950 ****       157.0000 114.7500 147.5000 Du        
   7951 ****       157.0000 114.7500 147.7500 Du        
   7952 ****       157.0000 114.7500 148.0000 Du        
   7953 ****       157.0000 114.7500 148.2500 Du        
   7954 ****       157.0000 114.7500 148.5000 Du        
   7955 ****       157.0000 115.0000 135.7500 Du        
   7956 ****       157.0000 115.0000 136.0000 Du        
   7957 ****       157.0000 115.0000 136.2500 Du        
   7958 ****       157.0000 115.0000 136.5000 Du        
   7959 ****       157.0000 115.0000 145.7500 Du        
   7960 ****       157.0000 115.0000 146.0000 Du        
   7961 ****       157.0000 115.0000 146.2500 Du        
   7962 ****       157.0000 115.0000 146.5000 Du        
   7963 ****       157.0000 115.0000 146.7500 Du        
   7964 ****       157.0000 115.0000 147.0000 Du        
   7965 ****       157.0000 115.0000 147.2500 Du        
   7966 ****       157.0000 115.0000 147.5000 Du        
   7967 ****       157.0000 115.0000 147.7500 Du        
   7968 ****       157.0000 115.0000 148.0000 Du        
   7969 ****       157.0000 115.0000 148.2500 Du        
   7970 ****       157.0000 115.2500 135.7500 Du        
   7971 ****       157.0000 115.2500 136.0000 Du        
   7972 ****       157.0000 115.2500 136.2500 Du        
   7973 ****       157.0000 115.2500 145.7500 Du        
   7974 ****       157.0000 115.2500 146.0000 Du        
   7975 ****       157.0000 115.2500 146.2500 Du        
   7976 ****       157.0000 115.2500 146.5000 Du        
   7977 ****       157.0000 115.2500 146.7500 Du        
   7978 ****       157.0000 115.2500 147.0000 Du        
   7979 ****       157.0000 115.2500 147.2500 Du        
   7980 ****       157.0000 115.2500 147.5000 Du        
   7981 ****       157.0000 115.2500 147.7500 Du        
   7982 ****       157.0000 115.2500 148.0000 Du        
   7983 ****       157.0000 115.2500 148.2500 Du        
   7984 ****       157.0000 115.5000 135.7500 Du        
   7985 ****       157.0000 115.5000 136.0000 Du        
   7986 ****       157.0000 115.5000 136.2500 Du        
   7987 ****       157.0000 115.5000 145.5000 Du        
   7988 ****       157.0000 115.5000 145.7500 Du        
   7989 ****       157.0000 115.5000 146.0000 Du        
   7990 ****       157.0000 115.5000 146.2500 Du        
   7991 ****       157.0000 115.5000 146.5000 Du        
   7992 ****       157.0000 115.5000 146.7500 Du        
   7993 ****       157.0000 115.5000 147.0000 Du        
   7994 ****       157.0000 115.5000 147.2500 Du        
   7995 ****       157.0000 115.5000 147.5000 Du        
   7996 ****       157.0000 115.5000 147.7500 Du        
   7997 ****       157.0000 115.5000 148.0000 Du        
   7998 ****       157.0000 115.7500 135.5000 Du        
   7999 ****       157.0000 115.7500 135.7500 Du        
   8000 ****       157.0000 115.7500 136.0000 Du        
   8001 ****       157.0000 115.7500 136.2500 Du        
   8002 ****       157.0000 115.7500 145.5000 Du        
   8003 ****       157.0000 115.7500 145.7500 Du        
   8004 ****       157.0000 115.7500 146.0000 Du        
   8005 ****       157.0000 115.7500 146.2500 Du        
   8006 ****       157.0000 115.7500 146.5000 Du        
   8007 ****       157.0000 115.7500 146.7500 Du        
   8008 ****       157.0000 115.7500 147.0000 Du        
   8009 ****       157.0000 115.7500 147.2500 Du        
   8010 ****       157.0000 115.7500 147.5000 Du        
   8011 ****       157.0000 115.7500 147.7500 Du        
   8012 ****       157.0000 115.7500 148.0000 Du        
   8013 ****       157.0000 116.0000 135.2500 Du        
   8014 ****       157.0000 116.0000 135.5000 Du        
   8015 ****       157.0000 116.0000 135.7500 Du        
   8016 ****       157.0000 116.0000 136.0000 Du        
   8017 ****       157.0000 116.0000 136.2500 Du        
   8018 ****       157.0000 116.0000 144.5000 Du        
   8019 ****       157.0000 116.2500 135.0000 Du        
   8020 ****       157.0000 116.2500 135.2500 Du        
   8021 ****       157.0000 116.2500 135.5000 Du        
   8022 ****       157.0000 116.2500 135.7500 Du        
   8023 ****       157.0000 116.2500 136.0000 Du        
   8024 ****       157.0000 116.2500 136.2500 Du        
   8025 ****       157.0000 116.2500 143.7500 Du        
   8026 ****       157.0000 116.2500 144.0000 Du        
   8027 ****       157.0000 116.2500 144.2500 Du        
   8028 ****       157.0000 116.5000 134.7500 Du        
   8029 ****       157.0000 116.5000 135.0000 Du        
   8030 ****       157.0000 116.5000 135.2500 Du        
   8031 ****       157.0000 116.5000 135.5000 Du        
   8032 ****       157.0000 116.5000 135.7500 Du        
   8033 ****       157.0000 116.5000 136.0000 Du        
   8034 ****       157.0000 116.5000 136.2500 Du        
   8035 ****       157.0000 116.5000 142.0000 Du        
   8036 ****       157.0000 116.5000 142.2500 Du        
   8037 ****       157.0000 116.5000 142.7500 Du        
   8038 ****       157.0000 116.5000 143.0000 Du        
   8039 ****       157.0000 116.5000 143.2500 Du        
   8040 ****       157.0000 116.5000 143.5000 Du        
   8041 ****       157.0000 116.5000 143.7500 Du        
   8042 ****       157.0000 116.5000 144.0000 Du        
   8043 ****       157.0000 116.7500 134.7500 Du        
   8044 ****       157.0000 116.7500 135.0000 Du        
   8045 ****       157.0000 116.7500 135.2500 Du        
   8046 ****       157.0000 116.7500 135.5000 Du        
   8047 ****       157.0000 116.7500 135.7500 Du        
   8048 ****       157.0000 116.7500 136.0000 Du        
   8049 ****       157.0000 116.7500 136.2500 Du        
   8050 ****       157.0000 116.7500 141.5000 Du        
   8051 ****       157.0000 116.7500 141.7500 Du        
   8052 ****       157.0000 116.7500 142.0000 Du        
   8053 ****       157.0000 116.7500 142.2500 Du        
   8054 ****       157.0000 116.7500 142.5000 Du        
   8055 ****       157.0000 116.7500 142.7500 Du        
   8056 ****       157.0000 116.7500 143.0000 Du        
   8057 ****       157.0000 116.7500 143.2500 Du        
   8058 ****       157.0000 116.7500 143.5000 Du        
   8059 ****       157.0000 116.7500 143.7500 Du        
   8060 ****       157.0000 117.0000 134.7500 Du        
   8061 ****       157.0000 117.0000 135.0000 Du        
   8062 ****       157.0000 117.0000 135.2500 Du        
   8063 ****       157.0000 117.0000 135.5000 Du        
   8064 ****       157.0000 117.0000 135.7500 Du        
   8065 ****       157.0000 117.0000 136.0000 Du        
   8066 ****       157.0000 117.0000 136.2500 Du        
   8067 ****       157.0000 117.0000 141.0000 Du        
   8068 ****       157.0000 117.0000 141.2500 Du        
   8069 ****       157.0000 117.0000 141.5000 Du        
   8070 ****       157.0000 117.0000 141.7500 Du        
   8071 ****       157.0000 117.0000 142.0000 Du        
   8072 ****       157.0000 117.0000 142.2500 Du        
   8073 ****       157.0000 117.0000 142.5000 Du        
   8074 ****       157.0000 117.0000 142.7500 Du        
   8075 ****       157.0000 117.0000 143.0000 Du        
   8076 ****       157.0000 117.0000 143.2500 Du        
   8077 ****       157.0000 117.2500 135.0000 Du        
   8078 ****       157.0000 117.2500 135.2500 Du        
   8079 ****       157.0000 117.2500 135.5000 Du        
   8080 ****       157.0000 117.2500 135.7500 Du        
   8081 ****       157.0000 117.2500 136.0000 Du        
   8082 ****       157.0000 117.2500 136.2500 Du        
   8083 ****       157.0000 117.2500 140.5000 Du        
   8084 ****       157.0000 117.2500 140.7500 Du        
   8085 ****       157.0000 117.2500 141.0000 Du        
   8086 ****       157.0000 117.2500 141.2500 Du        
   8087 ****       157.0000 117.2500 141.5000 Du        
   8088 ****       157.0000 117.2500 141.7500 Du        
   8089 ****       157.0000 117.2500 142.0000 Du        
   8090 ****       157.0000 117.2500 142.2500 Du        
   8091 ****       157.0000 117.2500 142.5000 Du        
   8092 ****       157.0000 117.2500 142.7500 Du        
   8093 ****       157.0000 117.5000 135.2500 Du        
   8094 ****       157.0000 117.5000 135.5000 Du        
   8095 ****       157.0000 117.5000 135.7500 Du        
   8096 ****       157.0000 117.5000 136.0000 Du        
   8097 ****       157.0000 117.5000 136.2500 Du        
   8098 ****       157.0000 117.5000 139.7500 Du        
   8099 ****       157.0000 117.5000 140.0000 Du        
   8100 ****       157.0000 117.5000 140.2500 Du        
   8101 ****       157.0000 117.5000 140.5000 Du        
   8102 ****       157.0000 117.5000 140.7500 Du        
   8103 ****       157.0000 117.5000 141.0000 Du        
   8104 ****       157.0000 117.5000 141.2500 Du        
   8105 ****       157.0000 117.5000 141.5000 Du        
   8106 ****       157.0000 117.5000 141.7500 Du        
   8107 ****       157.0000 117.5000 142.0000 Du        
   8108 ****       157.0000 117.5000 142.2500 Du        
   8109 ****       157.0000 117.5000 142.5000 Du        
   8110 ****       157.0000 117.7500 135.7500 Du        
   8111 ****       157.0000 117.7500 136.0000 Du        
   8112 ****       157.0000 117.7500 136.2500 Du        
   8113 ****       157.0000 117.7500 139.7500 Du        
   8114 ****       157.0000 117.7500 140.0000 Du        
   8115 ****       157.0000 117.7500 140.2500 Du        
   8116 ****       157.0000 117.7500 140.5000 Du        
   8117 ****       157.0000 117.7500 140.7500 Du        
   8118 ****       157.0000 117.7500 141.0000 Du        
   8119 ****       157.0000 117.7500 141.2500 Du        
   8120 ****       157.0000 117.7500 141.5000 Du        
   8121 ****       157.0000 117.7500 141.7500 Du        
   8122 ****       157.0000 117.7500 142.0000 Du        
   8123 ****       157.0000 117.7500 142.2500 Du        
   8124 ****       157.0000 118.0000 135.7500 Du        
   8125 ****       157.0000 118.0000 136.0000 Du        
   8126 ****       157.0000 118.0000 139.7500 Du        
   8127 ****       157.0000 118.0000 140.0000 Du        
   8128 ****       157.0000 118.0000 140.2500 Du        
   8129 ****       157.0000 118.0000 140.5000 Du        
   8130 ****       157.0000 118.0000 140.7500 Du        
   8131 ****       157.0000 118.0000 141.0000 Du        
   8132 ****       157.0000 118.0000 141.2500 Du        
   8133 ****       157.0000 118.0000 141.5000 Du        
   8134 ****       157.0000 118.0000 141.7500 Du        
   8135 ****       157.2500 101.2500 147.2500 Du        
   8136 ****       157.2500 101.2500 147.5000 Du        
   8137 ****       157.2500 101.5000 147.0000 Du        
   8138 ****       157.2500 101.5000 147.2500 Du        
   8139 ****       157.2500 101.5000 147.5000 Du        
   8140 ****       157.2500 101.7500 147.0000 Du        
   8141 ****       157.2500 101.7500 147.2500 Du        
   8142 ****       157.2500 101.7500 147.5000 Du        
   8143 ****       157.2500 101.7500 147.7500 Du        
   8144 ****       157.2500 102.0000 147.0000 Du        
   8145 ****       157.2500 102.0000 147.2500 Du        
   8146 ****       157.2500 102.0000 147.5000 Du        
   8147 ****       157.2500 102.0000 147.7500 Du        
   8148 ****       157.2500 102.2500 147.0000 Du        
   8149 ****       157.2500 102.2500 147.2500 Du        
   8150 ****       157.2500 102.2500 147.5000 Du        
   8151 ****       157.2500 102.2500 147.7500 Du        
   8152 ****       157.2500 102.5000 147.0000 Du        
   8153 ****       157.2500 102.5000 147.2500 Du        
   8154 ****       157.2500 102.5000 147.5000 Du        
   8155 ****       157.2500 102.5000 147.7500 Du        
   8156 ****       157.2500 102.7500 146.7500 Du        
   8157 ****       157.2500 102.7500 147.0000 Du        
   8158 ****       157.2500 102.7500 147.2500 Du        
   8159 ****       157.2500 102.7500 147.5000 Du        
   8160 ****       157.2500 102.7500 147.7500 Du        
   8161 ****       157.2500 102.7500 148.0000 Du        
   8162 ****       157.2500 103.0000 147.0000 Du        
   8163 ****       157.2500 103.0000 147.2500 Du        
   8164 ****       157.2500 103.0000 147.5000 Du        
   8165 ****       157.2500 103.0000 147.7500 Du        
   8166 ****       157.2500 103.0000 148.0000 Du        
   8167 ****       157.2500 105.7500 141.0000 Du        
   8168 ****       157.2500 108.7500 152.7500 Du        
   8169 ****       157.2500 108.7500 153.0000 Du        
   8170 ****       157.2500 108.7500 153.2500 Du        
   8171 ****       157.2500 109.0000 152.0000 Du        
   8172 ****       157.2500 109.0000 152.2500 Du        
   8173 ****       157.2500 109.0000 152.5000 Du        
   8174 ****       157.2500 109.0000 152.7500 Du        
   8175 ****       157.2500 109.0000 153.0000 Du        
   8176 ****       157.2500 109.0000 153.2500 Du        
   8177 ****       157.2500 109.2500 151.7500 Du        
   8178 ****       157.2500 109.2500 152.0000 Du        
   8179 ****       157.2500 109.2500 152.2500 Du        
   8180 ****       157.2500 109.2500 152.5000 Du        
   8181 ****       157.2500 109.2500 152.7500 Du        
   8182 ****       157.2500 109.2500 153.0000 Du        
   8183 ****       157.2500 109.5000 151.2500 Du        
   8184 ****       157.2500 109.5000 151.5000 Du        
   8185 ****       157.2500 109.5000 151.7500 Du        
   8186 ****       157.2500 109.5000 152.0000 Du        
   8187 ****       157.2500 109.5000 152.2500 Du        
   8188 ****       157.2500 109.5000 152.5000 Du        
   8189 ****       157.2500 109.5000 152.7500 Du        
   8190 ****       157.2500 109.5000 153.0000 Du        
   8191 ****       157.2500 109.7500 151.0000 Du        
   8192 ****       157.2500 109.7500 151.2500 Du        
   8193 ****       157.2500 109.7500 151.5000 Du        
   8194 ****       157.2500 109.7500 151.7500 Du        
   8195 ****       157.2500 109.7500 152.0000 Du        
   8196 ****       157.2500 109.7500 152.2500 Du        
   8197 ****       157.2500 109.7500 152.5000 Du        
   8198 ****       157.2500 109.7500 152.7500 Du        
   8199 ****       157.2500 110.0000 150.5000 Du        
   8200 ****       157.2500 110.0000 150.7500 Du        
   8201 ****       157.2500 110.0000 151.0000 Du        
   8202 ****       157.2500 110.0000 151.2500 Du        
   8203 ****       157.2500 110.0000 151.5000 Du        
   8204 ****       157.2500 110.0000 151.7500 Du        
   8205 ****       157.2500 110.0000 152.0000 Du        
   8206 ****       157.2500 110.0000 152.2500 Du        
   8207 ****       157.2500 110.0000 152.5000 Du        
   8208 ****       157.2500 110.0000 152.7500 Du        
   8209 ****       157.2500 110.2500 150.0000 Du        
   8210 ****       157.2500 110.2500 150.2500 Du        
   8211 ****       157.2500 110.2500 150.5000 Du        
   8212 ****       157.2500 110.2500 150.7500 Du        
   8213 ****       157.2500 110.2500 151.0000 Du        
   8214 ****       157.2500 110.2500 151.2500 Du        
   8215 ****       157.2500 110.2500 151.5000 Du        
   8216 ****       157.2500 110.2500 151.7500 Du        
   8217 ****       157.2500 110.2500 152.0000 Du        
   8218 ****       157.2500 110.2500 152.2500 Du        
   8219 ****       157.2500 110.2500 152.5000 Du        
   8220 ****       157.2500 110.5000 150.0000 Du        
   8221 ****       157.2500 110.5000 150.2500 Du        
   8222 ****       157.2500 110.5000 150.5000 Du        
   8223 ****       157.2500 110.5000 150.7500 Du        
   8224 ****       157.2500 110.5000 151.0000 Du        
   8225 ****       157.2500 110.5000 151.2500 Du        
   8226 ****       157.2500 110.5000 151.5000 Du        
   8227 ****       157.2500 110.5000 151.7500 Du        
   8228 ****       157.2500 110.5000 152.0000 Du        
   8229 ****       157.2500 110.5000 152.2500 Du        
   8230 ****       157.2500 110.7500 149.7500 Du        
   8231 ****       157.2500 110.7500 150.0000 Du        
   8232 ****       157.2500 110.7500 150.2500 Du        
   8233 ****       157.2500 110.7500 150.5000 Du        
   8234 ****       157.2500 110.7500 150.7500 Du        
   8235 ****       157.2500 110.7500 151.0000 Du        
   8236 ****       157.2500 110.7500 151.2500 Du        
   8237 ****       157.2500 110.7500 151.5000 Du        
   8238 ****       157.2500 110.7500 151.7500 Du        
   8239 ****       157.2500 111.0000 149.5000 Du        
   8240 ****       157.2500 111.0000 149.7500 Du        
   8241 ****       157.2500 111.0000 150.0000 Du        
   8242 ****       157.2500 111.0000 150.2500 Du        
   8243 ****       157.2500 111.0000 150.5000 Du        
   8244 ****       157.2500 111.0000 150.7500 Du        
   8245 ****       157.2500 111.0000 151.0000 Du        
   8246 ****       157.2500 111.0000 151.2500 Du        
   8247 ****       157.2500 111.0000 151.5000 Du        
   8248 ****       157.2500 111.2500 149.2500 Du        
   8249 ****       157.2500 111.2500 149.5000 Du        
   8250 ****       157.2500 111.2500 149.7500 Du        
   8251 ****       157.2500 111.2500 150.0000 Du        
   8252 ****       157.2500 111.2500 150.2500 Du        
   8253 ****       157.2500 111.2500 150.5000 Du        
   8254 ****       157.2500 111.2500 150.7500 Du        
   8255 ****       157.2500 111.2500 151.0000 Du        
   8256 ****       157.2500 111.5000 149.2500 Du        
   8257 ****       157.2500 111.5000 149.5000 Du        
   8258 ****       157.2500 111.5000 149.7500 Du        
   8259 ****       157.2500 111.5000 150.0000 Du        
   8260 ****       157.2500 111.5000 150.2500 Du        
   8261 ****       157.2500 111.5000 150.5000 Du        
   8262 ****       157.2500 111.5000 150.7500 Du        
   8263 ****       157.2500 111.7500 149.0000 Du        
   8264 ****       157.2500 111.7500 149.2500 Du        
   8265 ****       157.2500 111.7500 149.5000 Du        
   8266 ****       157.2500 111.7500 149.7500 Du        
   8267 ****       157.2500 111.7500 150.0000 Du        
   8268 ****       157.2500 112.0000 137.2500 Du        
   8269 ****       157.2500 112.0000 149.0000 Du        
   8270 ****       157.2500 112.0000 149.2500 Du        
   8271 ****       157.2500 112.0000 149.5000 Du        
   8272 ****       157.2500 112.0000 149.7500 Du        
   8273 ****       157.2500 112.2500 148.7500 Du        
   8274 ****       157.2500 112.2500 149.0000 Du        
   8275 ****       157.2500 112.5000 148.7500 Du        
   8276 ****       157.2500 112.5000 149.0000 Du        
   8277 ****       157.2500 112.5000 149.2500 Du        
   8278 ****       157.2500 112.7500 148.5000 Du        
   8279 ****       157.2500 112.7500 148.7500 Du        
   8280 ****       157.2500 112.7500 149.0000 Du        
   8281 ****       157.2500 113.0000 148.2500 Du        
   8282 ****       157.2500 113.0000 148.5000 Du        
   8283 ****       157.2500 113.0000 148.7500 Du        
   8284 ****       157.2500 113.0000 149.0000 Du        
   8285 ****       157.2500 113.2500 148.2500 Du        
   8286 ****       157.2500 113.2500 148.5000 Du        
   8287 ****       157.2500 113.2500 148.7500 Du        
   8288 ****       157.2500 113.2500 149.0000 Du        
   8289 ****       157.2500 113.5000 147.5000 Du        
   8290 ****       157.2500 113.5000 147.7500 Du        
   8291 ****       157.2500 113.5000 148.0000 Du        
   8292 ****       157.2500 113.5000 148.2500 Du        
   8293 ****       157.2500 113.5000 148.5000 Du        
   8294 ****       157.2500 113.5000 148.7500 Du        
   8295 ****       157.2500 113.5000 149.0000 Du        
   8296 ****       157.2500 113.5000 149.2500 Du        
   8297 ****       157.2500 113.7500 136.2500 Du        
   8298 ****       157.2500 113.7500 147.5000 Du        
   8299 ****       157.2500 113.7500 147.7500 Du        
   8300 ****       157.2500 113.7500 148.0000 Du        
   8301 ****       157.2500 113.7500 148.2500 Du        
   8302 ****       157.2500 113.7500 148.5000 Du        
   8303 ****       157.2500 113.7500 148.7500 Du        
   8304 ****       157.2500 113.7500 149.0000 Du        
   8305 ****       157.2500 114.0000 136.0000 Du        
   8306 ****       157.2500 114.0000 136.2500 Du        
   8307 ****       157.2500 114.0000 147.2500 Du        
   8308 ****       157.2500 114.0000 147.5000 Du        
   8309 ****       157.2500 114.0000 147.7500 Du        
   8310 ****       157.2500 114.0000 148.0000 Du        
   8311 ****       157.2500 114.0000 148.2500 Du        
   8312 ****       157.2500 114.0000 148.5000 Du        
   8313 ****       157.2500 114.0000 148.7500 Du        
   8314 ****       157.2500 114.0000 149.0000 Du        
   8315 ****       157.2500 114.2500 136.0000 Du        
   8316 ****       157.2500 114.2500 136.2500 Du        
   8317 ****       157.2500 114.2500 147.2500 Du        
   8318 ****       157.2500 114.2500 147.5000 Du        
   8319 ****       157.2500 114.2500 147.7500 Du        
   8320 ****       157.2500 114.2500 148.0000 Du        
   8321 ****       157.2500 114.2500 148.2500 Du        
   8322 ****       157.2500 114.2500 148.5000 Du        
   8323 ****       157.2500 114.2500 148.7500 Du        
   8324 ****       157.2500 114.5000 136.0000 Du        
   8325 ****       157.2500 114.5000 136.2500 Du        
   8326 ****       157.2500 114.5000 146.5000 Du        
   8327 ****       157.2500 114.5000 146.7500 Du        
   8328 ****       157.2500 114.5000 147.0000 Du        
   8329 ****       157.2500 114.5000 147.2500 Du        
   8330 ****       157.2500 114.5000 147.5000 Du        
   8331 ****       157.2500 114.5000 147.7500 Du        
   8332 ****       157.2500 114.5000 148.0000 Du        
   8333 ****       157.2500 114.5000 148.2500 Du        
   8334 ****       157.2500 114.5000 148.5000 Du        
   8335 ****       157.2500 114.5000 148.7500 Du        
   8336 ****       157.2500 114.7500 135.7500 Du        
   8337 ****       157.2500 114.7500 136.0000 Du        
   8338 ****       157.2500 114.7500 136.2500 Du        
   8339 ****       157.2500 114.7500 136.5000 Du        
   8340 ****       157.2500 114.7500 146.5000 Du        
   8341 ****       157.2500 114.7500 146.7500 Du        
   8342 ****       157.2500 114.7500 147.0000 Du        
   8343 ****       157.2500 114.7500 147.2500 Du        
   8344 ****       157.2500 114.7500 147.5000 Du        
   8345 ****       157.2500 114.7500 147.7500 Du        
   8346 ****       157.2500 114.7500 148.0000 Du        
   8347 ****       157.2500 114.7500 148.2500 Du        
   8348 ****       157.2500 114.7500 148.5000 Du        
   8349 ****       157.2500 115.0000 135.7500 Du        
   8350 ****       157.2500 115.0000 136.0000 Du        
   8351 ****       157.2500 115.0000 136.2500 Du        
   8352 ****       157.2500 115.0000 146.0000 Du        
   8353 ****       157.2500 115.0000 146.2500 Du        
   8354 ****       157.2500 115.0000 146.5000 Du        
   8355 ****       157.2500 115.0000 146.7500 Du        
   8356 ****       157.2500 115.0000 147.0000 Du        
   8357 ****       157.2500 115.0000 147.2500 Du        
   8358 ****       157.2500 115.0000 147.5000 Du        
   8359 ****       157.2500 115.0000 147.7500 Du        
   8360 ****       157.2500 115.0000 148.0000 Du        
   8361 ****       157.2500 115.0000 148.2500 Du        
   8362 ****       157.2500 115.0000 148.5000 Du        
   8363 ****       157.2500 115.2500 135.7500 Du        
   8364 ****       157.2500 115.2500 136.0000 Du        
   8365 ****       157.2500 115.2500 136.2500 Du        
   8366 ****       157.2500 115.2500 145.7500 Du        
   8367 ****       157.2500 115.2500 146.0000 Du        
   8368 ****       157.2500 115.2500 146.2500 Du        
   8369 ****       157.2500 115.2500 146.5000 Du        
   8370 ****       157.2500 115.2500 146.7500 Du        
   8371 ****       157.2500 115.2500 147.0000 Du        
   8372 ****       157.2500 115.2500 147.2500 Du        
   8373 ****       157.2500 115.2500 147.5000 Du        
   8374 ****       157.2500 115.2500 147.7500 Du        
   8375 ****       157.2500 115.2500 148.0000 Du        
   8376 ****       157.2500 115.2500 148.2500 Du        
   8377 ****       157.2500 115.5000 135.7500 Du        
   8378 ****       157.2500 115.5000 136.0000 Du        
   8379 ****       157.2500 115.5000 136.2500 Du        
   8380 ****       157.2500 115.5000 145.5000 Du        
   8381 ****       157.2500 115.5000 145.7500 Du        
   8382 ****       157.2500 115.5000 146.0000 Du        
   8383 ****       157.2500 115.5000 146.2500 Du        
   8384 ****       157.2500 115.5000 146.5000 Du        
   8385 ****       157.2500 115.5000 146.7500 Du        
   8386 ****       157.2500 115.5000 147.0000 Du        
   8387 ****       157.2500 115.5000 147.2500 Du        
   8388 ****       157.2500 115.5000 147.5000 Du        
   8389 ****       157.2500 115.5000 147.7500 Du        
   8390 ****       157.2500 115.5000 148.0000 Du        
   8391 ****       157.2500 115.7500 135.5000 Du        
   8392 ****       157.2500 115.7500 135.7500 Du        
   8393 ****       157.2500 115.7500 136.0000 Du        
   8394 ****       157.2500 115.7500 136.2500 Du        
   8395 ****       157.2500 115.7500 145.5000 Du        
   8396 ****       157.2500 115.7500 145.7500 Du        
   8397 ****       157.2500 115.7500 146.5000 Du        
   8398 ****       157.2500 115.7500 146.7500 Du        
   8399 ****       157.2500 115.7500 147.0000 Du        
   8400 ****       157.2500 115.7500 147.2500 Du        
   8401 ****       157.2500 115.7500 147.5000 Du        
   8402 ****       157.2500 115.7500 147.7500 Du        
   8403 ****       157.2500 115.7500 148.0000 Du        
   8404 ****       157.2500 116.0000 135.2500 Du        
   8405 ****       157.2500 116.0000 135.5000 Du        
   8406 ****       157.2500 116.0000 135.7500 Du        
   8407 ****       157.2500 116.0000 136.0000 Du        
   8408 ****       157.2500 116.0000 136.2500 Du        
   8409 ****       157.2500 116.0000 144.0000 Du        
   8410 ****       157.2500 116.0000 144.5000 Du        
   8411 ****       157.2500 116.0000 144.7500 Du        
   8412 ****       157.2500 116.2500 135.2500 Du        
   8413 ****       157.2500 116.2500 135.5000 Du        
   8414 ****       157.2500 116.2500 135.7500 Du        
   8415 ****       157.2500 116.2500 136.0000 Du        
   8416 ****       157.2500 116.2500 136.2500 Du        
   8417 ****       157.2500 116.2500 143.5000 Du        
   8418 ****       157.2500 116.2500 143.7500 Du        
   8419 ****       157.2500 116.2500 144.0000 Du        
   8420 ****       157.2500 116.2500 144.2500 Du        
   8421 ****       157.2500 116.5000 135.0000 Du        
   8422 ****       157.2500 116.5000 135.2500 Du        
   8423 ****       157.2500 116.5000 135.5000 Du        
   8424 ****       157.2500 116.5000 135.7500 Du        
   8425 ****       157.2500 116.5000 136.0000 Du        
   8426 ****       157.2500 116.5000 136.2500 Du        
   8427 ****       157.2500 116.5000 141.7500 Du        
   8428 ****       157.2500 116.5000 142.0000 Du        
   8429 ****       157.2500 116.5000 142.2500 Du        
   8430 ****       157.2500 116.5000 142.5000 Du        
   8431 ****       157.2500 116.5000 142.7500 Du        
   8432 ****       157.2500 116.5000 143.0000 Du        
   8433 ****       157.2500 116.5000 143.2500 Du        
   8434 ****       157.2500 116.5000 143.5000 Du        
   8435 ****       157.2500 116.5000 143.7500 Du        
   8436 ****       157.2500 116.5000 144.0000 Du        
   8437 ****       157.2500 116.5000 144.2500 Du        
   8438 ****       157.2500 116.5000 144.5000 Du        
   8439 ****       157.2500 116.7500 134.7500 Du        
   8440 ****       157.2500 116.7500 135.0000 Du        
   8441 ****       157.2500 116.7500 135.2500 Du        
   8442 ****       157.2500 116.7500 135.5000 Du        
   8443 ****       157.2500 116.7500 135.7500 Du        
   8444 ****       157.2500 116.7500 136.0000 Du        
   8445 ****       157.2500 116.7500 136.2500 Du        
   8446 ****       157.2500 116.7500 141.2500 Du        
   8447 ****       157.2500 116.7500 141.5000 Du        
   8448 ****       157.2500 116.7500 141.7500 Du        
   8449 ****       157.2500 116.7500 142.0000 Du        
   8450 ****       157.2500 116.7500 142.2500 Du        
   8451 ****       157.2500 116.7500 142.5000 Du        
   8452 ****       157.2500 116.7500 142.7500 Du        
   8453 ****       157.2500 116.7500 143.0000 Du        
   8454 ****       157.2500 116.7500 143.2500 Du        
   8455 ****       157.2500 116.7500 143.5000 Du        
   8456 ****       157.2500 116.7500 143.7500 Du        
   8457 ****       157.2500 116.7500 144.0000 Du        
   8458 ****       157.2500 116.7500 144.2500 Du        
   8459 ****       157.2500 117.0000 134.7500 Du        
   8460 ****       157.2500 117.0000 135.0000 Du        
   8461 ****       157.2500 117.0000 135.2500 Du        
   8462 ****       157.2500 117.0000 135.5000 Du        
   8463 ****       157.2500 117.0000 135.7500 Du        
   8464 ****       157.2500 117.0000 136.0000 Du        
   8465 ****       157.2500 117.0000 136.2500 Du        
   8466 ****       157.2500 117.0000 140.7500 Du        
   8467 ****       157.2500 117.0000 141.0000 Du        
   8468 ****       157.2500 117.0000 141.2500 Du        
   8469 ****       157.2500 117.0000 141.5000 Du        
   8470 ****       157.2500 117.0000 141.7500 Du        
   8471 ****       157.2500 117.0000 142.0000 Du        
   8472 ****       157.2500 117.0000 142.2500 Du        
   8473 ****       157.2500 117.0000 142.5000 Du        
   8474 ****       157.2500 117.0000 142.7500 Du        
   8475 ****       157.2500 117.0000 143.0000 Du        
   8476 ****       157.2500 117.0000 143.2500 Du        
   8477 ****       157.2500 117.0000 143.5000 Du        
   8478 ****       157.2500 117.0000 143.7500 Du        
   8479 ****       157.2500 117.0000 144.0000 Du        
   8480 ****       157.2500 117.2500 135.0000 Du        
   8481 ****       157.2500 117.2500 135.2500 Du        
   8482 ****       157.2500 117.2500 135.5000 Du        
   8483 ****       157.2500 117.2500 135.7500 Du        
   8484 ****       157.2500 117.2500 136.0000 Du        
   8485 ****       157.2500 117.2500 136.2500 Du        
   8486 ****       157.2500 117.2500 140.5000 Du        
   8487 ****       157.2500 117.2500 140.7500 Du        
   8488 ****       157.2500 117.2500 141.0000 Du        
   8489 ****       157.2500 117.2500 141.2500 Du        
   8490 ****       157.2500 117.2500 141.5000 Du        
   8491 ****       157.2500 117.2500 141.7500 Du        
   8492 ****       157.2500 117.2500 142.0000 Du        
   8493 ****       157.2500 117.2500 142.2500 Du        
   8494 ****       157.2500 117.2500 142.5000 Du        
   8495 ****       157.2500 117.2500 142.7500 Du        
   8496 ****       157.2500 117.2500 143.0000 Du        
   8497 ****       157.2500 117.2500 143.2500 Du        
   8498 ****       157.2500 117.2500 143.5000 Du        
   8499 ****       157.2500 117.5000 135.2500 Du        
   8500 ****       157.2500 117.5000 135.5000 Du        
   8501 ****       157.2500 117.5000 135.7500 Du        
   8502 ****       157.2500 117.5000 136.0000 Du        
   8503 ****       157.2500 117.5000 136.2500 Du        
   8504 ****       157.2500 117.5000 139.5000 Du        
   8505 ****       157.2500 117.5000 139.7500 Du        
   8506 ****       157.2500 117.5000 140.0000 Du        
   8507 ****       157.2500 117.5000 140.2500 Du        
   8508 ****       157.2500 117.5000 140.5000 Du        
   8509 ****       157.2500 117.5000 140.7500 Du        
   8510 ****       157.2500 117.5000 141.0000 Du        
   8511 ****       157.2500 117.5000 141.2500 Du        
   8512 ****       157.2500 117.5000 141.5000 Du        
   8513 ****       157.2500 117.5000 141.7500 Du        
   8514 ****       157.2500 117.5000 142.0000 Du        
   8515 ****       157.2500 117.5000 142.2500 Du        
   8516 ****       157.2500 117.5000 142.5000 Du        
   8517 ****       157.2500 117.5000 142.7500 Du        
   8518 ****       157.2500 117.5000 143.0000 Du        
   8519 ****       157.2500 117.5000 143.2500 Du        
   8520 ****       157.2500 117.7500 135.5000 Du        
   8521 ****       157.2500 117.7500 135.7500 Du        
   8522 ****       157.2500 117.7500 136.0000 Du        
   8523 ****       157.2500 117.7500 136.2500 Du        
   8524 ****       157.2500 117.7500 139.2500 Du        
   8525 ****       157.2500 117.7500 139.5000 Du        
   8526 ****       157.2500 117.7500 139.7500 Du        
   8527 ****       157.2500 117.7500 140.0000 Du        
   8528 ****       157.2500 117.7500 140.2500 Du        
   8529 ****       157.2500 117.7500 140.5000 Du        
   8530 ****       157.2500 117.7500 140.7500 Du        
   8531 ****       157.2500 117.7500 141.0000 Du        
   8532 ****       157.2500 117.7500 141.2500 Du        
   8533 ****       157.2500 117.7500 141.5000 Du        
   8534 ****       157.2500 117.7500 141.7500 Du        
   8535 ****       157.2500 117.7500 142.0000 Du        
   8536 ****       157.2500 117.7500 142.2500 Du        
   8537 ****       157.2500 117.7500 142.5000 Du        
   8538 ****       157.2500 117.7500 142.7500 Du        
   8539 ****       157.2500 118.0000 135.7500 Du        
   8540 ****       157.2500 118.0000 136.0000 Du        
   8541 ****       157.2500 118.0000 139.0000 Du        
   8542 ****       157.2500 118.0000 139.2500 Du        
   8543 ****       157.2500 118.0000 139.7500 Du        
   8544 ****       157.2500 118.0000 140.0000 Du        
   8545 ****       157.2500 118.0000 140.2500 Du        
   8546 ****       157.2500 118.0000 140.5000 Du        
   8547 ****       157.2500 118.0000 140.7500 Du        
   8548 ****       157.2500 118.0000 141.0000 Du        
   8549 ****       157.2500 118.0000 141.2500 Du        
   8550 ****       157.2500 118.0000 141.5000 Du        
   8551 ****       157.2500 118.0000 141.7500 Du        
   8552 ****       157.2500 118.0000 142.0000 Du        
   8553 ****       157.2500 118.0000 142.2500 Du        
   8554 ****       157.5000 101.0000 147.0000 Du        
   8555 ****       157.5000 101.0000 147.2500 Du        
   8556 ****       157.5000 101.2500 147.0000 Du        
   8557 ****       157.5000 101.2500 147.2500 Du        
   8558 ****       157.5000 101.2500 147.5000 Du        
   8559 ****       157.5000 101.5000 147.0000 Du        
   8560 ****       157.5000 101.5000 147.2500 Du        
   8561 ****       157.5000 101.5000 147.5000 Du        
   8562 ****       157.5000 101.7500 147.0000 Du        
   8563 ****       157.5000 101.7500 147.2500 Du        
   8564 ****       157.5000 101.7500 147.5000 Du        
   8565 ****       157.5000 101.7500 147.7500 Du        
   8566 ****       157.5000 102.0000 147.0000 Du        
   8567 ****       157.5000 102.0000 147.2500 Du        
   8568 ****       157.5000 102.0000 147.5000 Du        
   8569 ****       157.5000 102.0000 147.7500 Du        
   8570 ****       157.5000 102.2500 146.7500 Du        
   8571 ****       157.5000 102.2500 147.0000 Du        
   8572 ****       157.5000 102.2500 147.2500 Du        
   8573 ****       157.5000 102.2500 147.5000 Du        
   8574 ****       157.5000 102.2500 147.7500 Du        
   8575 ****       157.5000 102.2500 148.0000 Du        
   8576 ****       157.5000 102.5000 147.0000 Du        
   8577 ****       157.5000 102.5000 147.2500 Du        
   8578 ****       157.5000 102.5000 147.5000 Du        
   8579 ****       157.5000 102.7500 147.0000 Du        
   8580 ****       157.5000 102.7500 147.2500 Du        
   8581 ****       157.5000 103.0000 147.2500 Du        
   8582 ****       157.5000 108.7500 152.7500 Du        
   8583 ****       157.5000 108.7500 153.0000 Du        
   8584 ****       157.5000 109.0000 152.2500 Du        
   8585 ****       157.5000 109.0000 152.5000 Du        
   8586 ****       157.5000 109.0000 152.7500 Du        
   8587 ****       157.5000 109.0000 153.0000 Du        
   8588 ****       157.5000 109.2500 152.0000 Du        
   8589 ****       157.5000 109.2500 152.2500 Du        
   8590 ****       157.5000 109.2500 152.5000 Du        
   8591 ****       157.5000 109.2500 152.7500 Du        
   8592 ****       157.5000 109.2500 153.0000 Du        
   8593 ****       157.5000 109.5000 151.7500 Du        
   8594 ****       157.5000 109.5000 152.0000 Du        
   8595 ****       157.5000 109.5000 152.2500 Du        
   8596 ****       157.5000 109.5000 152.5000 Du        
   8597 ****       157.5000 109.5000 152.7500 Du        
   8598 ****       157.5000 109.7500 151.5000 Du        
   8599 ****       157.5000 109.7500 151.7500 Du        
   8600 ****       157.5000 109.7500 152.0000 Du        
   8601 ****       157.5000 109.7500 152.2500 Du        
   8602 ****       157.5000 109.7500 152.5000 Du        
   8603 ****       157.5000 109.7500 152.7500 Du        
   8604 ****       157.5000 110.0000 151.0000 Du        
   8605 ****       157.5000 110.0000 151.2500 Du        
   8606 ****       157.5000 110.0000 151.5000 Du        
   8607 ****       157.5000 110.0000 151.7500 Du        
   8608 ****       157.5000 110.0000 152.0000 Du        
   8609 ****       157.5000 110.0000 152.2500 Du        
   8610 ****       157.5000 110.0000 152.5000 Du        
   8611 ****       157.5000 110.2500 150.7500 Du        
   8612 ****       157.5000 110.2500 151.0000 Du        
   8613 ****       157.5000 110.2500 151.2500 Du        
   8614 ****       157.5000 110.2500 151.5000 Du        
   8615 ****       157.5000 110.2500 151.7500 Du        
   8616 ****       157.5000 110.2500 152.0000 Du        
   8617 ****       157.5000 110.2500 152.2500 Du        
   8618 ****       157.5000 110.5000 150.2500 Du        
   8619 ****       157.5000 110.5000 150.5000 Du        
   8620 ****       157.5000 110.5000 150.7500 Du        
   8621 ****       157.5000 110.5000 151.0000 Du        
   8622 ****       157.5000 110.5000 151.2500 Du        
   8623 ****       157.5000 110.5000 151.5000 Du        
   8624 ****       157.5000 110.5000 151.7500 Du        
   8625 ****       157.5000 110.5000 152.0000 Du        
   8626 ****       157.5000 110.7500 149.7500 Du        
   8627 ****       157.5000 110.7500 150.0000 Du        
   8628 ****       157.5000 110.7500 150.2500 Du        
   8629 ****       157.5000 110.7500 150.5000 Du        
   8630 ****       157.5000 110.7500 150.7500 Du        
   8631 ****       157.5000 110.7500 151.0000 Du        
   8632 ****       157.5000 110.7500 151.2500 Du        
   8633 ****       157.5000 110.7500 151.5000 Du        
   8634 ****       157.5000 111.0000 136.7500 Du        
   8635 ****       157.5000 111.0000 137.0000 Du        
   8636 ****       157.5000 111.0000 149.5000 Du        
   8637 ****       157.5000 111.0000 149.7500 Du        
   8638 ****       157.5000 111.0000 150.0000 Du        
   8639 ****       157.5000 111.0000 150.2500 Du        
   8640 ****       157.5000 111.0000 150.5000 Du        
   8641 ****       157.5000 111.0000 150.7500 Du        
   8642 ****       157.5000 111.0000 151.0000 Du        
   8643 ****       157.5000 111.0000 151.2500 Du        
   8644 ****       157.5000 111.2500 137.0000 Du        
   8645 ****       157.5000 111.2500 149.2500 Du        
   8646 ****       157.5000 111.2500 149.5000 Du        
   8647 ****       157.5000 111.2500 149.7500 Du        
   8648 ****       157.5000 111.2500 150.0000 Du        
   8649 ****       157.5000 111.2500 150.2500 Du        
   8650 ****       157.5000 111.2500 150.5000 Du        
   8651 ****       157.5000 111.2500 150.7500 Du        
   8652 ****       157.5000 111.5000 149.0000 Du        
   8653 ****       157.5000 111.5000 149.2500 Du        
   8654 ****       157.5000 111.5000 149.5000 Du        
   8655 ****       157.5000 111.5000 149.7500 Du        
   8656 ****       157.5000 111.5000 150.0000 Du        
   8657 ****       157.5000 111.5000 150.2500 Du        
   8658 ****       157.5000 111.5000 150.5000 Du        
   8659 ****       157.5000 111.7500 149.0000 Du        
   8660 ****       157.5000 111.7500 149.2500 Du        
   8661 ****       157.5000 111.7500 149.5000 Du        
   8662 ****       157.5000 111.7500 149.7500 Du        
   8663 ****       157.5000 111.7500 150.0000 Du        
   8664 ****       157.5000 111.7500 150.2500 Du        
   8665 ****       157.5000 112.0000 148.7500 Du        
   8666 ****       157.5000 112.0000 149.0000 Du        
   8667 ****       157.5000 112.0000 149.2500 Du        
   8668 ****       157.5000 112.0000 149.5000 Du        
   8669 ****       157.5000 112.0000 149.7500 Du        
   8670 ****       157.5000 112.0000 150.0000 Du        
   8671 ****       157.5000 112.2500 148.7500 Du        
   8672 ****       157.5000 112.2500 149.0000 Du        
   8673 ****       157.5000 112.2500 149.2500 Du        
   8674 ****       157.5000 112.2500 149.5000 Du        
   8675 ****       157.5000 112.2500 149.7500 Du        
   8676 ****       157.5000 112.5000 148.5000 Du        
   8677 ****       157.5000 112.5000 148.7500 Du        
   8678 ****       157.5000 112.5000 149.0000 Du        
   8679 ****       157.5000 112.5000 149.2500 Du        
   8680 ****       157.5000 112.5000 149.5000 Du        
   8681 ****       157.5000 112.5000 149.7500 Du        
   8682 ****       157.5000 112.7500 148.2500 Du        
   8683 ****       157.5000 112.7500 148.5000 Du        
   8684 ****       157.5000 112.7500 148.7500 Du        
   8685 ****       157.5000 112.7500 149.0000 Du        
   8686 ****       157.5000 112.7500 149.2500 Du        
   8687 ****       157.5000 112.7500 149.5000 Du        
   8688 ****       157.5000 113.0000 148.0000 Du        
   8689 ****       157.5000 113.0000 148.2500 Du        
   8690 ****       157.5000 113.0000 148.5000 Du        
   8691 ****       157.5000 113.0000 148.7500 Du        
   8692 ****       157.5000 113.0000 149.0000 Du        
   8693 ****       157.5000 113.0000 149.2500 Du        
   8694 ****       157.5000 113.0000 149.5000 Du        
   8695 ****       157.5000 113.2500 148.0000 Du        
   8696 ****       157.5000 113.2500 148.2500 Du        
   8697 ****       157.5000 113.2500 148.5000 Du        
   8698 ****       157.5000 113.2500 148.7500 Du        
   8699 ****       157.5000 113.2500 149.0000 Du        
   8700 ****       157.5000 113.2500 149.2500 Du        
   8701 ****       157.5000 113.2500 149.5000 Du        
   8702 ****       157.5000 113.5000 147.7500 Du        
   8703 ****       157.5000 113.5000 148.0000 Du        
   8704 ****       157.5000 113.5000 148.2500 Du        
   8705 ****       157.5000 113.5000 148.5000 Du        
   8706 ****       157.5000 113.5000 148.7500 Du        
   8707 ****       157.5000 113.5000 149.0000 Du        
   8708 ****       157.5000 113.5000 149.2500 Du        
   8709 ****       157.5000 113.5000 149.5000 Du        
   8710 ****       157.5000 113.7500 147.5000 Du        
   8711 ****       157.5000 113.7500 147.7500 Du        
   8712 ****       157.5000 113.7500 148.0000 Du        
   8713 ****       157.5000 113.7500 148.2500 Du        
   8714 ****       157.5000 113.7500 148.5000 Du        
   8715 ****       157.5000 113.7500 148.7500 Du        
   8716 ****       157.5000 113.7500 149.0000 Du        
   8717 ****       157.5000 113.7500 149.2500 Du        
   8718 ****       157.5000 113.7500 149.5000 Du        
   8719 ****       157.5000 114.0000 147.2500 Du        
   8720 ****       157.5000 114.0000 147.5000 Du        
   8721 ****       157.5000 114.0000 147.7500 Du        
   8722 ****       157.5000 114.0000 148.0000 Du        
   8723 ****       157.5000 114.0000 148.2500 Du        
   8724 ****       157.5000 114.0000 148.5000 Du        
   8725 ****       157.5000 114.0000 148.7500 Du        
   8726 ****       157.5000 114.0000 149.0000 Du        
   8727 ****       157.5000 114.0000 149.2500 Du        
   8728 ****       157.5000 114.2500 147.2500 Du        
   8729 ****       157.5000 114.2500 147.5000 Du        
   8730 ****       157.5000 114.2500 147.7500 Du        
   8731 ****       157.5000 114.2500 148.0000 Du        
   8732 ****       157.5000 114.2500 148.2500 Du        
   8733 ****       157.5000 114.2500 148.5000 Du        
   8734 ****       157.5000 114.2500 148.7500 Du        
   8735 ****       157.5000 114.2500 149.0000 Du        
   8736 ****       157.5000 114.5000 146.5000 Du        
   8737 ****       157.5000 114.5000 146.7500 Du        
   8738 ****       157.5000 114.5000 147.0000 Du        
   8739 ****       157.5000 114.5000 147.2500 Du        
   8740 ****       157.5000 114.5000 147.5000 Du        
   8741 ****       157.5000 114.5000 147.7500 Du        
   8742 ****       157.5000 114.5000 148.0000 Du        
   8743 ****       157.5000 114.5000 148.2500 Du        
   8744 ****       157.5000 114.5000 148.5000 Du        
   8745 ****       157.5000 114.5000 148.7500 Du        
   8746 ****       157.5000 114.7500 146.5000 Du        
   8747 ****       157.5000 114.7500 146.7500 Du        
   8748 ****       157.5000 114.7500 147.0000 Du        
   8749 ****       157.5000 114.7500 147.2500 Du        
   8750 ****       157.5000 114.7500 147.5000 Du        
   8751 ****       157.5000 114.7500 147.7500 Du        
   8752 ****       157.5000 114.7500 148.0000 Du        
   8753 ****       157.5000 114.7500 148.2500 Du        
   8754 ****       157.5000 114.7500 148.5000 Du        
   8755 ****       157.5000 115.0000 146.0000 Du        
   8756 ****       157.5000 115.0000 146.2500 Du        
   8757 ****       157.5000 115.0000 146.5000 Du        
   8758 ****       157.5000 115.0000 146.7500 Du        
   8759 ****       157.5000 115.0000 147.0000 Du        
   8760 ****       157.5000 115.0000 147.2500 Du        
   8761 ****       157.5000 115.0000 147.5000 Du        
   8762 ****       157.5000 115.0000 147.7500 Du        
   8763 ****       157.5000 115.0000 148.0000 Du        
   8764 ****       157.5000 115.0000 148.2500 Du        
   8765 ****       157.5000 115.2500 136.0000 Du        
   8766 ****       157.5000 115.2500 145.7500 Du        
   8767 ****       157.5000 115.2500 146.0000 Du        
   8768 ****       157.5000 115.2500 146.2500 Du        
   8769 ****       157.5000 115.2500 146.5000 Du        
   8770 ****       157.5000 115.2500 146.7500 Du        
   8771 ****       157.5000 115.2500 147.0000 Du        
   8772 ****       157.5000 115.2500 147.2500 Du        
   8773 ****       157.5000 115.2500 147.5000 Du        
   8774 ****       157.5000 115.2500 147.7500 Du        
   8775 ****       157.5000 115.2500 148.0000 Du        
   8776 ****       157.5000 115.2500 148.2500 Du        
   8777 ****       157.5000 115.5000 135.7500 Du        
   8778 ****       157.5000 115.5000 136.0000 Du        
   8779 ****       157.5000 115.5000 136.2500 Du        
   8780 ****       157.5000 115.5000 145.7500 Du        
   8781 ****       157.5000 115.5000 146.0000 Du        
   8782 ****       157.5000 115.5000 146.2500 Du        
   8783 ****       157.5000 115.5000 146.5000 Du        
   8784 ****       157.5000 115.5000 146.7500 Du        
   8785 ****       157.5000 115.5000 147.0000 Du        
   8786 ****       157.5000 115.5000 147.2500 Du        
   8787 ****       157.5000 115.5000 147.5000 Du        
   8788 ****       157.5000 115.5000 147.7500 Du        
   8789 ****       157.5000 115.5000 148.0000 Du        
   8790 ****       157.5000 115.7500 135.7500 Du        
   8791 ****       157.5000 115.7500 136.0000 Du        
   8792 ****       157.5000 115.7500 136.2500 Du        
   8793 ****       157.5000 115.7500 144.7500 Du        
   8794 ****       157.5000 115.7500 145.5000 Du        
   8795 ****       157.5000 115.7500 147.0000 Du        
   8796 ****       157.5000 115.7500 147.2500 Du        
   8797 ****       157.5000 115.7500 147.5000 Du        
   8798 ****       157.5000 115.7500 147.7500 Du        
   8799 ****       157.5000 115.7500 148.0000 Du        
   8800 ****       157.5000 116.0000 135.5000 Du        
   8801 ****       157.5000 116.0000 135.7500 Du        
   8802 ****       157.5000 116.0000 136.0000 Du        
   8803 ****       157.5000 116.0000 136.2500 Du        
   8804 ****       157.5000 116.0000 143.7500 Du        
   8805 ****       157.5000 116.0000 144.0000 Du        
   8806 ****       157.5000 116.0000 144.2500 Du        
   8807 ****       157.5000 116.0000 144.5000 Du        
   8808 ****       157.5000 116.0000 144.7500 Du        
   8809 ****       157.5000 116.2500 135.2500 Du        
   8810 ****       157.5000 116.2500 135.5000 Du        
   8811 ****       157.5000 116.2500 135.7500 Du        
   8812 ****       157.5000 116.2500 136.0000 Du        
   8813 ****       157.5000 116.2500 136.2500 Du        
   8814 ****       157.5000 116.2500 143.0000 Du        
   8815 ****       157.5000 116.2500 143.5000 Du        
   8816 ****       157.5000 116.2500 143.7500 Du        
   8817 ****       157.5000 116.2500 144.0000 Du        
   8818 ****       157.5000 116.2500 144.2500 Du        
   8819 ****       157.5000 116.2500 144.5000 Du        
   8820 ****       157.5000 116.5000 135.0000 Du        
   8821 ****       157.5000 116.5000 135.2500 Du        
   8822 ****       157.5000 116.5000 135.5000 Du        
   8823 ****       157.5000 116.5000 135.7500 Du        
   8824 ****       157.5000 116.5000 136.0000 Du        
   8825 ****       157.5000 116.5000 136.2500 Du        
   8826 ****       157.5000 116.5000 141.7500 Du        
   8827 ****       157.5000 116.5000 142.0000 Du        
   8828 ****       157.5000 116.5000 142.2500 Du        
   8829 ****       157.5000 116.5000 142.5000 Du        
   8830 ****       157.5000 116.5000 142.7500 Du        
   8831 ****       157.5000 116.5000 143.0000 Du        
   8832 ****       157.5000 116.5000 143.2500 Du        
   8833 ****       157.5000 116.5000 143.5000 Du        
   8834 ****       157.5000 116.5000 143.7500 Du        
   8835 ****       157.5000 116.5000 144.0000 Du        
   8836 ****       157.5000 116.5000 144.2500 Du        
   8837 ****       157.5000 116.5000 144.5000 Du        
   8838 ****       157.5000 116.7500 134.7500 Du        
   8839 ****       157.5000 116.7500 135.0000 Du        
   8840 ****       157.5000 116.7500 135.2500 Du        
   8841 ****       157.5000 116.7500 135.5000 Du        
   8842 ****       157.5000 116.7500 135.7500 Du        
   8843 ****       157.5000 116.7500 136.0000 Du        
   8844 ****       157.5000 116.7500 136.2500 Du        
   8845 ****       157.5000 116.7500 141.2500 Du        
   8846 ****       157.5000 116.7500 141.5000 Du        
   8847 ****       157.5000 116.7500 141.7500 Du        
   8848 ****       157.5000 116.7500 142.0000 Du        
   8849 ****       157.5000 116.7500 142.2500 Du        
   8850 ****       157.5000 116.7500 142.5000 Du        
   8851 ****       157.5000 116.7500 142.7500 Du        
   8852 ****       157.5000 116.7500 143.0000 Du        
   8853 ****       157.5000 116.7500 143.2500 Du        
   8854 ****       157.5000 116.7500 143.5000 Du        
   8855 ****       157.5000 116.7500 143.7500 Du        
   8856 ****       157.5000 116.7500 144.0000 Du        
   8857 ****       157.5000 116.7500 144.2500 Du        
   8858 ****       157.5000 117.0000 134.7500 Du        
   8859 ****       157.5000 117.0000 135.0000 Du        
   8860 ****       157.5000 117.0000 135.2500 Du        
   8861 ****       157.5000 117.0000 135.5000 Du        
   8862 ****       157.5000 117.0000 135.7500 Du        
   8863 ****       157.5000 117.0000 136.0000 Du        
   8864 ****       157.5000 117.0000 136.2500 Du        
   8865 ****       157.5000 117.0000 136.5000 Du        
   8866 ****       157.5000 117.0000 136.7500 Du        
   8867 ****       157.5000 117.0000 140.5000 Du        
   8868 ****       157.5000 117.0000 140.7500 Du        
   8869 ****       157.5000 117.0000 141.0000 Du        
   8870 ****       157.5000 117.0000 141.2500 Du        
   8871 ****       157.5000 117.0000 141.5000 Du        
   8872 ****       157.5000 117.0000 141.7500 Du        
   8873 ****       157.5000 117.0000 142.0000 Du        
   8874 ****       157.5000 117.0000 142.2500 Du        
   8875 ****       157.5000 117.0000 142.5000 Du        
   8876 ****       157.5000 117.0000 142.7500 Du        
   8877 ****       157.5000 117.0000 143.0000 Du        
   8878 ****       157.5000 117.0000 143.2500 Du        
   8879 ****       157.5000 117.0000 143.5000 Du        
   8880 ****       157.5000 117.0000 143.7500 Du        
   8881 ****       157.5000 117.0000 144.0000 Du        
   8882 ****       157.5000 117.2500 135.0000 Du        
   8883 ****       157.5000 117.2500 135.2500 Du        
   8884 ****       157.5000 117.2500 135.5000 Du        
   8885 ****       157.5000 117.2500 135.7500 Du        
   8886 ****       157.5000 117.2500 136.0000 Du        
   8887 ****       157.5000 117.2500 136.2500 Du        
   8888 ****       157.5000 117.2500 136.5000 Du        
   8889 ****       157.5000 117.2500 136.7500 Du        
   8890 ****       157.5000 117.2500 137.0000 Du        
   8891 ****       157.5000 117.2500 137.2500 Du        
   8892 ****       157.5000 117.2500 139.7500 Du        
   8893 ****       157.5000 117.2500 140.0000 Du        
   8894 ****       157.5000 117.2500 140.2500 Du        
   8895 ****       157.5000 117.2500 140.5000 Du        
   8896 ****       157.5000 117.2500 140.7500 Du        
   8897 ****       157.5000 117.2500 141.0000 Du        
   8898 ****       157.5000 117.2500 141.2500 Du        
   8899 ****       157.5000 117.2500 141.5000 Du        
   8900 ****       157.5000 117.2500 141.7500 Du        
   8901 ****       157.5000 117.2500 142.0000 Du        
   8902 ****       157.5000 117.2500 142.2500 Du        
   8903 ****       157.5000 117.2500 142.5000 Du        
   8904 ****       157.5000 117.2500 142.7500 Du        
   8905 ****       157.5000 117.2500 143.0000 Du        
   8906 ****       157.5000 117.2500 143.2500 Du        
   8907 ****       157.5000 117.2500 143.5000 Du        
   8908 ****       157.5000 117.2500 143.7500 Du        
   8909 ****       157.5000 117.2500 144.0000 Du        
   8910 ****       157.5000 117.5000 135.2500 Du        
   8911 ****       157.5000 117.5000 135.5000 Du        
   8912 ****       157.5000 117.5000 135.7500 Du        
   8913 ****       157.5000 117.5000 136.0000 Du        
   8914 ****       157.5000 117.5000 136.2500 Du        
   8915 ****       157.5000 117.5000 136.5000 Du        
   8916 ****       157.5000 117.5000 136.7500 Du        
   8917 ****       157.5000 117.5000 137.0000 Du        
   8918 ****       157.5000 117.5000 137.2500 Du        
   8919 ****       157.5000 117.5000 138.7500 Du        
   8920 ****       157.5000 117.5000 139.0000 Du        
   8921 ****       157.5000 117.5000 139.2500 Du        
   8922 ****       157.5000 117.5000 139.5000 Du        
   8923 ****       157.5000 117.5000 139.7500 Du        
   8924 ****       157.5000 117.5000 140.0000 Du        
   8925 ****       157.5000 117.5000 140.2500 Du        
   8926 ****       157.5000 117.5000 140.5000 Du        
   8927 ****       157.5000 117.5000 140.7500 Du        
   8928 ****       157.5000 117.5000 141.0000 Du        
   8929 ****       157.5000 117.5000 141.2500 Du        
   8930 ****       157.5000 117.5000 141.5000 Du        
   8931 ****       157.5000 117.5000 141.7500 Du        
   8932 ****       157.5000 117.5000 142.0000 Du        
   8933 ****       157.5000 117.5000 142.2500 Du        
   8934 ****       157.5000 117.5000 142.5000 Du        
   8935 ****       157.5000 117.5000 142.7500 Du        
   8936 ****       157.5000 117.5000 143.0000 Du        
   8937 ****       157.5000 117.5000 143.2500 Du        
   8938 ****       157.5000 117.5000 143.5000 Du        
   8939 ****       157.5000 117.5000 143.7500 Du        
   8940 ****       157.5000 117.7500 135.2500 Du        
   8941 ****       157.5000 117.7500 135.5000 Du        
   8942 ****       157.5000 117.7500 135.7500 Du        
   8943 ****       157.5000 117.7500 136.0000 Du        
   8944 ****       157.5000 117.7500 136.2500 Du        
   8945 ****       157.5000 117.7500 136.5000 Du        
   8946 ****       157.5000 117.7500 136.7500 Du        
   8947 ****       157.5000 117.7500 137.0000 Du        
   8948 ****       157.5000 117.7500 138.7500 Du        
   8949 ****       157.5000 117.7500 139.0000 Du        
   8950 ****       157.5000 117.7500 139.2500 Du        
   8951 ****       157.5000 117.7500 139.5000 Du        
   8952 ****       157.5000 117.7500 139.7500 Du        
   8953 ****       157.5000 117.7500 140.0000 Du        
   8954 ****       157.5000 117.7500 140.2500 Du        
   8955 ****       157.5000 117.7500 140.5000 Du        
   8956 ****       157.5000 117.7500 140.7500 Du        
   8957 ****       157.5000 117.7500 141.0000 Du        
   8958 ****       157.5000 117.7500 141.2500 Du        
   8959 ****       157.5000 117.7500 141.5000 Du        
   8960 ****       157.5000 117.7500 141.7500 Du        
   8961 ****       157.5000 117.7500 142.0000 Du        
   8962 ****       157.5000 117.7500 142.2500 Du        
   8963 ****       157.5000 117.7500 142.5000 Du        
   8964 ****       157.5000 117.7500 142.7500 Du        
   8965 ****       157.5000 117.7500 143.0000 Du        
   8966 ****       157.5000 117.7500 143.2500 Du        
   8967 ****       157.5000 117.7500 143.5000 Du        
   8968 ****       157.5000 118.0000 135.5000 Du        
   8969 ****       157.5000 118.0000 135.7500 Du        
   8970 ****       157.5000 118.0000 136.0000 Du        
   8971 ****       157.5000 118.0000 138.7500 Du        
   8972 ****       157.5000 118.0000 139.0000 Du        
   8973 ****       157.5000 118.0000 139.2500 Du        
   8974 ****       157.5000 118.0000 139.5000 Du        
   8975 ****       157.5000 118.0000 139.7500 Du        
   8976 ****       157.5000 118.0000 140.0000 Du        
   8977 ****       157.5000 118.0000 140.2500 Du        
   8978 ****       157.5000 118.0000 140.5000 Du        
   8979 ****       157.5000 118.0000 140.7500 Du        
   8980 ****       157.5000 118.0000 141.0000 Du        
   8981 ****       157.5000 118.0000 141.2500 Du        
   8982 ****       157.5000 118.0000 141.5000 Du        
   8983 ****       157.5000 118.0000 141.7500 Du        
   8984 ****       157.5000 118.0000 142.0000 Du        
   8985 ****       157.5000 118.0000 142.2500 Du        
   8986 ****       157.5000 118.0000 142.5000 Du        
   8987 ****       157.5000 118.0000 142.7500 Du        
   8988 ****       157.5000 118.0000 143.0000 Du        
   8989 ****       157.5000 118.0000 143.2500 Du        
   8990 ****       157.5000 118.2500 138.7500 Du        
   8991 ****       157.5000 118.2500 139.0000 Du        
   8992 ****       157.5000 118.2500 139.2500 Du        
   8993 ****       157.5000 118.2500 139.5000 Du        
   8994 ****       157.5000 118.2500 139.7500 Du        
   8995 ****       157.5000 118.2500 140.0000 Du        
   8996 ****       157.5000 118.2500 140.2500 Du        
   8997 ****       157.7500 100.7500 147.0000 Du        
   8998 ****       157.7500 100.7500 147.2500 Du        
   8999 ****       157.7500 101.0000 147.0000 Du        
   9000 ****       157.7500 101.0000 147.2500 Du        
   9001 ****       157.7500 101.0000 147.5000 Du        
   9002 ****       157.7500 101.2500 146.7500 Du        
   9003 ****       157.7500 101.2500 147.0000 Du        
   9004 ****       157.7500 101.2500 147.2500 Du        
   9005 ****       157.7500 101.2500 147.5000 Du        
   9006 ****       157.7500 101.5000 146.7500 Du        
   9007 ****       157.7500 101.5000 147.0000 Du        
   9008 ****       157.7500 101.5000 147.2500 Du        
   9009 ****       157.7500 101.5000 147.5000 Du        
   9010 ****       157.7500 101.5000 147.7500 Du        
   9011 ****       157.7500 101.7500 146.7500 Du        
   9012 ****       157.7500 101.7500 147.0000 Du        
   9013 ****       157.7500 101.7500 147.2500 Du        
   9014 ****       157.7500 101.7500 147.5000 Du        
   9015 ****       157.7500 101.7500 147.7500 Du        
   9016 ****       157.7500 102.0000 146.7500 Du        
   9017 ****       157.7500 102.0000 147.0000 Du        
   9018 ****       157.7500 102.0000 147.2500 Du        
   9019 ****       157.7500 102.0000 147.5000 Du        
   9020 ****       157.7500 102.0000 147.7500 Du        
   9021 ****       157.7500 102.0000 148.0000 Du        
   9022 ****       157.7500 102.2500 146.7500 Du        
   9023 ****       157.7500 102.2500 147.0000 Du        
   9024 ****       157.7500 102.2500 147.2500 Du        
   9025 ****       157.7500 102.2500 147.5000 Du        
   9026 ****       157.7500 102.2500 147.7500 Du        
   9027 ****       157.7500 102.2500 148.0000 Du        
   9028 ****       157.7500 102.5000 147.0000 Du        
   9029 ****       157.7500 102.5000 147.2500 Du        
   9030 ****       157.7500 102.5000 147.5000 Du        
   9031 ****       157.7500 102.7500 147.0000 Du        
   9032 ****       157.7500 102.7500 147.2500 Du        
   9033 ****       157.7500 108.7500 152.7500 Du        
   9034 ****       157.7500 108.7500 153.0000 Du        
   9035 ****       157.7500 109.0000 152.5000 Du        
   9036 ****       157.7500 109.0000 152.7500 Du        
   9037 ****       157.7500 109.0000 153.0000 Du        
   9038 ****       157.7500 109.2500 152.5000 Du        
   9039 ****       157.7500 109.2500 152.7500 Du        
   9040 ****       157.7500 109.5000 152.2500 Du        
   9041 ****       157.7500 109.5000 152.5000 Du        
   9042 ****       157.7500 109.5000 152.7500 Du        
   9043 ****       157.7500 109.7500 152.0000 Du        
   9044 ****       157.7500 109.7500 152.2500 Du        
   9045 ****       157.7500 109.7500 152.5000 Du        
   9046 ****       157.7500 110.0000 136.2500 Du        
   9047 ****       157.7500 110.0000 136.5000 Du        
   9048 ****       157.7500 110.0000 136.7500 Du        
   9049 ****       157.7500 110.0000 137.0000 Du        
   9050 ****       157.7500 110.0000 152.0000 Du        
   9051 ****       157.7500 110.0000 152.2500 Du        
   9052 ****       157.7500 110.0000 152.5000 Du        
   9053 ****       157.7500 110.2500 136.2500 Du        
   9054 ****       157.7500 110.2500 136.5000 Du        
   9055 ****       157.7500 110.2500 136.7500 Du        
   9056 ****       157.7500 110.2500 137.0000 Du        
   9057 ****       157.7500 110.2500 137.2500 Du        
   9058 ****       157.7500 110.5000 136.2500 Du        
   9059 ****       157.7500 110.5000 136.5000 Du        
   9060 ****       157.7500 110.5000 136.7500 Du        
   9061 ****       157.7500 110.5000 137.0000 Du        
   9062 ****       157.7500 110.5000 137.2500 Du        
   9063 ****       157.7500 110.7500 136.2500 Du        
   9064 ****       157.7500 110.7500 136.5000 Du        
   9065 ****       157.7500 110.7500 136.7500 Du        
   9066 ****       157.7500 110.7500 137.0000 Du        
   9067 ****       157.7500 110.7500 137.2500 Du        
   9068 ****       157.7500 111.0000 136.7500 Du        
   9069 ****       157.7500 111.0000 137.0000 Du        
   9070 ****       157.7500 111.0000 137.2500 Du        
   9071 ****       157.7500 111.0000 150.0000 Du        
   9072 ****       157.7500 111.2500 137.0000 Du        
   9073 ****       157.7500 111.2500 137.2500 Du        
   9074 ****       157.7500 111.2500 149.5000 Du        
   9075 ****       157.7500 111.2500 149.7500 Du        
   9076 ****       157.7500 111.2500 150.0000 Du        
   9077 ****       157.7500 111.5000 149.0000 Du        
   9078 ****       157.7500 111.5000 149.2500 Du        
   9079 ****       157.7500 111.5000 149.5000 Du        
   9080 ****       157.7500 111.5000 149.7500 Du        
   9081 ****       157.7500 111.5000 150.0000 Du        
   9082 ****       157.7500 111.7500 149.0000 Du        
   9083 ****       157.7500 111.7500 149.2500 Du        
   9084 ****       157.7500 111.7500 149.5000 Du        
   9085 ****       157.7500 111.7500 149.7500 Du        
   9086 ****       157.7500 111.7500 150.0000 Du        
   9087 ****       157.7500 112.0000 148.5000 Du        
   9088 ****       157.7500 112.0000 148.7500 Du        
   9089 ****       157.7500 112.0000 149.0000 Du        
   9090 ****       157.7500 112.0000 149.2500 Du        
   9091 ****       157.7500 112.0000 149.5000 Du        
   9092 ****       157.7500 112.0000 149.7500 Du        
   9093 ****       157.7500 112.2500 148.5000 Du        
   9094 ****       157.7500 112.2500 148.7500 Du        
   9095 ****       157.7500 112.2500 149.0000 Du        
   9096 ****       157.7500 112.2500 149.2500 Du        
   9097 ****       157.7500 112.2500 149.5000 Du        
   9098 ****       157.7500 112.2500 149.7500 Du        
   9099 ****       157.7500 112.5000 148.2500 Du        
   9100 ****       157.7500 112.5000 148.5000 Du        
   9101 ****       157.7500 112.5000 148.7500 Du        
   9102 ****       157.7500 112.5000 149.0000 Du        
   9103 ****       157.7500 112.5000 149.2500 Du        
   9104 ****       157.7500 112.5000 149.5000 Du        
   9105 ****       157.7500 112.5000 149.7500 Du        
   9106 ****       157.7500 112.7500 148.0000 Du        
   9107 ****       157.7500 112.7500 148.2500 Du        
   9108 ****       157.7500 112.7500 148.5000 Du        
   9109 ****       157.7500 112.7500 148.7500 Du        
   9110 ****       157.7500 112.7500 149.0000 Du        
   9111 ****       157.7500 112.7500 149.2500 Du        
   9112 ****       157.7500 112.7500 149.5000 Du        
   9113 ****       157.7500 112.7500 149.7500 Du        
   9114 ****       157.7500 113.0000 148.0000 Du        
   9115 ****       157.7500 113.0000 148.2500 Du        
   9116 ****       157.7500 113.0000 148.5000 Du        
   9117 ****       157.7500 113.0000 148.7500 Du        
   9118 ****       157.7500 113.0000 149.0000 Du        
   9119 ****       157.7500 113.0000 149.2500 Du        
   9120 ****       157.7500 113.0000 149.5000 Du        
   9121 ****       157.7500 113.0000 149.7500 Du        
   9122 ****       157.7500 113.2500 148.0000 Du        
   9123 ****       157.7500 113.2500 148.2500 Du        
   9124 ****       157.7500 113.2500 148.5000 Du        
   9125 ****       157.7500 113.2500 148.7500 Du        
   9126 ****       157.7500 113.2500 149.0000 Du        
   9127 ****       157.7500 113.2500 149.2500 Du        
   9128 ****       157.7500 113.2500 149.5000 Du        
   9129 ****       157.7500 113.2500 149.7500 Du        
   9130 ****       157.7500 113.5000 147.5000 Du        
   9131 ****       157.7500 113.5000 147.7500 Du        
   9132 ****       157.7500 113.5000 148.0000 Du        
   9133 ****       157.7500 113.5000 148.2500 Du        
   9134 ****       157.7500 113.5000 148.5000 Du        
   9135 ****       157.7500 113.5000 148.7500 Du        
   9136 ****       157.7500 113.5000 149.0000 Du        
   9137 ****       157.7500 113.5000 149.2500 Du        
   9138 ****       157.7500 113.5000 149.5000 Du        
   9139 ****       157.7500 113.5000 149.7500 Du        
   9140 ****       157.7500 113.7500 147.5000 Du        
   9141 ****       157.7500 113.7500 147.7500 Du        
   9142 ****       157.7500 113.7500 148.0000 Du        
   9143 ****       157.7500 113.7500 148.2500 Du        
   9144 ****       157.7500 113.7500 148.5000 Du        
   9145 ****       157.7500 113.7500 148.7500 Du        
   9146 ****       157.7500 113.7500 149.0000 Du        
   9147 ****       157.7500 113.7500 149.2500 Du        
   9148 ****       157.7500 113.7500 149.5000 Du        
   9149 ****       157.7500 114.0000 147.2500 Du        
   9150 ****       157.7500 114.0000 147.5000 Du        
   9151 ****       157.7500 114.0000 147.7500 Du        
   9152 ****       157.7500 114.0000 148.0000 Du        
   9153 ****       157.7500 114.0000 148.2500 Du        
   9154 ****       157.7500 114.0000 148.5000 Du        
   9155 ****       157.7500 114.0000 148.7500 Du        
   9156 ****       157.7500 114.0000 149.0000 Du        
   9157 ****       157.7500 114.0000 149.2500 Du        
   9158 ****       157.7500 114.0000 149.5000 Du        
   9159 ****       157.7500 114.2500 147.2500 Du        
   9160 ****       157.7500 114.2500 147.5000 Du        
   9161 ****       157.7500 114.2500 147.7500 Du        
   9162 ****       157.7500 114.2500 148.0000 Du        
   9163 ****       157.7500 114.2500 148.2500 Du        
   9164 ****       157.7500 114.2500 148.5000 Du        
   9165 ****       157.7500 114.2500 148.7500 Du        
   9166 ****       157.7500 114.2500 149.0000 Du        
   9167 ****       157.7500 114.5000 146.5000 Du        
   9168 ****       157.7500 114.5000 146.7500 Du        
   9169 ****       157.7500 114.5000 147.0000 Du        
   9170 ****       157.7500 114.5000 147.2500 Du        
   9171 ****       157.7500 114.5000 147.5000 Du        
   9172 ****       157.7500 114.5000 147.7500 Du        
   9173 ****       157.7500 114.5000 148.0000 Du        
   9174 ****       157.7500 114.5000 148.2500 Du        
   9175 ****       157.7500 114.5000 148.5000 Du        
   9176 ****       157.7500 114.5000 148.7500 Du        
   9177 ****       157.7500 114.7500 146.5000 Du        
   9178 ****       157.7500 114.7500 146.7500 Du        
   9179 ****       157.7500 114.7500 147.0000 Du        
   9180 ****       157.7500 114.7500 147.2500 Du        
   9181 ****       157.7500 114.7500 147.5000 Du        
   9182 ****       157.7500 114.7500 147.7500 Du        
   9183 ****       157.7500 114.7500 148.0000 Du        
   9184 ****       157.7500 114.7500 148.2500 Du        
   9185 ****       157.7500 114.7500 148.5000 Du        
   9186 ****       157.7500 115.0000 146.0000 Du        
   9187 ****       157.7500 115.0000 146.2500 Du        
   9188 ****       157.7500 115.0000 146.5000 Du        
   9189 ****       157.7500 115.0000 146.7500 Du        
   9190 ****       157.7500 115.0000 147.0000 Du        
   9191 ****       157.7500 115.0000 147.2500 Du        
   9192 ****       157.7500 115.0000 147.5000 Du        
   9193 ****       157.7500 115.0000 147.7500 Du        
   9194 ****       157.7500 115.0000 148.0000 Du        
   9195 ****       157.7500 115.0000 148.2500 Du        
   9196 ****       157.7500 115.2500 146.0000 Du        
   9197 ****       157.7500 115.2500 146.2500 Du        
   9198 ****       157.7500 115.2500 146.5000 Du        
   9199 ****       157.7500 115.2500 146.7500 Du        
   9200 ****       157.7500 115.2500 147.0000 Du        
   9201 ****       157.7500 115.2500 147.2500 Du        
   9202 ****       157.7500 115.2500 147.5000 Du        
   9203 ****       157.7500 115.2500 147.7500 Du        
   9204 ****       157.7500 115.2500 148.0000 Du        
   9205 ****       157.7500 115.5000 145.7500 Du        
   9206 ****       157.7500 115.5000 146.0000 Du        
   9207 ****       157.7500 115.5000 146.2500 Du        
   9208 ****       157.7500 115.5000 146.5000 Du        
   9209 ****       157.7500 115.5000 146.7500 Du        
   9210 ****       157.7500 115.5000 147.0000 Du        
   9211 ****       157.7500 115.5000 147.2500 Du        
   9212 ****       157.7500 115.5000 147.5000 Du        
   9213 ****       157.7500 115.5000 147.7500 Du        
   9214 ****       157.7500 115.5000 148.0000 Du        
   9215 ****       157.7500 115.7500 135.7500 Du        
   9216 ****       157.7500 115.7500 136.0000 Du        
   9217 ****       157.7500 115.7500 136.2500 Du        
   9218 ****       157.7500 115.7500 144.7500 Du        
   9219 ****       157.7500 115.7500 147.0000 Du        
   9220 ****       157.7500 115.7500 147.2500 Du        
   9221 ****       157.7500 115.7500 147.5000 Du        
   9222 ****       157.7500 115.7500 147.7500 Du        
   9223 ****       157.7500 116.0000 135.5000 Du        
   9224 ****       157.7500 116.0000 135.7500 Du        
   9225 ****       157.7500 116.0000 136.0000 Du        
   9226 ****       157.7500 116.0000 136.2500 Du        
   9227 ****       157.7500 116.0000 143.7500 Du        
   9228 ****       157.7500 116.0000 144.0000 Du        
   9229 ****       157.7500 116.0000 144.2500 Du        
   9230 ****       157.7500 116.0000 144.5000 Du        
   9231 ****       157.7500 116.0000 144.7500 Du        
   9232 ****       157.7500 116.2500 135.2500 Du        
   9233 ****       157.7500 116.2500 135.5000 Du        
   9234 ****       157.7500 116.2500 135.7500 Du        
   9235 ****       157.7500 116.2500 136.0000 Du        
   9236 ****       157.7500 116.2500 136.2500 Du        
   9237 ****       157.7500 116.2500 143.0000 Du        
   9238 ****       157.7500 116.2500 143.2500 Du        
   9239 ****       157.7500 116.2500 143.5000 Du        
   9240 ****       157.7500 116.2500 143.7500 Du        
   9241 ****       157.7500 116.2500 144.0000 Du        
   9242 ****       157.7500 116.2500 144.2500 Du        
   9243 ****       157.7500 116.2500 144.5000 Du        
   9244 ****       157.7500 116.5000 134.7500 Du        
   9245 ****       157.7500 116.5000 135.0000 Du        
   9246 ****       157.7500 116.5000 135.2500 Du        
   9247 ****       157.7500 116.5000 135.5000 Du        
   9248 ****       157.7500 116.5000 135.7500 Du        
   9249 ****       157.7500 116.5000 136.0000 Du        
   9250 ****       157.7500 116.5000 136.2500 Du        
   9251 ****       157.7500 116.5000 141.7500 Du        
   9252 ****       157.7500 116.5000 142.0000 Du        
   9253 ****       157.7500 116.5000 142.2500 Du        
   9254 ****       157.7500 116.5000 142.5000 Du        
   9255 ****       157.7500 116.5000 142.7500 Du        
   9256 ****       157.7500 116.5000 143.0000 Du        
   9257 ****       157.7500 116.5000 143.2500 Du        
   9258 ****       157.7500 116.5000 143.5000 Du        
   9259 ****       157.7500 116.5000 143.7500 Du        
   9260 ****       157.7500 116.5000 144.0000 Du        
   9261 ****       157.7500 116.5000 144.2500 Du        
   9262 ****       157.7500 116.5000 144.5000 Du        
   9263 ****       157.7500 116.7500 134.5000 Du        
   9264 ****       157.7500 116.7500 134.7500 Du        
   9265 ****       157.7500 116.7500 135.0000 Du        
   9266 ****       157.7500 116.7500 135.2500 Du        
   9267 ****       157.7500 116.7500 135.5000 Du        
   9268 ****       157.7500 116.7500 135.7500 Du        
   9269 ****       157.7500 116.7500 136.0000 Du        
   9270 ****       157.7500 116.7500 136.2500 Du        
   9271 ****       157.7500 116.7500 136.5000 Du        
   9272 ****       157.7500 116.7500 136.7500 Du        
   9273 ****       157.7500 116.7500 137.0000 Du        
   9274 ****       157.7500 116.7500 140.7500 Du        
   9275 ****       157.7500 116.7500 141.2500 Du        
   9276 ****       157.7500 116.7500 141.5000 Du        
   9277 ****       157.7500 116.7500 141.7500 Du        
   9278 ****       157.7500 116.7500 142.0000 Du        
   9279 ****       157.7500 116.7500 142.2500 Du        
   9280 ****       157.7500 116.7500 142.5000 Du        
   9281 ****       157.7500 116.7500 142.7500 Du        
   9282 ****       157.7500 116.7500 143.0000 Du        
   9283 ****       157.7500 116.7500 143.2500 Du        
   9284 ****       157.7500 116.7500 143.5000 Du        
   9285 ****       157.7500 116.7500 143.7500 Du        
   9286 ****       157.7500 116.7500 144.0000 Du        
   9287 ****       157.7500 116.7500 144.2500 Du        
   9288 ****       157.7500 117.0000 134.5000 Du        
   9289 ****       157.7500 117.0000 134.7500 Du        
   9290 ****       157.7500 117.0000 135.0000 Du        
   9291 ****       157.7500 117.0000 135.2500 Du        
   9292 ****       157.7500 117.0000 135.5000 Du        
   9293 ****       157.7500 117.0000 135.7500 Du        
   9294 ****       157.7500 117.0000 136.0000 Du        
   9295 ****       157.7500 117.0000 136.2500 Du        
   9296 ****       157.7500 117.0000 136.5000 Du        
   9297 ****       157.7500 117.0000 136.7500 Du        
   9298 ****       157.7500 117.0000 137.0000 Du        
   9299 ****       157.7500 117.0000 137.2500 Du        
   9300 ****       157.7500 117.0000 139.7500 Du        
   9301 ****       157.7500 117.0000 140.0000 Du        
   9302 ****       157.7500 117.0000 140.2500 Du        
   9303 ****       157.7500 117.0000 140.5000 Du        
   9304 ****       157.7500 117.0000 140.7500 Du        
   9305 ****       157.7500 117.0000 141.0000 Du        
   9306 ****       157.7500 117.0000 141.2500 Du        
   9307 ****       157.7500 117.0000 141.5000 Du        
   9308 ****       157.7500 117.0000 141.7500 Du        
   9309 ****       157.7500 117.0000 142.0000 Du        
   9310 ****       157.7500 117.0000 142.2500 Du        
   9311 ****       157.7500 117.0000 142.5000 Du        
   9312 ****       157.7500 117.0000 142.7500 Du        
   9313 ****       157.7500 117.0000 143.0000 Du        
   9314 ****       157.7500 117.0000 143.2500 Du        
   9315 ****       157.7500 117.0000 143.5000 Du        
   9316 ****       157.7500 117.0000 143.7500 Du        
   9317 ****       157.7500 117.0000 144.0000 Du        
   9318 ****       157.7500 117.0000 144.2500 Du        
   9319 ****       157.7500 117.2500 134.7500 Du        
   9320 ****       157.7500 117.2500 135.0000 Du        
   9321 ****       157.7500 117.2500 135.2500 Du        
   9322 ****       157.7500 117.2500 135.5000 Du        
   9323 ****       157.7500 117.2500 135.7500 Du        
   9324 ****       157.7500 117.2500 136.0000 Du        
   9325 ****       157.7500 117.2500 136.2500 Du        
   9326 ****       157.7500 117.2500 136.5000 Du        
   9327 ****       157.7500 117.2500 136.7500 Du        
   9328 ****       157.7500 117.2500 137.0000 Du        
   9329 ****       157.7500 117.2500 137.2500 Du        
   9330 ****       157.7500 117.2500 139.2500 Du        
   9331 ****       157.7500 117.2500 139.5000 Du        
   9332 ****       157.7500 117.2500 139.7500 Du        
   9333 ****       157.7500 117.2500 140.0000 Du        
   9334 ****       157.7500 117.2500 140.2500 Du        
   9335 ****       157.7500 117.2500 140.5000 Du        
   9336 ****       157.7500 117.2500 140.7500 Du        
   9337 ****       157.7500 117.2500 141.0000 Du        
   9338 ****       157.7500 117.2500 141.2500 Du        
   9339 ****       157.7500 117.2500 141.5000 Du        
   9340 ****       157.7500 117.2500 141.7500 Du        
   9341 ****       157.7500 117.2500 142.0000 Du        
   9342 ****       157.7500 117.2500 142.2500 Du        
   9343 ****       157.7500 117.2500 142.5000 Du        
   9344 ****       157.7500 117.2500 142.7500 Du        
   9345 ****       157.7500 117.2500 143.0000 Du        
   9346 ****       157.7500 117.2500 143.2500 Du        
   9347 ****       157.7500 117.2500 143.5000 Du        
   9348 ****       157.7500 117.2500 143.7500 Du        
   9349 ****       157.7500 117.2500 144.0000 Du        
   9350 ****       157.7500 117.5000 135.0000 Du        
   9351 ****       157.7500 117.5000 135.2500 Du        
   9352 ****       157.7500 117.5000 135.5000 Du        
   9353 ****       157.7500 117.5000 135.7500 Du        
   9354 ****       157.7500 117.5000 136.0000 Du        
   9355 ****       157.7500 117.5000 136.2500 Du        
   9356 ****       157.7500 117.5000 136.5000 Du        
   9357 ****       157.7500 117.5000 136.7500 Du        
   9358 ****       157.7500 117.5000 137.0000 Du        
   9359 ****       157.7500 117.5000 137.2500 Du        
   9360 ****       157.7500 117.5000 138.7500 Du        
   9361 ****       157.7500 117.5000 139.0000 Du        
   9362 ****       157.7500 117.5000 139.2500 Du        
   9363 ****       157.7500 117.5000 139.5000 Du        
   9364 ****       157.7500 117.5000 139.7500 Du        
   9365 ****       157.7500 117.5000 140.0000 Du        
   9366 ****       157.7500 117.5000 140.2500 Du        
   9367 ****       157.7500 117.5000 140.5000 Du        
   9368 ****       157.7500 117.5000 140.7500 Du        
   9369 ****       157.7500 117.5000 141.0000 Du        
   9370 ****       157.7500 117.5000 141.2500 Du        
   9371 ****       157.7500 117.5000 141.5000 Du        
   9372 ****       157.7500 117.5000 141.7500 Du        
   9373 ****       157.7500 117.5000 142.0000 Du        
   9374 ****       157.7500 117.5000 142.2500 Du        
   9375 ****       157.7500 117.5000 142.5000 Du        
   9376 ****       157.7500 117.5000 142.7500 Du        
   9377 ****       157.7500 117.5000 143.0000 Du        
   9378 ****       157.7500 117.5000 143.2500 Du        
   9379 ****       157.7500 117.5000 143.5000 Du        
   9380 ****       157.7500 117.5000 143.7500 Du        
   9381 ****       157.7500 117.5000 144.0000 Du        
   9382 ****       157.7500 117.7500 135.2500 Du        
   9383 ****       157.7500 117.7500 135.5000 Du        
   9384 ****       157.7500 117.7500 135.7500 Du        
   9385 ****       157.7500 117.7500 136.0000 Du        
   9386 ****       157.7500 117.7500 136.2500 Du        
   9387 ****       157.7500 117.7500 136.5000 Du        
   9388 ****       157.7500 117.7500 136.7500 Du        
   9389 ****       157.7500 117.7500 138.7500 Du        
   9390 ****       157.7500 117.7500 139.0000 Du        
   9391 ****       157.7500 117.7500 139.2500 Du        
   9392 ****       157.7500 117.7500 139.5000 Du        
   9393 ****       157.7500 117.7500 139.7500 Du        
   9394 ****       157.7500 117.7500 140.0000 Du        
   9395 ****       157.7500 117.7500 140.2500 Du        
   9396 ****       157.7500 117.7500 140.5000 Du        
   9397 ****       157.7500 117.7500 140.7500 Du        
   9398 ****       157.7500 117.7500 141.0000 Du        
   9399 ****       157.7500 117.7500 141.2500 Du        
   9400 ****       157.7500 117.7500 141.5000 Du        
   9401 ****       157.7500 117.7500 141.7500 Du        
   9402 ****       157.7500 117.7500 142.0000 Du        
   9403 ****       157.7500 117.7500 142.2500 Du        
   9404 ****       157.7500 117.7500 142.5000 Du        
   9405 ****       157.7500 117.7500 142.7500 Du        
   9406 ****       157.7500 117.7500 143.0000 Du        
   9407 ****       157.7500 117.7500 143.2500 Du        
   9408 ****       157.7500 117.7500 143.5000 Du        
   9409 ****       157.7500 117.7500 143.7500 Du        
   9410 ****       157.7500 118.0000 135.5000 Du        
   9411 ****       157.7500 118.0000 135.7500 Du        
   9412 ****       157.7500 118.0000 136.0000 Du        
   9413 ****       157.7500 118.0000 138.7500 Du        
   9414 ****       157.7500 118.0000 139.0000 Du        
   9415 ****       157.7500 118.0000 139.2500 Du        
   9416 ****       157.7500 118.0000 139.5000 Du        
   9417 ****       157.7500 118.0000 139.7500 Du        
   9418 ****       157.7500 118.0000 140.0000 Du        
   9419 ****       157.7500 118.0000 140.2500 Du        
   9420 ****       157.7500 118.0000 140.5000 Du        
   9421 ****       157.7500 118.0000 140.7500 Du        
   9422 ****       157.7500 118.0000 141.0000 Du        
   9423 ****       157.7500 118.0000 141.2500 Du        
   9424 ****       157.7500 118.0000 142.2500 Du        
   9425 ****       157.7500 118.0000 142.5000 Du        
   9426 ****       157.7500 118.0000 142.7500 Du        
   9427 ****       157.7500 118.0000 143.0000 Du        
   9428 ****       157.7500 118.0000 143.2500 Du        
   9429 ****       157.7500 118.0000 143.5000 Du        
   9430 ****       157.7500 118.2500 139.0000 Du        
   9431 ****       157.7500 118.2500 139.2500 Du        
   9432 ****       157.7500 118.2500 139.5000 Du        
   9433 ****       157.7500 118.2500 139.7500 Du        
   9434 ****       157.7500 118.2500 140.0000 Du        
   9435 ****       157.7500 118.2500 140.2500 Du        
   9436 ****       158.0000 100.5000 147.0000 Du        
   9437 ****       158.0000 100.5000 147.2500 Du        
   9438 ****       158.0000 100.7500 146.7500 Du        
   9439 ****       158.0000 100.7500 147.0000 Du        
   9440 ****       158.0000 100.7500 147.2500 Du        
   9441 ****       158.0000 100.7500 147.5000 Du        
   9442 ****       158.0000 101.0000 146.7500 Du        
   9443 ****       158.0000 101.0000 147.0000 Du        
   9444 ****       158.0000 101.0000 147.2500 Du        
   9445 ****       158.0000 101.0000 147.5000 Du        
   9446 ****       158.0000 101.2500 146.7500 Du        
   9447 ****       158.0000 101.2500 147.0000 Du        
   9448 ****       158.0000 101.2500 147.2500 Du        
   9449 ****       158.0000 101.2500 147.5000 Du        
   9450 ****       158.0000 101.2500 147.7500 Du        
   9451 ****       158.0000 101.5000 146.7500 Du        
   9452 ****       158.0000 101.5000 147.0000 Du        
   9453 ****       158.0000 101.5000 147.2500 Du        
   9454 ****       158.0000 101.5000 147.5000 Du        
   9455 ****       158.0000 101.5000 147.7500 Du        
   9456 ****       158.0000 101.7500 146.5000 Du        
   9457 ****       158.0000 101.7500 146.7500 Du        
   9458 ****       158.0000 101.7500 147.0000 Du        
   9459 ****       158.0000 101.7500 147.2500 Du        
   9460 ****       158.0000 101.7500 147.5000 Du        
   9461 ****       158.0000 101.7500 147.7500 Du        
   9462 ****       158.0000 101.7500 148.0000 Du        
   9463 ****       158.0000 102.0000 146.5000 Du        
   9464 ****       158.0000 102.0000 146.7500 Du        
   9465 ****       158.0000 102.0000 147.0000 Du        
   9466 ****       158.0000 102.0000 147.2500 Du        
   9467 ****       158.0000 102.0000 147.5000 Du        
   9468 ****       158.0000 102.0000 147.7500 Du        
   9469 ****       158.0000 102.0000 148.0000 Du        
   9470 ****       158.0000 102.2500 146.5000 Du        
   9471 ****       158.0000 102.2500 146.7500 Du        
   9472 ****       158.0000 102.2500 147.0000 Du        
   9473 ****       158.0000 102.2500 147.2500 Du        
   9474 ****       158.0000 102.2500 147.5000 Du        
   9475 ****       158.0000 102.2500 147.7500 Du        
   9476 ****       158.0000 102.2500 148.0000 Du        
   9477 ****       158.0000 102.5000 147.0000 Du        
   9478 ****       158.0000 102.5000 147.2500 Du        
   9479 ****       158.0000 105.5000 129.5000 Du        
   9480 ****       158.0000 105.7500 129.2500 Du        
   9481 ****       158.0000 105.7500 129.5000 Du        
   9482 ****       158.0000 109.0000 152.7500 Du        
   9483 ****       158.0000 109.2500 152.7500 Du        
   9484 ****       158.0000 109.5000 137.2500 Du        
   9485 ****       158.0000 109.7500 136.2500 Du        
   9486 ****       158.0000 109.7500 136.5000 Du        
   9487 ****       158.0000 109.7500 136.7500 Du        
   9488 ****       158.0000 109.7500 137.0000 Du        
   9489 ****       158.0000 109.7500 137.2500 Du        
   9490 ****       158.0000 109.7500 137.5000 Du        
   9491 ****       158.0000 110.0000 136.0000 Du        
   9492 ****       158.0000 110.0000 136.2500 Du        
   9493 ****       158.0000 110.0000 136.5000 Du        
   9494 ****       158.0000 110.0000 136.7500 Du        
   9495 ****       158.0000 110.0000 137.0000 Du        
   9496 ****       158.0000 110.0000 137.2500 Du        
   9497 ****       158.0000 110.0000 137.5000 Du        
   9498 ****       158.0000 110.0000 137.7500 Du        
   9499 ****       158.0000 110.2500 136.0000 Du        
   9500 ****       158.0000 110.2500 136.2500 Du        
   9501 ****       158.0000 110.2500 136.5000 Du        
   9502 ****       158.0000 110.2500 136.7500 Du        
   9503 ****       158.0000 110.2500 137.0000 Du        
   9504 ****       158.0000 110.2500 137.2500 Du        
   9505 ****       158.0000 110.2500 137.5000 Du        
   9506 ****       158.0000 110.2500 137.7500 Du        
   9507 ****       158.0000 110.2500 138.0000 Du        
   9508 ****       158.0000 110.5000 136.2500 Du        
   9509 ****       158.0000 110.5000 136.5000 Du        
   9510 ****       158.0000 110.5000 136.7500 Du        
   9511 ****       158.0000 110.5000 137.0000 Du        
   9512 ****       158.0000 110.5000 137.2500 Du        
   9513 ****       158.0000 110.7500 136.7500 Du        
   9514 ****       158.0000 110.7500 137.0000 Du        
   9515 ****       158.0000 110.7500 137.2500 Du        
   9516 ****       158.0000 111.0000 137.0000 Du        
   9517 ****       158.0000 111.0000 137.2500 Du        
   9518 ****       158.0000 111.7500 149.0000 Du        
   9519 ****       158.0000 111.7500 149.2500 Du        
   9520 ****       158.0000 112.0000 148.5000 Du        
   9521 ****       158.0000 112.0000 148.7500 Du        
   9522 ****       158.0000 112.0000 149.0000 Du        
   9523 ****       158.0000 112.0000 149.2500 Du        
   9524 ****       158.0000 112.2500 148.5000 Du        
   9525 ****       158.0000 112.2500 148.7500 Du        
   9526 ****       158.0000 112.2500 149.0000 Du        
   9527 ****       158.0000 112.2500 149.2500 Du        
   9528 ****       158.0000 112.2500 149.5000 Du        
   9529 ****       158.0000 112.5000 148.2500 Du        
   9530 ****       158.0000 112.5000 148.5000 Du        
   9531 ****       158.0000 112.5000 148.7500 Du        
   9532 ****       158.0000 112.5000 149.0000 Du        
   9533 ****       158.0000 112.5000 149.2500 Du        
   9534 ****       158.0000 112.5000 149.5000 Du        
   9535 ****       158.0000 112.7500 148.0000 Du        
   9536 ****       158.0000 112.7500 148.2500 Du        
   9537 ****       158.0000 112.7500 148.5000 Du        
   9538 ****       158.0000 112.7500 148.7500 Du        
   9539 ****       158.0000 112.7500 149.0000 Du        
   9540 ****       158.0000 112.7500 149.2500 Du        
   9541 ****       158.0000 112.7500 149.5000 Du        
   9542 ****       158.0000 113.0000 147.7500 Du        
   9543 ****       158.0000 113.0000 148.0000 Du        
   9544 ****       158.0000 113.0000 148.2500 Du        
   9545 ****       158.0000 113.0000 148.5000 Du        
   9546 ****       158.0000 113.0000 148.7500 Du        
   9547 ****       158.0000 113.0000 149.0000 Du        
   9548 ****       158.0000 113.0000 149.2500 Du        
   9549 ****       158.0000 113.0000 149.5000 Du        
   9550 ****       158.0000 113.2500 147.7500 Du        
   9551 ****       158.0000 113.2500 148.0000 Du        
   9552 ****       158.0000 113.2500 148.2500 Du        
   9553 ****       158.0000 113.2500 148.5000 Du        
   9554 ****       158.0000 113.2500 148.7500 Du        
   9555 ****       158.0000 113.2500 149.0000 Du        
   9556 ****       158.0000 113.2500 149.2500 Du        
   9557 ****       158.0000 113.2500 149.5000 Du        
   9558 ****       158.0000 113.5000 147.5000 Du        
   9559 ****       158.0000 113.5000 147.7500 Du        
   9560 ****       158.0000 113.5000 148.0000 Du        
   9561 ****       158.0000 113.5000 148.2500 Du        
   9562 ****       158.0000 113.5000 148.5000 Du        
   9563 ****       158.0000 113.5000 148.7500 Du        
   9564 ****       158.0000 113.5000 149.0000 Du        
   9565 ****       158.0000 113.5000 149.2500 Du        
   9566 ****       158.0000 113.5000 149.5000 Du        
   9567 ****       158.0000 113.7500 147.5000 Du        
   9568 ****       158.0000 113.7500 147.7500 Du        
   9569 ****       158.0000 113.7500 148.0000 Du        
   9570 ****       158.0000 113.7500 148.2500 Du        
   9571 ****       158.0000 113.7500 148.5000 Du        
   9572 ****       158.0000 113.7500 148.7500 Du        
   9573 ****       158.0000 113.7500 149.0000 Du        
   9574 ****       158.0000 113.7500 149.2500 Du        
   9575 ****       158.0000 113.7500 149.5000 Du        
   9576 ****       158.0000 114.0000 147.2500 Du        
   9577 ****       158.0000 114.0000 147.5000 Du        
   9578 ****       158.0000 114.0000 147.7500 Du        
   9579 ****       158.0000 114.0000 148.0000 Du        
   9580 ****       158.0000 114.0000 148.2500 Du        
   9581 ****       158.0000 114.0000 148.5000 Du        
   9582 ****       158.0000 114.0000 148.7500 Du        
   9583 ****       158.0000 114.0000 149.0000 Du        
   9584 ****       158.0000 114.0000 149.2500 Du        
   9585 ****       158.0000 114.2500 147.2500 Du        
   9586 ****       158.0000 114.2500 147.5000 Du        
   9587 ****       158.0000 114.2500 147.7500 Du        
   9588 ****       158.0000 114.2500 148.0000 Du        
   9589 ****       158.0000 114.2500 148.2500 Du        
   9590 ****       158.0000 114.2500 148.5000 Du        
   9591 ****       158.0000 114.2500 148.7500 Du        
   9592 ****       158.0000 114.2500 149.0000 Du        
   9593 ****       158.0000 114.5000 146.5000 Du        
   9594 ****       158.0000 114.5000 146.7500 Du        
   9595 ****       158.0000 114.5000 147.0000 Du        
   9596 ****       158.0000 114.5000 147.2500 Du        
   9597 ****       158.0000 114.5000 147.5000 Du        
   9598 ****       158.0000 114.5000 147.7500 Du        
   9599 ****       158.0000 114.5000 148.0000 Du        
   9600 ****       158.0000 114.5000 148.2500 Du        
   9601 ****       158.0000 114.5000 148.5000 Du        
   9602 ****       158.0000 114.7500 146.5000 Du        
   9603 ****       158.0000 114.7500 146.7500 Du        
   9604 ****       158.0000 114.7500 147.0000 Du        
   9605 ****       158.0000 114.7500 147.2500 Du        
   9606 ****       158.0000 114.7500 147.5000 Du        
   9607 ****       158.0000 114.7500 147.7500 Du        
   9608 ****       158.0000 114.7500 148.0000 Du        
   9609 ****       158.0000 114.7500 148.2500 Du        
   9610 ****       158.0000 114.7500 148.5000 Du        
   9611 ****       158.0000 115.0000 146.0000 Du        
   9612 ****       158.0000 115.0000 146.2500 Du        
   9613 ****       158.0000 115.0000 146.5000 Du        
   9614 ****       158.0000 115.0000 146.7500 Du        
   9615 ****       158.0000 115.0000 147.0000 Du        
   9616 ****       158.0000 115.0000 147.2500 Du        
   9617 ****       158.0000 115.0000 147.5000 Du        
   9618 ****       158.0000 115.0000 147.7500 Du        
   9619 ****       158.0000 115.0000 148.0000 Du        
   9620 ****       158.0000 115.0000 148.2500 Du        
   9621 ****       158.0000 115.2500 146.0000 Du        
   9622 ****       158.0000 115.2500 146.2500 Du        
   9623 ****       158.0000 115.2500 146.5000 Du        
   9624 ****       158.0000 115.2500 146.7500 Du        
   9625 ****       158.0000 115.2500 147.0000 Du        
   9626 ****       158.0000 115.2500 147.2500 Du        
   9627 ****       158.0000 115.2500 147.5000 Du        
   9628 ****       158.0000 115.2500 147.7500 Du        
   9629 ****       158.0000 115.2500 148.0000 Du        
   9630 ****       158.0000 115.5000 145.5000 Du        
   9631 ****       158.0000 115.5000 145.7500 Du        
   9632 ****       158.0000 115.5000 146.0000 Du        
   9633 ****       158.0000 115.5000 146.2500 Du        
   9634 ****       158.0000 115.5000 146.5000 Du        
   9635 ****       158.0000 115.5000 146.7500 Du        
   9636 ****       158.0000 115.5000 147.0000 Du        
   9637 ****       158.0000 115.5000 147.2500 Du        
   9638 ****       158.0000 115.5000 147.5000 Du        
   9639 ****       158.0000 115.5000 147.7500 Du        
   9640 ****       158.0000 115.7500 145.0000 Du        
   9641 ****       158.0000 115.7500 145.2500 Du        
   9642 ****       158.0000 115.7500 147.0000 Du        
   9643 ****       158.0000 115.7500 147.2500 Du        
   9644 ****       158.0000 115.7500 147.5000 Du        
   9645 ****       158.0000 115.7500 147.7500 Du        
   9646 ****       158.0000 116.0000 143.7500 Du        
   9647 ****       158.0000 116.0000 144.0000 Du        
   9648 ****       158.0000 116.0000 144.2500 Du        
   9649 ****       158.0000 116.0000 144.5000 Du        
   9650 ****       158.0000 116.0000 144.7500 Du        
   9651 ****       158.0000 116.2500 135.2500 Du        
   9652 ****       158.0000 116.2500 135.5000 Du        
   9653 ****       158.0000 116.2500 135.7500 Du        
   9654 ****       158.0000 116.2500 136.0000 Du        
   9655 ****       158.0000 116.2500 136.2500 Du        
   9656 ****       158.0000 116.2500 143.2500 Du        
   9657 ****       158.0000 116.2500 143.5000 Du        
   9658 ****       158.0000 116.2500 143.7500 Du        
   9659 ****       158.0000 116.2500 144.0000 Du        
   9660 ****       158.0000 116.2500 144.2500 Du        
   9661 ****       158.0000 116.2500 144.5000 Du        
   9662 ****       158.0000 116.5000 134.7500 Du        
   9663 ****       158.0000 116.5000 135.0000 Du        
   9664 ****       158.0000 116.5000 135.2500 Du        
   9665 ****       158.0000 116.5000 135.5000 Du        
   9666 ****       158.0000 116.5000 135.7500 Du        
   9667 ****       158.0000 116.5000 136.0000 Du        
   9668 ****       158.0000 116.5000 136.2500 Du        
   9669 ****       158.0000 116.5000 142.2500 Du        
   9670 ****       158.0000 116.5000 142.5000 Du        
   9671 ****       158.0000 116.5000 142.7500 Du        
   9672 ****       158.0000 116.5000 143.0000 Du        
   9673 ****       158.0000 116.5000 143.2500 Du        
   9674 ****       158.0000 116.5000 143.5000 Du        
   9675 ****       158.0000 116.5000 143.7500 Du        
   9676 ****       158.0000 116.5000 144.0000 Du        
   9677 ****       158.0000 116.5000 144.2500 Du        
   9678 ****       158.0000 116.5000 144.5000 Du        
   9679 ****       158.0000 116.7500 134.5000 Du        
   9680 ****       158.0000 116.7500 134.7500 Du        
   9681 ****       158.0000 116.7500 135.0000 Du        
   9682 ****       158.0000 116.7500 135.2500 Du        
   9683 ****       158.0000 116.7500 135.5000 Du        
   9684 ****       158.0000 116.7500 135.7500 Du        
   9685 ****       158.0000 116.7500 136.0000 Du        
   9686 ****       158.0000 116.7500 136.2500 Du        
   9687 ****       158.0000 116.7500 136.5000 Du        
   9688 ****       158.0000 116.7500 136.7500 Du        
   9689 ****       158.0000 116.7500 137.0000 Du        
   9690 ****       158.0000 116.7500 142.0000 Du        
   9691 ****       158.0000 116.7500 142.2500 Du        
   9692 ****       158.0000 116.7500 142.5000 Du        
   9693 ****       158.0000 116.7500 142.7500 Du        
   9694 ****       158.0000 116.7500 143.0000 Du        
   9695 ****       158.0000 116.7500 143.2500 Du        
   9696 ****       158.0000 116.7500 143.5000 Du        
   9697 ****       158.0000 116.7500 143.7500 Du        
   9698 ****       158.0000 116.7500 144.0000 Du        
   9699 ****       158.0000 116.7500 144.2500 Du        
   9700 ****       158.0000 116.7500 144.5000 Du        
   9701 ****       158.0000 117.0000 134.2500 Du        
   9702 ****       158.0000 117.0000 134.5000 Du        
   9703 ****       158.0000 117.0000 134.7500 Du        
   9704 ****       158.0000 117.0000 135.0000 Du        
   9705 ****       158.0000 117.0000 135.2500 Du        
   9706 ****       158.0000 117.0000 135.5000 Du        
   9707 ****       158.0000 117.0000 135.7500 Du        
   9708 ****       158.0000 117.0000 136.0000 Du        
   9709 ****       158.0000 117.0000 136.2500 Du        
   9710 ****       158.0000 117.0000 136.5000 Du        
   9711 ****       158.0000 117.0000 136.7500 Du        
   9712 ****       158.0000 117.0000 137.0000 Du        
   9713 ****       158.0000 117.0000 137.2500 Du        
   9714 ****       158.0000 117.0000 139.5000 Du        
   9715 ****       158.0000 117.0000 139.7500 Du        
   9716 ****       158.0000 117.0000 140.0000 Du        
   9717 ****       158.0000 117.0000 140.2500 Du        
   9718 ****       158.0000 117.0000 140.5000 Du        
   9719 ****       158.0000 117.0000 140.7500 Du        
   9720 ****       158.0000 117.0000 141.0000 Du        
   9721 ****       158.0000 117.0000 141.2500 Du        
   9722 ****       158.0000 117.0000 142.2500 Du        
   9723 ****       158.0000 117.0000 142.5000 Du        
   9724 ****       158.0000 117.0000 142.7500 Du        
   9725 ****       158.0000 117.0000 143.0000 Du        
   9726 ****       158.0000 117.0000 143.2500 Du        
   9727 ****       158.0000 117.0000 143.5000 Du        
   9728 ****       158.0000 117.0000 143.7500 Du        
   9729 ****       158.0000 117.0000 144.0000 Du        
   9730 ****       158.0000 117.0000 144.2500 Du        
   9731 ****       158.0000 117.2500 134.5000 Du        
   9732 ****       158.0000 117.2500 134.7500 Du        
   9733 ****       158.0000 117.2500 135.0000 Du        
   9734 ****       158.0000 117.2500 135.2500 Du        
   9735 ****       158.0000 117.2500 135.5000 Du        
   9736 ****       158.0000 117.2500 135.7500 Du        
   9737 ****       158.0000 117.2500 136.0000 Du        
   9738 ****       158.0000 117.2500 136.2500 Du        
   9739 ****       158.0000 117.2500 136.5000 Du        
   9740 ****       158.0000 117.2500 136.7500 Du        
   9741 ****       158.0000 117.2500 137.0000 Du        
   9742 ****       158.0000 117.2500 137.2500 Du        
   9743 ****       158.0000 117.2500 139.5000 Du        
   9744 ****       158.0000 117.2500 139.7500 Du        
   9745 ****       158.0000 117.2500 140.0000 Du        
   9746 ****       158.0000 117.2500 140.2500 Du        
   9747 ****       158.0000 117.2500 140.5000 Du        
   9748 ****       158.0000 117.2500 140.7500 Du        
   9749 ****       158.0000 117.2500 141.0000 Du        
   9750 ****       158.0000 117.2500 141.2500 Du        
   9751 ****       158.0000 117.2500 142.5000 Du        
   9752 ****       158.0000 117.2500 142.7500 Du        
   9753 ****       158.0000 117.2500 143.0000 Du        
   9754 ****       158.0000 117.2500 143.2500 Du        
   9755 ****       158.0000 117.2500 143.5000 Du        
   9756 ****       158.0000 117.2500 143.7500 Du        
   9757 ****       158.0000 117.2500 144.0000 Du        
   9758 ****       158.0000 117.5000 134.7500 Du        
   9759 ****       158.0000 117.5000 135.0000 Du        
   9760 ****       158.0000 117.5000 135.2500 Du        
   9761 ****       158.0000 117.5000 135.5000 Du        
   9762 ****       158.0000 117.5000 135.7500 Du        
   9763 ****       158.0000 117.5000 136.0000 Du        
   9764 ****       158.0000 117.5000 136.2500 Du        
   9765 ****       158.0000 117.5000 136.5000 Du        
   9766 ****       158.0000 117.5000 136.7500 Du        
   9767 ****       158.0000 117.5000 137.0000 Du        
   9768 ****       158.0000 117.5000 137.2500 Du        
   9769 ****       158.0000 117.5000 139.0000 Du        
   9770 ****       158.0000 117.5000 139.2500 Du        
   9771 ****       158.0000 117.5000 139.5000 Du        
   9772 ****       158.0000 117.5000 139.7500 Du        
   9773 ****       158.0000 117.5000 140.0000 Du        
   9774 ****       158.0000 117.5000 140.2500 Du        
   9775 ****       158.0000 117.5000 140.5000 Du        
   9776 ****       158.0000 117.5000 140.7500 Du        
   9777 ****       158.0000 117.5000 141.0000 Du        
   9778 ****       158.0000 117.5000 142.7500 Du        
   9779 ****       158.0000 117.5000 143.0000 Du        
   9780 ****       158.0000 117.5000 143.2500 Du        
   9781 ****       158.0000 117.5000 143.5000 Du        
   9782 ****       158.0000 117.5000 143.7500 Du        
   9783 ****       158.0000 117.5000 144.0000 Du        
   9784 ****       158.0000 117.7500 135.0000 Du        
   9785 ****       158.0000 117.7500 135.2500 Du        
   9786 ****       158.0000 117.7500 135.5000 Du        
   9787 ****       158.0000 117.7500 135.7500 Du        
   9788 ****       158.0000 117.7500 136.0000 Du        
   9789 ****       158.0000 117.7500 136.2500 Du        
   9790 ****       158.0000 117.7500 136.5000 Du        
   9791 ****       158.0000 117.7500 139.0000 Du        
   9792 ****       158.0000 117.7500 139.2500 Du        
   9793 ****       158.0000 117.7500 139.5000 Du        
   9794 ****       158.0000 117.7500 139.7500 Du        
   9795 ****       158.0000 117.7500 140.0000 Du        
   9796 ****       158.0000 117.7500 140.2500 Du        
   9797 ****       158.0000 117.7500 140.5000 Du        
   9798 ****       158.0000 117.7500 140.7500 Du        
   9799 ****       158.0000 117.7500 141.0000 Du        
   9800 ****       158.0000 117.7500 142.7500 Du        
   9801 ****       158.0000 117.7500 143.0000 Du        
   9802 ****       158.0000 117.7500 143.2500 Du        
   9803 ****       158.0000 117.7500 143.5000 Du        
   9804 ****       158.0000 117.7500 143.7500 Du        
   9805 ****       158.0000 118.0000 135.2500 Du        
   9806 ****       158.0000 118.0000 135.5000 Du        
   9807 ****       158.0000 118.0000 135.7500 Du        
   9808 ****       158.0000 118.0000 139.0000 Du        
   9809 ****       158.0000 118.0000 139.2500 Du        
   9810 ****       158.0000 118.0000 139.5000 Du        
   9811 ****       158.0000 118.0000 139.7500 Du        
   9812 ****       158.0000 118.0000 140.0000 Du        
   9813 ****       158.0000 118.0000 140.2500 Du        
   9814 ****       158.0000 118.0000 140.5000 Du        
   9815 ****       158.0000 118.0000 143.0000 Du        
   9816 ****       158.0000 118.0000 143.2500 Du        
   9817 ****       158.0000 118.0000 143.5000 Du        
   9818 ****       158.0000 118.2500 139.5000 Du        
   9819 ****       158.0000 118.2500 139.7500 Du        
   9820 ****       158.0000 118.2500 140.0000 Du        
   9821 ****       158.2500 100.2500 147.0000 Du        
   9822 ****       158.2500 100.2500 147.2500 Du        
   9823 ****       158.2500 100.5000 146.7500 Du        
   9824 ****       158.2500 100.5000 147.0000 Du        
   9825 ****       158.2500 100.5000 147.2500 Du        
   9826 ****       158.2500 100.5000 147.5000 Du        
   9827 ****       158.2500 100.7500 146.7500 Du        
   9828 ****       158.2500 100.7500 147.0000 Du        
   9829 ****       158.2500 100.7500 147.2500 Du        
   9830 ****       158.2500 100.7500 147.5000 Du        
   9831 ****       158.2500 101.0000 146.5000 Du        
   9832 ****       158.2500 101.0000 146.7500 Du        
   9833 ****       158.2500 101.0000 147.0000 Du        
   9834 ****       158.2500 101.0000 147.2500 Du        
   9835 ****       158.2500 101.0000 147.5000 Du        
   9836 ****       158.2500 101.0000 147.7500 Du        
   9837 ****       158.2500 101.2500 146.5000 Du        
   9838 ****       158.2500 101.2500 146.7500 Du        
   9839 ****       158.2500 101.2500 147.0000 Du        
   9840 ****       158.2500 101.2500 147.2500 Du        
   9841 ****       158.2500 101.2500 147.5000 Du        
   9842 ****       158.2500 101.2500 147.7500 Du        
   9843 ****       158.2500 101.5000 146.5000 Du        
   9844 ****       158.2500 101.5000 146.7500 Du        
   9845 ****       158.2500 101.5000 147.0000 Du        
   9846 ****       158.2500 101.5000 147.2500 Du        
   9847 ****       158.2500 101.5000 147.5000 Du        
   9848 ****       158.2500 101.5000 147.7500 Du        
   9849 ****       158.2500 101.5000 148.0000 Du        
   9850 ****       158.2500 101.7500 146.5000 Du        
   9851 ****       158.2500 101.7500 146.7500 Du        
   9852 ****       158.2500 101.7500 147.0000 Du        
   9853 ****       158.2500 101.7500 147.2500 Du        
   9854 ****       158.2500 101.7500 147.5000 Du        
   9855 ****       158.2500 101.7500 147.7500 Du        
   9856 ****       158.2500 101.7500 148.0000 Du        
   9857 ****       158.2500 102.0000 146.2500 Du        
   9858 ****       158.2500 102.0000 146.5000 Du        
   9859 ****       158.2500 102.0000 146.7500 Du        
   9860 ****       158.2500 102.0000 147.0000 Du        
   9861 ****       158.2500 102.0000 147.2500 Du        
   9862 ****       158.2500 102.0000 147.5000 Du        
   9863 ****       158.2500 102.0000 147.7500 Du        
   9864 ****       158.2500 102.0000 148.0000 Du        
   9865 ****       158.2500 102.2500 146.2500 Du        
   9866 ****       158.2500 102.2500 146.5000 Du        
   9867 ****       158.2500 102.2500 146.7500 Du        
   9868 ****       158.2500 102.2500 147.0000 Du        
   9869 ****       158.2500 102.2500 147.2500 Du        
   9870 ****       158.2500 102.2500 147.5000 Du        
   9871 ****       158.2500 102.2500 147.7500 Du        
   9872 ****       158.2500 102.2500 148.0000 Du        
   9873 ****       158.2500 102.5000 147.2500 Du        
   9874 ****       158.2500 105.5000 129.5000 Du        
   9875 ****       158.2500 105.5000 129.7500 Du        
   9876 ****       158.2500 105.7500 129.2500 Du        
   9877 ****       158.2500 105.7500 129.5000 Du        
   9878 ****       158.2500 105.7500 129.7500 Du        
   9879 ****       158.2500 106.0000 129.2500 Du        
   9880 ****       158.2500 106.0000 129.5000 Du        
   9881 ****       158.2500 109.5000 137.2500 Du        
   9882 ****       158.2500 109.7500 136.2500 Du        
   9883 ****       158.2500 109.7500 136.5000 Du        
   9884 ****       158.2500 109.7500 136.7500 Du        
   9885 ****       158.2500 109.7500 137.0000 Du        
   9886 ****       158.2500 109.7500 137.2500 Du        
   9887 ****       158.2500 109.7500 137.5000 Du        
   9888 ****       158.2500 109.7500 137.7500 Du        
   9889 ****       158.2500 109.7500 138.0000 Du        
   9890 ****       158.2500 110.0000 136.0000 Du        
   9891 ****       158.2500 110.0000 136.2500 Du        
   9892 ****       158.2500 110.0000 136.5000 Du        
   9893 ****       158.2500 110.0000 136.7500 Du        
   9894 ****       158.2500 110.0000 137.0000 Du        
   9895 ****       158.2500 110.0000 137.2500 Du        
   9896 ****       158.2500 110.0000 137.5000 Du        
   9897 ****       158.2500 110.0000 137.7500 Du        
   9898 ****       158.2500 110.0000 138.0000 Du        
   9899 ****       158.2500 110.2500 136.2500 Du        
   9900 ****       158.2500 110.2500 136.5000 Du        
   9901 ****       158.2500 110.2500 136.7500 Du        
   9902 ****       158.2500 110.2500 137.0000 Du        
   9903 ****       158.2500 110.2500 137.2500 Du        
   9904 ****       158.2500 110.2500 137.5000 Du        
   9905 ****       158.2500 110.2500 137.7500 Du        
   9906 ****       158.2500 110.5000 136.5000 Du        
   9907 ****       158.2500 110.5000 136.7500 Du        
   9908 ****       158.2500 110.5000 137.0000 Du        
   9909 ****       158.2500 110.5000 137.2500 Du        
   9910 ****       158.2500 110.5000 137.5000 Du        
   9911 ****       158.2500 110.5000 137.7500 Du        
   9912 ****       158.2500 110.7500 137.0000 Du        
   9913 ****       158.2500 110.7500 137.2500 Du        
   9914 ****       158.2500 110.7500 137.7500 Du        
   9915 ****       158.2500 112.2500 148.5000 Du        
   9916 ****       158.2500 112.2500 148.7500 Du        
   9917 ****       158.2500 112.5000 148.2500 Du        
   9918 ****       158.2500 112.5000 148.5000 Du        
   9919 ****       158.2500 112.5000 148.7500 Du        
   9920 ****       158.2500 112.5000 149.0000 Du        
   9921 ****       158.2500 112.7500 148.0000 Du        
   9922 ****       158.2500 112.7500 148.2500 Du        
   9923 ****       158.2500 112.7500 148.5000 Du        
   9924 ****       158.2500 112.7500 148.7500 Du        
   9925 ****       158.2500 112.7500 149.0000 Du        
   9926 ****       158.2500 112.7500 149.2500 Du        
   9927 ****       158.2500 113.0000 147.7500 Du        
   9928 ****       158.2500 113.0000 148.0000 Du        
   9929 ****       158.2500 113.0000 148.2500 Du        
   9930 ****       158.2500 113.0000 148.5000 Du        
   9931 ****       158.2500 113.0000 148.7500 Du        
   9932 ****       158.2500 113.0000 149.0000 Du        
   9933 ****       158.2500 113.0000 149.2500 Du        
   9934 ****       158.2500 113.2500 147.7500 Du        
   9935 ****       158.2500 113.2500 148.0000 Du        
   9936 ****       158.2500 113.2500 148.2500 Du        
   9937 ****       158.2500 113.2500 148.5000 Du        
   9938 ****       158.2500 113.2500 148.7500 Du        
   9939 ****       158.2500 113.2500 149.0000 Du        
   9940 ****       158.2500 113.2500 149.2500 Du        
   9941 ****       158.2500 113.5000 147.5000 Du        
   9942 ****       158.2500 113.5000 147.7500 Du        
   9943 ****       158.2500 113.5000 148.0000 Du        
   9944 ****       158.2500 113.5000 148.2500 Du        
   9945 ****       158.2500 113.5000 148.5000 Du        
   9946 ****       158.2500 113.5000 148.7500 Du        
   9947 ****       158.2500 113.5000 149.0000 Du        
   9948 ****       158.2500 113.5000 149.2500 Du        
   9949 ****       158.2500 113.5000 149.5000 Du        
   9950 ****       158.2500 113.7500 147.5000 Du        
   9951 ****       158.2500 113.7500 147.7500 Du        
   9952 ****       158.2500 113.7500 148.0000 Du        
   9953 ****       158.2500 113.7500 148.2500 Du        
   9954 ****       158.2500 113.7500 148.5000 Du        
   9955 ****       158.2500 113.7500 148.7500 Du        
   9956 ****       158.2500 113.7500 149.0000 Du        
   9957 ****       158.2500 113.7500 149.2500 Du        
   9958 ****       158.2500 113.7500 149.5000 Du        
   9959 ****       158.2500 114.0000 147.2500 Du        
   9960 ****       158.2500 114.0000 147.5000 Du        
   9961 ****       158.2500 114.0000 147.7500 Du        
   9962 ****       158.2500 114.0000 148.0000 Du        
   9963 ****       158.2500 114.0000 148.2500 Du        
   9964 ****       158.2500 114.0000 148.5000 Du        
   9965 ****       158.2500 114.0000 148.7500 Du        
   9966 ****       158.2500 114.0000 149.0000 Du        
   9967 ****       158.2500 114.0000 149.2500 Du        
   9968 ****       158.2500 114.2500 147.0000 Du        
   9969 ****       158.2500 114.2500 147.2500 Du        
   9970 ****       158.2500 114.2500 147.5000 Du        
   9971 ****       158.2500 114.2500 147.7500 Du        
   9972 ****       158.2500 114.2500 148.0000 Du        
   9973 ****       158.2500 114.2500 148.2500 Du        
   9974 ****       158.2500 114.2500 148.5000 Du        
   9975 ****       158.2500 114.2500 148.7500 Du        
   9976 ****       158.2500 114.2500 149.0000 Du        
   9977 ****       158.2500 114.5000 146.7500 Du        
   9978 ****       158.2500 114.5000 147.0000 Du        
   9979 ****       158.2500 114.5000 147.2500 Du        
   9980 ****       158.2500 114.5000 147.5000 Du        
   9981 ****       158.2500 114.5000 147.7500 Du        
   9982 ****       158.2500 114.5000 148.0000 Du        
   9983 ****       158.2500 114.5000 148.2500 Du        
   9984 ****       158.2500 114.5000 148.5000 Du        
   9985 ****       158.2500 114.7500 146.5000 Du        
   9986 ****       158.2500 114.7500 146.7500 Du        
   9987 ****       158.2500 114.7500 147.0000 Du        
   9988 ****       158.2500 114.7500 147.2500 Du        
   9989 ****       158.2500 114.7500 147.5000 Du        
   9990 ****       158.2500 114.7500 147.7500 Du        
   9991 ****       158.2500 114.7500 148.0000 Du        
   9992 ****       158.2500 114.7500 148.2500 Du        
   9993 ****       158.2500 115.0000 146.0000 Du        
   9994 ****       158.2500 115.0000 146.2500 Du        
   9995 ****       158.2500 115.0000 146.5000 Du        
   9996 ****       158.2500 115.0000 146.7500 Du        
   9997 ****       158.2500 115.0000 147.0000 Du        
   9998 ****       158.2500 115.0000 147.2500 Du        
   9999 ****       158.2500 115.0000 147.5000 Du        
  10000 ****       158.2500 115.0000 147.7500 Du        
  10001 ****       158.2500 115.0000 148.0000 Du        
  10002 ****       158.2500 115.2500 146.0000 Du        
  10003 ****       158.2500 115.2500 146.2500 Du        
  10004 ****       158.2500 115.2500 146.5000 Du        
  10005 ****       158.2500 115.2500 146.7500 Du        
  10006 ****       158.2500 115.2500 147.0000 Du        
  10007 ****       158.2500 115.2500 147.2500 Du        
  10008 ****       158.2500 115.2500 147.5000 Du        
  10009 ****       158.2500 115.2500 147.7500 Du        
  10010 ****       158.2500 115.2500 148.0000 Du        
  10011 ****       158.2500 115.5000 145.5000 Du        
  10012 ****       158.2500 115.5000 145.7500 Du        
  10013 ****       158.2500 115.5000 146.0000 Du        
  10014 ****       158.2500 115.5000 146.2500 Du        
  10015 ****       158.2500 115.5000 146.5000 Du        
  10016 ****       158.2500 115.5000 146.7500 Du        
  10017 ****       158.2500 115.5000 147.0000 Du        
  10018 ****       158.2500 115.5000 147.2500 Du        
  10019 ****       158.2500 115.5000 147.5000 Du        
  10020 ****       158.2500 115.5000 147.7500 Du        
  10021 ****       158.2500 115.7500 146.7500 Du        
  10022 ****       158.2500 115.7500 147.0000 Du        
  10023 ****       158.2500 115.7500 147.2500 Du        
  10024 ****       158.2500 115.7500 147.5000 Du        
  10025 ****       158.2500 116.0000 144.0000 Du        
  10026 ****       158.2500 116.0000 144.2500 Du        
  10027 ****       158.2500 116.2500 143.5000 Du        
  10028 ****       158.2500 116.2500 143.7500 Du        
  10029 ****       158.2500 116.2500 144.0000 Du        
  10030 ****       158.2500 116.2500 144.2500 Du        
  10031 ****       158.2500 116.2500 144.5000 Du        
  10032 ****       158.2500 116.5000 134.7500 Du        
  10033 ****       158.2500 116.5000 135.0000 Du        
  10034 ****       158.2500 116.5000 135.2500 Du        
  10035 ****       158.2500 116.5000 135.5000 Du        
  10036 ****       158.2500 116.5000 135.7500 Du        
  10037 ****       158.2500 116.5000 136.0000 Du        
  10038 ****       158.2500 116.5000 136.2500 Du        
  10039 ****       158.2500 116.5000 143.2500 Du        
  10040 ****       158.2500 116.5000 143.5000 Du        
  10041 ****       158.2500 116.5000 143.7500 Du        
  10042 ****       158.2500 116.5000 144.0000 Du        
  10043 ****       158.2500 116.5000 144.2500 Du        
  10044 ****       158.2500 116.5000 144.5000 Du        
  10045 ****       158.2500 116.7500 134.5000 Du        
  10046 ****       158.2500 116.7500 134.7500 Du        
  10047 ****       158.2500 116.7500 135.0000 Du        
  10048 ****       158.2500 116.7500 135.2500 Du        
  10049 ****       158.2500 116.7500 135.5000 Du        
  10050 ****       158.2500 116.7500 135.7500 Du        
  10051 ****       158.2500 116.7500 136.0000 Du        
  10052 ****       158.2500 116.7500 136.2500 Du        
  10053 ****       158.2500 116.7500 136.5000 Du        
  10054 ****       158.2500 116.7500 136.7500 Du        
  10055 ****       158.2500 116.7500 143.2500 Du        
  10056 ****       158.2500 116.7500 143.5000 Du        
  10057 ****       158.2500 116.7500 143.7500 Du        
  10058 ****       158.2500 116.7500 144.0000 Du        
  10059 ****       158.2500 116.7500 144.2500 Du        
  10060 ****       158.2500 117.0000 134.2500 Du        
  10061 ****       158.2500 117.0000 134.5000 Du        
  10062 ****       158.2500 117.0000 134.7500 Du        
  10063 ****       158.2500 117.0000 135.0000 Du        
  10064 ****       158.2500 117.0000 135.2500 Du        
  10065 ****       158.2500 117.0000 135.5000 Du        
  10066 ****       158.2500 117.0000 135.7500 Du        
  10067 ****       158.2500 117.0000 136.0000 Du        
  10068 ****       158.2500 117.0000 136.2500 Du        
  10069 ****       158.2500 117.0000 136.5000 Du        
  10070 ****       158.2500 117.0000 136.7500 Du        
  10071 ****       158.2500 117.0000 137.0000 Du        
  10072 ****       158.2500 117.0000 143.5000 Du        
  10073 ****       158.2500 117.0000 143.7500 Du        
  10074 ****       158.2500 117.0000 144.0000 Du        
  10075 ****       158.2500 117.0000 144.2500 Du        
  10076 ****       158.2500 117.2500 134.2500 Du        
  10077 ****       158.2500 117.2500 134.5000 Du        
  10078 ****       158.2500 117.2500 134.7500 Du        
  10079 ****       158.2500 117.2500 135.0000 Du        
  10080 ****       158.2500 117.2500 135.2500 Du        
  10081 ****       158.2500 117.2500 135.5000 Du        
  10082 ****       158.2500 117.2500 135.7500 Du        
  10083 ****       158.2500 117.2500 136.0000 Du        
  10084 ****       158.2500 117.2500 136.2500 Du        
  10085 ****       158.2500 117.2500 136.5000 Du        
  10086 ****       158.2500 117.2500 136.7500 Du        
  10087 ****       158.2500 117.2500 143.7500 Du        
  10088 ****       158.2500 117.2500 144.0000 Du        
  10089 ****       158.2500 117.5000 134.5000 Du        
  10090 ****       158.2500 117.5000 134.7500 Du        
  10091 ****       158.2500 117.5000 135.0000 Du        
  10092 ****       158.2500 117.5000 135.2500 Du        
  10093 ****       158.2500 117.5000 135.5000 Du        
  10094 ****       158.2500 117.5000 135.7500 Du        
  10095 ****       158.2500 117.5000 136.0000 Du        
  10096 ****       158.2500 117.5000 136.2500 Du        
  10097 ****       158.2500 117.5000 136.5000 Du        
  10098 ****       158.2500 117.5000 136.7500 Du        
  10099 ****       158.2500 117.5000 139.7500 Du        
  10100 ****       158.2500 117.5000 140.0000 Du        
  10101 ****       158.2500 117.5000 140.2500 Du        
  10102 ****       158.2500 117.7500 134.7500 Du        
  10103 ****       158.2500 117.7500 135.0000 Du        
  10104 ****       158.2500 117.7500 135.2500 Du        
  10105 ****       158.2500 117.7500 135.5000 Du        
  10106 ****       158.2500 117.7500 135.7500 Du        
  10107 ****       158.2500 117.7500 136.0000 Du        
  10108 ****       158.2500 117.7500 136.2500 Du        
  10109 ****       158.2500 117.7500 139.7500 Du        
  10110 ****       158.2500 117.7500 140.0000 Du        
  10111 ****       158.2500 117.7500 140.2500 Du        
  10112 ****       158.2500 118.0000 135.0000 Du        
  10113 ****       158.2500 118.0000 135.2500 Du        
  10114 ****       158.2500 118.0000 135.5000 Du        
  10115 ****       158.2500 118.0000 135.7500 Du        
  10116 ****       158.2500 118.0000 139.7500 Du        
  10117 ****       158.2500 118.0000 140.0000 Du        
  10118 ****       158.5000 100.2500 146.7500 Du        
  10119 ****       158.5000 100.2500 147.0000 Du        
  10120 ****       158.5000 100.2500 147.2500 Du        
  10121 ****       158.5000 100.5000 146.7500 Du        
  10122 ****       158.5000 100.5000 147.0000 Du        
  10123 ****       158.5000 100.5000 147.2500 Du        
  10124 ****       158.5000 100.5000 147.5000 Du        
  10125 ****       158.5000 100.7500 146.5000 Du        
  10126 ****       158.5000 100.7500 146.7500 Du        
  10127 ****       158.5000 100.7500 147.0000 Du        
  10128 ****       158.5000 100.7500 147.2500 Du        
  10129 ****       158.5000 100.7500 147.5000 Du        
  10130 ****       158.5000 100.7500 147.7500 Du        
  10131 ****       158.5000 101.0000 146.5000 Du        
  10132 ****       158.5000 101.0000 146.7500 Du        
  10133 ****       158.5000 101.0000 147.0000 Du        
  10134 ****       158.5000 101.0000 147.2500 Du        
  10135 ****       158.5000 101.0000 147.5000 Du        
  10136 ****       158.5000 101.0000 147.7500 Du        
  10137 ****       158.5000 101.2500 146.2500 Du        
  10138 ****       158.5000 101.2500 146.5000 Du        
  10139 ****       158.5000 101.2500 146.7500 Du        
  10140 ****       158.5000 101.2500 147.0000 Du        
  10141 ****       158.5000 101.2500 147.2500 Du        
  10142 ****       158.5000 101.2500 147.5000 Du        
  10143 ****       158.5000 101.2500 147.7500 Du        
  10144 ****       158.5000 101.2500 148.0000 Du        
  10145 ****       158.5000 101.5000 146.2500 Du        
  10146 ****       158.5000 101.5000 146.5000 Du        
  10147 ****       158.5000 101.5000 146.7500 Du        
  10148 ****       158.5000 101.5000 147.0000 Du        
  10149 ****       158.5000 101.5000 147.2500 Du        
  10150 ****       158.5000 101.5000 147.5000 Du        
  10151 ****       158.5000 101.5000 147.7500 Du        
  10152 ****       158.5000 101.5000 148.0000 Du        
  10153 ****       158.5000 101.7500 146.2500 Du        
  10154 ****       158.5000 101.7500 146.5000 Du        
  10155 ****       158.5000 101.7500 146.7500 Du        
  10156 ****       158.5000 101.7500 147.0000 Du        
  10157 ****       158.5000 101.7500 147.2500 Du        
  10158 ****       158.5000 101.7500 147.5000 Du        
  10159 ****       158.5000 101.7500 147.7500 Du        
  10160 ****       158.5000 101.7500 148.0000 Du        
  10161 ****       158.5000 102.0000 146.2500 Du        
  10162 ****       158.5000 102.0000 146.5000 Du        
  10163 ****       158.5000 102.0000 146.7500 Du        
  10164 ****       158.5000 102.0000 147.0000 Du        
  10165 ****       158.5000 102.0000 147.2500 Du        
  10166 ****       158.5000 102.0000 147.5000 Du        
  10167 ****       158.5000 102.0000 147.7500 Du        
  10168 ****       158.5000 102.0000 148.0000 Du        
  10169 ****       158.5000 102.2500 146.2500 Du        
  10170 ****       158.5000 102.2500 146.5000 Du        
  10171 ****       158.5000 102.2500 146.7500 Du        
  10172 ****       158.5000 102.2500 147.0000 Du        
  10173 ****       158.5000 102.2500 147.2500 Du        
  10174 ****       158.5000 102.2500 147.5000 Du        
  10175 ****       158.5000 102.2500 147.7500 Du        
  10176 ****       158.5000 102.2500 148.0000 Du        
  10177 ****       158.5000 105.5000 129.2500 Du        
  10178 ****       158.5000 105.5000 129.5000 Du        
  10179 ****       158.5000 105.5000 129.7500 Du        
  10180 ****       158.5000 105.5000 130.0000 Du        
  10181 ****       158.5000 105.7500 129.2500 Du        
  10182 ****       158.5000 105.7500 129.5000 Du        
  10183 ****       158.5000 105.7500 129.7500 Du        
  10184 ****       158.5000 106.0000 129.5000 Du        
  10185 ****       158.5000 106.0000 129.7500 Du        
  10186 ****       158.5000 106.2500 129.5000 Du        
  10187 ****       158.5000 109.7500 136.7500 Du        
  10188 ****       158.5000 109.7500 137.0000 Du        
  10189 ****       158.5000 109.7500 137.2500 Du        
  10190 ****       158.5000 110.0000 136.5000 Du        
  10191 ****       158.5000 110.0000 136.7500 Du        
  10192 ****       158.5000 110.0000 137.0000 Du        
  10193 ****       158.5000 110.0000 137.2500 Du        
  10194 ****       158.5000 110.0000 137.5000 Du        
  10195 ****       158.5000 110.0000 137.7500 Du        
  10196 ****       158.5000 110.0000 138.0000 Du        
  10197 ****       158.5000 110.2500 136.7500 Du        
  10198 ****       158.5000 110.2500 137.0000 Du        
  10199 ****       158.5000 110.2500 137.2500 Du        
  10200 ****       158.5000 110.2500 137.5000 Du        
  10201 ****       158.5000 110.2500 137.7500 Du        
  10202 ****       158.5000 110.2500 138.0000 Du        
  10203 ****       158.5000 110.5000 137.2500 Du        
  10204 ****       158.5000 112.5000 148.5000 Du        
  10205 ****       158.5000 112.7500 147.7500 Du        
  10206 ****       158.5000 112.7500 148.0000 Du        
  10207 ****       158.5000 112.7500 148.2500 Du        
  10208 ****       158.5000 112.7500 148.5000 Du        
  10209 ****       158.5000 112.7500 148.7500 Du        
  10210 ****       158.5000 113.0000 147.7500 Du        
  10211 ****       158.5000 113.0000 148.0000 Du        
  10212 ****       158.5000 113.0000 148.2500 Du        
  10213 ****       158.5000 113.0000 148.5000 Du        
  10214 ****       158.5000 113.0000 148.7500 Du        
  10215 ****       158.5000 113.0000 149.0000 Du        
  10216 ****       158.5000 113.2500 147.7500 Du        
  10217 ****       158.5000 113.2500 148.0000 Du        
  10218 ****       158.5000 113.2500 148.2500 Du        
  10219 ****       158.5000 113.2500 148.5000 Du        
  10220 ****       158.5000 113.2500 148.7500 Du        
  10221 ****       158.5000 113.2500 149.0000 Du        
  10222 ****       158.5000 113.2500 149.2500 Du        
  10223 ****       158.5000 113.5000 147.5000 Du        
  10224 ****       158.5000 113.5000 147.7500 Du        
  10225 ****       158.5000 113.5000 148.0000 Du        
  10226 ****       158.5000 113.5000 148.2500 Du        
  10227 ****       158.5000 113.5000 148.5000 Du        
  10228 ****       158.5000 113.5000 148.7500 Du        
  10229 ****       158.5000 113.5000 149.0000 Du        
  10230 ****       158.5000 113.5000 149.2500 Du        
  10231 ****       158.5000 113.7500 147.2500 Du        
  10232 ****       158.5000 113.7500 147.5000 Du        
  10233 ****       158.5000 113.7500 147.7500 Du        
  10234 ****       158.5000 113.7500 148.0000 Du        
  10235 ****       158.5000 113.7500 148.2500 Du        
  10236 ****       158.5000 113.7500 148.5000 Du        
  10237 ****       158.5000 113.7500 148.7500 Du        
  10238 ****       158.5000 113.7500 149.0000 Du        
  10239 ****       158.5000 113.7500 149.2500 Du        
  10240 ****       158.5000 114.0000 147.2500 Du        
  10241 ****       158.5000 114.0000 147.5000 Du        
  10242 ****       158.5000 114.0000 147.7500 Du        
  10243 ****       158.5000 114.0000 148.0000 Du        
  10244 ****       158.5000 114.0000 148.2500 Du        
  10245 ****       158.5000 114.0000 148.5000 Du        
  10246 ****       158.5000 114.0000 148.7500 Du        
  10247 ****       158.5000 114.0000 149.0000 Du        
  10248 ****       158.5000 114.2500 147.0000 Du        
  10249 ****       158.5000 114.2500 147.2500 Du        
  10250 ****       158.5000 114.2500 147.5000 Du        
  10251 ****       158.5000 114.2500 147.7500 Du        
  10252 ****       158.5000 114.2500 148.0000 Du        
  10253 ****       158.5000 114.2500 148.2500 Du        
  10254 ****       158.5000 114.2500 148.5000 Du        
  10255 ****       158.5000 114.2500 148.7500 Du        
  10256 ****       158.5000 114.5000 146.7500 Du        
  10257 ****       158.5000 114.5000 147.0000 Du        
  10258 ****       158.5000 114.5000 147.2500 Du        
  10259 ****       158.5000 114.5000 147.5000 Du        
  10260 ****       158.5000 114.5000 147.7500 Du        
  10261 ****       158.5000 114.5000 148.0000 Du        
  10262 ****       158.5000 114.5000 148.2500 Du        
  10263 ****       158.5000 114.5000 148.5000 Du        
  10264 ****       158.5000 114.7500 146.5000 Du        
  10265 ****       158.5000 114.7500 146.7500 Du        
  10266 ****       158.5000 114.7500 147.0000 Du        
  10267 ****       158.5000 114.7500 147.2500 Du        
  10268 ****       158.5000 114.7500 147.5000 Du        
  10269 ****       158.5000 114.7500 147.7500 Du        
  10270 ****       158.5000 114.7500 148.0000 Du        
  10271 ****       158.5000 114.7500 148.2500 Du        
  10272 ****       158.5000 115.0000 146.5000 Du        
  10273 ****       158.5000 115.0000 146.7500 Du        
  10274 ****       158.5000 115.0000 147.0000 Du        
  10275 ****       158.5000 115.0000 147.2500 Du        
  10276 ****       158.5000 115.0000 147.5000 Du        
  10277 ****       158.5000 115.0000 147.7500 Du        
  10278 ****       158.5000 115.0000 148.0000 Du        
  10279 ****       158.5000 115.2500 146.5000 Du        
  10280 ****       158.5000 115.2500 146.7500 Du        
  10281 ****       158.5000 115.2500 147.0000 Du        
  10282 ****       158.5000 115.2500 147.2500 Du        
  10283 ****       158.5000 115.2500 147.5000 Du        
  10284 ****       158.5000 115.2500 147.7500 Du        
  10285 ****       158.5000 115.5000 145.7500 Du        
  10286 ****       158.5000 115.5000 146.0000 Du        
  10287 ****       158.5000 115.5000 146.2500 Du        
  10288 ****       158.5000 115.5000 146.5000 Du        
  10289 ****       158.5000 115.5000 146.7500 Du        
  10290 ****       158.5000 115.5000 147.0000 Du        
  10291 ****       158.5000 115.5000 147.2500 Du        
  10292 ****       158.5000 115.5000 147.5000 Du        
  10293 ****       158.5000 115.5000 147.7500 Du        
  10294 ****       158.5000 115.7500 147.2500 Du        
  10295 ****       158.5000 115.7500 147.5000 Du        
  10296 ****       158.5000 116.7500 134.2500 Du        
  10297 ****       158.5000 116.7500 134.5000 Du        
  10298 ****       158.5000 116.7500 134.7500 Du        
  10299 ****       158.5000 116.7500 135.0000 Du        
  10300 ****       158.5000 116.7500 135.2500 Du        
  10301 ****       158.5000 116.7500 135.5000 Du        
  10302 ****       158.5000 116.7500 135.7500 Du        
  10303 ****       158.5000 116.7500 136.0000 Du        
  10304 ****       158.5000 116.7500 136.2500 Du        
  10305 ****       158.5000 117.0000 134.2500 Du        
  10306 ****       158.5000 117.0000 134.5000 Du        
  10307 ****       158.5000 117.0000 134.7500 Du        
  10308 ****       158.5000 117.0000 135.0000 Du        
  10309 ****       158.5000 117.0000 135.2500 Du        
  10310 ****       158.5000 117.0000 135.5000 Du        
  10311 ****       158.5000 117.0000 135.7500 Du        
  10312 ****       158.5000 117.0000 136.0000 Du        
  10313 ****       158.5000 117.0000 136.2500 Du        
  10314 ****       158.5000 117.0000 136.5000 Du        
  10315 ****       158.5000 117.2500 134.2500 Du        
  10316 ****       158.5000 117.2500 134.5000 Du        
  10317 ****       158.5000 117.2500 134.7500 Du        
  10318 ****       158.5000 117.2500 135.0000 Du        
  10319 ****       158.5000 117.2500 135.2500 Du        
  10320 ****       158.5000 117.2500 135.5000 Du        
  10321 ****       158.5000 117.2500 135.7500 Du        
  10322 ****       158.5000 117.2500 136.0000 Du        
  10323 ****       158.5000 117.2500 136.2500 Du        
  10324 ****       158.5000 117.5000 134.5000 Du        
  10325 ****       158.5000 117.5000 134.7500 Du        
  10326 ****       158.5000 117.5000 135.0000 Du        
  10327 ****       158.5000 117.5000 135.2500 Du        
  10328 ****       158.5000 117.5000 135.5000 Du        
  10329 ****       158.5000 117.5000 135.7500 Du        
  10330 ****       158.5000 117.5000 136.0000 Du        
  10331 ****       158.5000 117.5000 136.2500 Du        
  10332 ****       158.5000 117.7500 134.5000 Du        
  10333 ****       158.5000 117.7500 134.7500 Du        
  10334 ****       158.5000 117.7500 135.0000 Du        
  10335 ****       158.5000 117.7500 135.2500 Du        
  10336 ****       158.5000 117.7500 135.5000 Du        
  10337 ****       158.5000 117.7500 135.7500 Du        
  10338 ****       158.5000 117.7500 136.0000 Du        
  10339 ****       158.5000 117.7500 136.2500 Du        
  10340 ****       158.5000 118.0000 134.7500 Du        
  10341 ****       158.5000 118.0000 135.0000 Du        
  10342 ****       158.5000 118.0000 135.2500 Du        
  10343 ****       158.5000 118.0000 135.5000 Du        
  10344 ****       158.5000 118.0000 135.7500 Du        
  10345 ****       158.5000 118.2500 135.0000 Du        
  10346 ****       158.5000 118.2500 135.2500 Du        
  10347 ****       158.7500 100.0000 147.0000 Du        
  10348 ****       158.7500 100.0000 147.2500 Du        
  10349 ****       158.7500 100.2500 146.7500 Du        
  10350 ****       158.7500 100.2500 147.0000 Du        
  10351 ****       158.7500 100.2500 147.2500 Du        
  10352 ****       158.7500 100.2500 147.5000 Du        
  10353 ****       158.7500 100.5000 146.5000 Du        
  10354 ****       158.7500 100.5000 146.7500 Du        
  10355 ****       158.7500 100.5000 147.0000 Du        
  10356 ****       158.7500 100.5000 147.2500 Du        
  10357 ****       158.7500 100.5000 147.5000 Du        
  10358 ****       158.7500 100.5000 147.7500 Du        
  10359 ****       158.7500 100.7500 146.2500 Du        
  10360 ****       158.7500 100.7500 146.5000 Du        
  10361 ****       158.7500 100.7500 146.7500 Du        
  10362 ****       158.7500 100.7500 147.0000 Du        
  10363 ****       158.7500 100.7500 147.2500 Du        
  10364 ****       158.7500 100.7500 147.5000 Du        
  10365 ****       158.7500 100.7500 147.7500 Du        
  10366 ****       158.7500 101.0000 146.2500 Du        
  10367 ****       158.7500 101.0000 146.5000 Du        
  10368 ****       158.7500 101.0000 146.7500 Du        
  10369 ****       158.7500 101.0000 147.0000 Du        
  10370 ****       158.7500 101.0000 147.2500 Du        
  10371 ****       158.7500 101.0000 147.5000 Du        
  10372 ****       158.7500 101.0000 147.7500 Du        
  10373 ****       158.7500 101.0000 148.0000 Du        
  10374 ****       158.7500 101.2500 146.0000 Du        
  10375 ****       158.7500 101.2500 146.2500 Du        
  10376 ****       158.7500 101.2500 146.5000 Du        
  10377 ****       158.7500 101.2500 146.7500 Du        
  10378 ****       158.7500 101.2500 147.0000 Du        
  10379 ****       158.7500 101.2500 147.2500 Du        
  10380 ****       158.7500 101.2500 147.5000 Du        
  10381 ****       158.7500 101.2500 147.7500 Du        
  10382 ****       158.7500 101.2500 148.0000 Du        
  10383 ****       158.7500 101.5000 146.0000 Du        
  10384 ****       158.7500 101.5000 146.2500 Du        
  10385 ****       158.7500 101.5000 146.5000 Du        
  10386 ****       158.7500 101.5000 146.7500 Du        
  10387 ****       158.7500 101.5000 147.0000 Du        
  10388 ****       158.7500 101.5000 147.2500 Du        
  10389 ****       158.7500 101.5000 147.5000 Du        
  10390 ****       158.7500 101.5000 147.7500 Du        
  10391 ****       158.7500 101.5000 148.0000 Du        
  10392 ****       158.7500 101.7500 146.0000 Du        
  10393 ****       158.7500 101.7500 146.2500 Du        
  10394 ****       158.7500 101.7500 146.5000 Du        
  10395 ****       158.7500 101.7500 146.7500 Du        
  10396 ****       158.7500 101.7500 147.0000 Du        
  10397 ****       158.7500 101.7500 147.2500 Du        
  10398 ****       158.7500 101.7500 147.5000 Du        
  10399 ****       158.7500 101.7500 147.7500 Du        
  10400 ****       158.7500 101.7500 148.0000 Du        
  10401 ****       158.7500 102.0000 146.0000 Du        
  10402 ****       158.7500 102.0000 146.2500 Du        
  10403 ****       158.7500 102.0000 146.5000 Du        
  10404 ****       158.7500 102.0000 146.7500 Du        
  10405 ****       158.7500 102.0000 147.0000 Du        
  10406 ****       158.7500 102.0000 147.2500 Du        
  10407 ****       158.7500 102.0000 147.5000 Du        
  10408 ****       158.7500 102.0000 147.7500 Du        
  10409 ****       158.7500 102.0000 148.0000 Du        
  10410 ****       158.7500 102.2500 146.0000 Du        
  10411 ****       158.7500 102.2500 146.2500 Du        
  10412 ****       158.7500 102.2500 146.5000 Du        
  10413 ****       158.7500 102.2500 146.7500 Du        
  10414 ****       158.7500 102.2500 147.0000 Du        
  10415 ****       158.7500 102.2500 147.2500 Du        
  10416 ****       158.7500 102.2500 147.5000 Du        
  10417 ****       158.7500 105.2500 129.7500 Du        
  10418 ****       158.7500 105.2500 130.0000 Du        
  10419 ****       158.7500 105.5000 129.5000 Du        
  10420 ****       158.7500 105.5000 129.7500 Du        
  10421 ****       158.7500 105.5000 130.0000 Du        
  10422 ****       158.7500 105.5000 130.2500 Du        
  10423 ****       158.7500 105.7500 129.5000 Du        
  10424 ****       158.7500 105.7500 129.7500 Du        
  10425 ****       158.7500 105.7500 130.0000 Du        
  10426 ****       158.7500 106.0000 129.5000 Du        
  10427 ****       158.7500 106.0000 129.7500 Du        
  10428 ****       158.7500 106.0000 130.0000 Du        
  10429 ****       158.7500 106.2500 129.5000 Du        
  10430 ****       158.7500 106.2500 129.7500 Du        
  10431 ****       158.7500 110.0000 136.7500 Du        
  10432 ****       158.7500 110.0000 137.0000 Du        
  10433 ****       158.7500 110.0000 137.2500 Du        
  10434 ****       158.7500 110.0000 137.5000 Du        
  10435 ****       158.7500 110.0000 137.7500 Du        
  10436 ****       158.7500 110.2500 137.0000 Du        
  10437 ****       158.7500 110.2500 137.2500 Du        
  10438 ****       158.7500 110.2500 137.5000 Du        
  10439 ****       158.7500 110.2500 137.7500 Du        
  10440 ****       158.7500 112.7500 147.7500 Du        
  10441 ****       158.7500 112.7500 148.0000 Du        
  10442 ****       158.7500 112.7500 148.2500 Du        
  10443 ****       158.7500 113.0000 147.5000 Du        
  10444 ****       158.7500 113.0000 147.7500 Du        
  10445 ****       158.7500 113.0000 148.0000 Du        
  10446 ****       158.7500 113.0000 148.2500 Du        
  10447 ****       158.7500 113.0000 148.5000 Du        
  10448 ****       158.7500 113.0000 148.7500 Du        
  10449 ****       158.7500 113.2500 147.5000 Du        
  10450 ****       158.7500 113.2500 147.7500 Du        
  10451 ****       158.7500 113.2500 148.0000 Du        
  10452 ****       158.7500 113.2500 148.2500 Du        
  10453 ****       158.7500 113.2500 148.5000 Du        
  10454 ****       158.7500 113.2500 148.7500 Du        
  10455 ****       158.7500 113.2500 149.0000 Du        
  10456 ****       158.7500 113.5000 147.2500 Du        
  10457 ****       158.7500 113.5000 147.5000 Du        
  10458 ****       158.7500 113.5000 147.7500 Du        
  10459 ****       158.7500 113.5000 148.0000 Du        
  10460 ****       158.7500 113.5000 148.2500 Du        
  10461 ****       158.7500 113.5000 148.5000 Du        
  10462 ****       158.7500 113.5000 148.7500 Du        
  10463 ****       158.7500 113.5000 149.0000 Du        
  10464 ****       158.7500 113.7500 147.0000 Du        
  10465 ****       158.7500 113.7500 147.2500 Du        
  10466 ****       158.7500 113.7500 147.5000 Du        
  10467 ****       158.7500 113.7500 147.7500 Du        
  10468 ****       158.7500 113.7500 148.0000 Du        
  10469 ****       158.7500 113.7500 148.2500 Du        
  10470 ****       158.7500 113.7500 148.5000 Du        
  10471 ****       158.7500 113.7500 148.7500 Du        
  10472 ****       158.7500 113.7500 149.0000 Du        
  10473 ****       158.7500 113.7500 149.2500 Du        
  10474 ****       158.7500 114.0000 147.0000 Du        
  10475 ****       158.7500 114.0000 147.2500 Du        
  10476 ****       158.7500 114.0000 147.5000 Du        
  10477 ****       158.7500 114.0000 147.7500 Du        
  10478 ****       158.7500 114.0000 148.0000 Du        
  10479 ****       158.7500 114.0000 148.2500 Du        
  10480 ****       158.7500 114.0000 148.5000 Du        
  10481 ****       158.7500 114.0000 148.7500 Du        
  10482 ****       158.7500 114.0000 149.0000 Du        
  10483 ****       158.7500 114.2500 147.0000 Du        
  10484 ****       158.7500 114.2500 147.2500 Du        
  10485 ****       158.7500 114.2500 147.5000 Du        
  10486 ****       158.7500 114.2500 147.7500 Du        
  10487 ****       158.7500 114.2500 148.0000 Du        
  10488 ****       158.7500 114.2500 148.2500 Du        
  10489 ****       158.7500 114.2500 148.5000 Du        
  10490 ****       158.7500 114.2500 148.7500 Du        
  10491 ****       158.7500 114.5000 146.5000 Du        
  10492 ****       158.7500 114.5000 146.7500 Du        
  10493 ****       158.7500 114.5000 147.0000 Du        
  10494 ****       158.7500 114.5000 147.2500 Du        
  10495 ****       158.7500 114.5000 147.5000 Du        
  10496 ****       158.7500 114.5000 147.7500 Du        
  10497 ****       158.7500 114.5000 148.0000 Du        
  10498 ****       158.7500 114.5000 148.2500 Du        
  10499 ****       158.7500 114.5000 148.5000 Du        
  10500 ****       158.7500 114.7500 146.5000 Du        
  10501 ****       158.7500 114.7500 146.7500 Du        
  10502 ****       158.7500 114.7500 147.0000 Du        
  10503 ****       158.7500 114.7500 147.2500 Du        
  10504 ****       158.7500 114.7500 147.5000 Du        
  10505 ****       158.7500 114.7500 147.7500 Du        
  10506 ****       158.7500 114.7500 148.0000 Du        
  10507 ****       158.7500 114.7500 148.2500 Du        
  10508 ****       158.7500 115.0000 146.5000 Du        
  10509 ****       158.7500 115.0000 146.7500 Du        
  10510 ****       158.7500 115.0000 147.0000 Du        
  10511 ****       158.7500 115.0000 147.2500 Du        
  10512 ****       158.7500 115.0000 147.5000 Du        
  10513 ****       158.7500 115.0000 147.7500 Du        
  10514 ****       158.7500 115.0000 148.0000 Du        
  10515 ****       158.7500 115.2500 146.5000 Du        
  10516 ****       158.7500 115.2500 146.7500 Du        
  10517 ****       158.7500 115.2500 147.0000 Du        
  10518 ****       158.7500 115.2500 147.2500 Du        
  10519 ****       158.7500 115.2500 147.5000 Du        
  10520 ****       158.7500 115.2500 147.7500 Du        
  10521 ****       158.7500 115.5000 146.5000 Du        
  10522 ****       158.7500 115.5000 146.7500 Du        
  10523 ****       158.7500 115.5000 147.0000 Du        
  10524 ****       158.7500 115.5000 147.2500 Du        
  10525 ****       158.7500 115.5000 147.5000 Du        
  10526 ****       158.7500 116.7500 134.7500 Du        
  10527 ****       158.7500 116.7500 135.0000 Du        
  10528 ****       158.7500 116.7500 135.2500 Du        
  10529 ****       158.7500 117.0000 134.2500 Du        
  10530 ****       158.7500 117.0000 134.5000 Du        
  10531 ****       158.7500 117.0000 134.7500 Du        
  10532 ****       158.7500 117.0000 135.0000 Du        
  10533 ****       158.7500 117.0000 135.2500 Du        
  10534 ****       158.7500 117.0000 135.5000 Du        
  10535 ****       158.7500 117.0000 135.7500 Du        
  10536 ****       158.7500 117.0000 136.0000 Du        
  10537 ****       158.7500 117.0000 136.2500 Du        
  10538 ****       158.7500 117.2500 134.2500 Du        
  10539 ****       158.7500 117.2500 134.5000 Du        
  10540 ****       158.7500 117.2500 134.7500 Du        
  10541 ****       158.7500 117.2500 135.0000 Du        
  10542 ****       158.7500 117.2500 135.2500 Du        
  10543 ****       158.7500 117.2500 135.5000 Du        
  10544 ****       158.7500 117.2500 135.7500 Du        
  10545 ****       158.7500 117.2500 136.0000 Du        
  10546 ****       158.7500 117.2500 136.2500 Du        
  10547 ****       158.7500 117.5000 134.2500 Du        
  10548 ****       158.7500 117.5000 134.5000 Du        
  10549 ****       158.7500 117.5000 134.7500 Du        
  10550 ****       158.7500 117.5000 135.0000 Du        
  10551 ****       158.7500 117.5000 135.2500 Du        
  10552 ****       158.7500 117.5000 135.5000 Du        
  10553 ****       158.7500 117.5000 135.7500 Du        
  10554 ****       158.7500 117.5000 136.0000 Du        
  10555 ****       158.7500 117.7500 134.5000 Du        
  10556 ****       158.7500 117.7500 134.7500 Du        
  10557 ****       158.7500 117.7500 135.0000 Du        
  10558 ****       158.7500 117.7500 135.2500 Du        
  10559 ****       158.7500 117.7500 135.5000 Du        
  10560 ****       158.7500 117.7500 135.7500 Du        
  10561 ****       158.7500 117.7500 136.0000 Du        
  10562 ****       158.7500 118.0000 134.7500 Du        
  10563 ****       158.7500 118.0000 135.0000 Du        
  10564 ****       158.7500 118.0000 135.2500 Du        
  10565 ****       158.7500 118.0000 135.5000 Du        
  10566 ****       158.7500 118.0000 135.7500 Du        
  10567 ****       158.7500 118.2500 134.7500 Du        
  10568 ****       158.7500 118.2500 135.0000 Du        
  10569 ****       158.7500 118.2500 135.2500 Du        
  10570 ****       159.0000 100.0000 147.0000 Du        
  10571 ****       159.0000 100.0000 147.2500 Du        
  10572 ****       159.0000 100.0000 147.5000 Du        
  10573 ****       159.0000 100.2500 146.7500 Du        
  10574 ****       159.0000 100.2500 147.0000 Du        
  10575 ****       159.0000 100.2500 147.2500 Du        
  10576 ****       159.0000 100.2500 147.5000 Du        
  10577 ****       159.0000 100.2500 147.7500 Du        
  10578 ****       159.0000 100.5000 146.5000 Du        
  10579 ****       159.0000 100.5000 146.7500 Du        
  10580 ****       159.0000 100.5000 147.0000 Du        
  10581 ****       159.0000 100.5000 147.2500 Du        
  10582 ****       159.0000 100.5000 147.5000 Du        
  10583 ****       159.0000 100.5000 147.7500 Du        
  10584 ****       159.0000 100.7500 146.2500 Du        
  10585 ****       159.0000 100.7500 146.5000 Du        
  10586 ****       159.0000 100.7500 146.7500 Du        
  10587 ****       159.0000 100.7500 147.0000 Du        
  10588 ****       159.0000 100.7500 147.2500 Du        
  10589 ****       159.0000 100.7500 147.5000 Du        
  10590 ****       159.0000 100.7500 147.7500 Du        
  10591 ****       159.0000 101.0000 146.0000 Du        
  10592 ****       159.0000 101.0000 146.2500 Du        
  10593 ****       159.0000 101.0000 146.5000 Du        
  10594 ****       159.0000 101.0000 146.7500 Du        
  10595 ****       159.0000 101.0000 147.0000 Du        
  10596 ****       159.0000 101.0000 147.2500 Du        
  10597 ****       159.0000 101.0000 147.5000 Du        
  10598 ****       159.0000 101.0000 147.7500 Du        
  10599 ****       159.0000 101.0000 148.0000 Du        
  10600 ****       159.0000 101.2500 145.7500 Du        
  10601 ****       159.0000 101.2500 146.0000 Du        
  10602 ****       159.0000 101.2500 146.2500 Du        
  10603 ****       159.0000 101.2500 146.5000 Du        
  10604 ****       159.0000 101.2500 146.7500 Du        
  10605 ****       159.0000 101.2500 147.0000 Du        
  10606 ****       159.0000 101.2500 147.2500 Du        
  10607 ****       159.0000 101.2500 147.5000 Du        
  10608 ****       159.0000 101.2500 147.7500 Du        
  10609 ****       159.0000 101.2500 148.0000 Du        
  10610 ****       159.0000 101.5000 145.7500 Du        
  10611 ****       159.0000 101.5000 146.0000 Du        
  10612 ****       159.0000 101.5000 146.2500 Du        
  10613 ****       159.0000 101.5000 146.5000 Du        
  10614 ****       159.0000 101.5000 146.7500 Du        
  10615 ****       159.0000 101.5000 147.0000 Du        
  10616 ****       159.0000 101.5000 147.2500 Du        
  10617 ****       159.0000 101.5000 147.5000 Du        
  10618 ****       159.0000 101.5000 147.7500 Du        
  10619 ****       159.0000 101.5000 148.0000 Du        
  10620 ****       159.0000 101.7500 145.7500 Du        
  10621 ****       159.0000 101.7500 146.0000 Du        
  10622 ****       159.0000 101.7500 146.2500 Du        
  10623 ****       159.0000 101.7500 146.5000 Du        
  10624 ****       159.0000 101.7500 146.7500 Du        
  10625 ****       159.0000 101.7500 147.0000 Du        
  10626 ****       159.0000 101.7500 147.2500 Du        
  10627 ****       159.0000 101.7500 147.5000 Du        
  10628 ****       159.0000 101.7500 147.7500 Du        
  10629 ****       159.0000 101.7500 148.0000 Du        
  10630 ****       159.0000 102.0000 145.7500 Du        
  10631 ****       159.0000 102.0000 146.0000 Du        
  10632 ****       159.0000 102.0000 146.2500 Du        
  10633 ****       159.0000 102.0000 146.5000 Du        
  10634 ****       159.0000 102.0000 146.7500 Du        
  10635 ****       159.0000 102.0000 147.0000 Du        
  10636 ****       159.0000 102.0000 147.2500 Du        
  10637 ****       159.0000 102.0000 147.5000 Du        
  10638 ****       159.0000 102.0000 147.7500 Du        
  10639 ****       159.0000 102.0000 148.0000 Du        
  10640 ****       159.0000 102.2500 146.0000 Du        
  10641 ****       159.0000 102.2500 146.2500 Du        
  10642 ****       159.0000 102.2500 146.5000 Du        
  10643 ****       159.0000 102.2500 146.7500 Du        
  10644 ****       159.0000 102.2500 147.0000 Du        
  10645 ****       159.0000 102.2500 147.2500 Du        
  10646 ****       159.0000 102.2500 147.5000 Du        
  10647 ****       159.0000 105.2500 129.7500 Du        
  10648 ****       159.0000 105.2500 130.0000 Du        
  10649 ****       159.0000 105.2500 130.2500 Du        
  10650 ****       159.0000 105.5000 129.5000 Du        
  10651 ****       159.0000 105.5000 129.7500 Du        
  10652 ****       159.0000 105.5000 130.0000 Du        
  10653 ****       159.0000 105.5000 130.2500 Du        
  10654 ****       159.0000 105.5000 130.5000 Du        
  10655 ****       159.0000 105.7500 129.5000 Du        
  10656 ****       159.0000 105.7500 129.7500 Du        
  10657 ****       159.0000 105.7500 130.0000 Du        
  10658 ****       159.0000 105.7500 130.2500 Du        
  10659 ****       159.0000 105.7500 130.5000 Du        
  10660 ****       159.0000 106.0000 129.5000 Du        
  10661 ****       159.0000 106.0000 129.7500 Du        
  10662 ****       159.0000 106.0000 130.0000 Du        
  10663 ****       159.0000 106.0000 130.2500 Du        
  10664 ****       159.0000 106.2500 129.7500 Du        
  10665 ****       159.0000 106.2500 130.0000 Du        
  10666 ****       159.0000 110.0000 137.0000 Du        
  10667 ****       159.0000 110.0000 137.2500 Du        
  10668 ****       159.0000 110.2500 137.2500 Du        
  10669 ****       159.0000 112.7500 147.7500 Du        
  10670 ****       159.0000 113.0000 147.5000 Du        
  10671 ****       159.0000 113.0000 147.7500 Du        
  10672 ****       159.0000 113.0000 148.0000 Du        
  10673 ****       159.0000 113.0000 148.2500 Du        
  10674 ****       159.0000 113.2500 147.2500 Du        
  10675 ****       159.0000 113.2500 147.5000 Du        
  10676 ****       159.0000 113.2500 147.7500 Du        
  10677 ****       159.0000 113.2500 148.0000 Du        
  10678 ****       159.0000 113.2500 148.2500 Du        
  10679 ****       159.0000 113.2500 148.5000 Du        
  10680 ****       159.0000 113.2500 148.7500 Du        
  10681 ****       159.0000 113.5000 147.2500 Du        
  10682 ****       159.0000 113.5000 147.5000 Du        
  10683 ****       159.0000 113.5000 147.7500 Du        
  10684 ****       159.0000 113.5000 148.0000 Du        
  10685 ****       159.0000 113.5000 148.2500 Du        
  10686 ****       159.0000 113.5000 148.5000 Du        
  10687 ****       159.0000 113.5000 148.7500 Du        
  10688 ****       159.0000 113.5000 149.0000 Du        
  10689 ****       159.0000 113.7500 147.0000 Du        
  10690 ****       159.0000 113.7500 147.2500 Du        
  10691 ****       159.0000 113.7500 147.5000 Du        
  10692 ****       159.0000 113.7500 147.7500 Du        
  10693 ****       159.0000 113.7500 148.0000 Du        
  10694 ****       159.0000 113.7500 148.2500 Du        
  10695 ****       159.0000 113.7500 148.5000 Du        
  10696 ****       159.0000 113.7500 148.7500 Du        
  10697 ****       159.0000 113.7500 149.0000 Du        
  10698 ****       159.0000 114.0000 147.0000 Du        
  10699 ****       159.0000 114.0000 147.2500 Du        
  10700 ****       159.0000 114.0000 147.5000 Du        
  10701 ****       159.0000 114.0000 147.7500 Du        
  10702 ****       159.0000 114.0000 148.0000 Du        
  10703 ****       159.0000 114.0000 148.2500 Du        
  10704 ****       159.0000 114.0000 148.5000 Du        
  10705 ****       159.0000 114.0000 148.7500 Du        
  10706 ****       159.0000 114.0000 149.0000 Du        
  10707 ****       159.0000 114.2500 146.7500 Du        
  10708 ****       159.0000 114.2500 147.0000 Du        
  10709 ****       159.0000 114.2500 147.2500 Du        
  10710 ****       159.0000 114.2500 147.5000 Du        
  10711 ****       159.0000 114.2500 147.7500 Du        
  10712 ****       159.0000 114.2500 148.0000 Du        
  10713 ****       159.0000 114.2500 148.2500 Du        
  10714 ****       159.0000 114.2500 148.5000 Du        
  10715 ****       159.0000 114.2500 148.7500 Du        
  10716 ****       159.0000 114.5000 146.7500 Du        
  10717 ****       159.0000 114.5000 147.0000 Du        
  10718 ****       159.0000 114.5000 147.2500 Du        
  10719 ****       159.0000 114.5000 147.5000 Du        
  10720 ****       159.0000 114.5000 147.7500 Du        
  10721 ****       159.0000 114.5000 148.0000 Du        
  10722 ****       159.0000 114.5000 148.2500 Du        
  10723 ****       159.0000 114.5000 148.5000 Du        
  10724 ****       159.0000 114.7500 146.7500 Du        
  10725 ****       159.0000 114.7500 147.0000 Du        
  10726 ****       159.0000 114.7500 147.2500 Du        
  10727 ****       159.0000 114.7500 147.5000 Du        
  10728 ****       159.0000 114.7500 147.7500 Du        
  10729 ****       159.0000 114.7500 148.0000 Du        
  10730 ****       159.0000 114.7500 148.2500 Du        
  10731 ****       159.0000 115.0000 146.7500 Du        
  10732 ****       159.0000 115.0000 147.0000 Du        
  10733 ****       159.0000 115.0000 147.2500 Du        
  10734 ****       159.0000 115.0000 147.5000 Du        
  10735 ****       159.0000 115.0000 147.7500 Du        
  10736 ****       159.0000 115.0000 148.0000 Du        
  10737 ****       159.0000 115.2500 147.0000 Du        
  10738 ****       159.0000 115.2500 147.2500 Du        
  10739 ****       159.0000 115.2500 147.5000 Du        
  10740 ****       159.0000 115.2500 147.7500 Du        
  10741 ****       159.0000 117.0000 134.7500 Du        
  10742 ****       159.0000 117.0000 135.0000 Du        
  10743 ****       159.0000 117.0000 135.2500 Du        
  10744 ****       159.0000 117.0000 135.5000 Du        
  10745 ****       159.0000 117.0000 135.7500 Du        
  10746 ****       159.0000 117.2500 134.5000 Du        
  10747 ****       159.0000 117.2500 134.7500 Du        
  10748 ****       159.0000 117.2500 135.0000 Du        
  10749 ****       159.0000 117.2500 135.2500 Du        
  10750 ****       159.0000 117.2500 135.5000 Du        
  10751 ****       159.0000 117.2500 135.7500 Du        
  10752 ****       159.0000 117.2500 136.0000 Du        
  10753 ****       159.0000 117.5000 134.5000 Du        
  10754 ****       159.0000 117.5000 134.7500 Du        
  10755 ****       159.0000 117.5000 135.0000 Du        
  10756 ****       159.0000 117.5000 135.2500 Du        
  10757 ****       159.0000 117.5000 135.5000 Du        
  10758 ****       159.0000 117.5000 135.7500 Du        
  10759 ****       159.0000 117.5000 136.0000 Du        
  10760 ****       159.0000 117.7500 134.5000 Du        
  10761 ****       159.0000 117.7500 134.7500 Du        
  10762 ****       159.0000 117.7500 135.0000 Du        
  10763 ****       159.0000 117.7500 135.2500 Du        
  10764 ****       159.0000 117.7500 135.5000 Du        
  10765 ****       159.0000 117.7500 135.7500 Du        
  10766 ****       159.0000 118.0000 134.5000 Du        
  10767 ****       159.0000 118.0000 134.7500 Du        
  10768 ****       159.0000 118.0000 135.0000 Du        
  10769 ****       159.0000 118.0000 135.2500 Du        
  10770 ****       159.0000 118.0000 135.5000 Du        
  10771 ****       159.0000 118.2500 134.7500 Du        
  10772 ****       159.0000 118.2500 135.0000 Du        
  10773 ****       159.0000 118.2500 135.2500 Du        
  10774 ****       159.2500 100.0000 147.0000 Du        
  10775 ****       159.2500 100.0000 147.2500 Du        
  10776 ****       159.2500 100.0000 147.5000 Du        
  10777 ****       159.2500 100.2500 146.5000 Du        
  10778 ****       159.2500 100.2500 146.7500 Du        
  10779 ****       159.2500 100.2500 147.0000 Du        
  10780 ****       159.2500 100.2500 147.2500 Du        
  10781 ****       159.2500 100.2500 147.5000 Du        
  10782 ****       159.2500 100.2500 147.7500 Du        
  10783 ****       159.2500 100.5000 146.2500 Du        
  10784 ****       159.2500 100.5000 146.5000 Du        
  10785 ****       159.2500 100.5000 146.7500 Du        
  10786 ****       159.2500 100.5000 147.0000 Du        
  10787 ****       159.2500 100.5000 147.2500 Du        
  10788 ****       159.2500 100.5000 147.5000 Du        
  10789 ****       159.2500 100.5000 147.7500 Du        
  10790 ****       159.2500 100.7500 146.0000 Du        
  10791 ****       159.2500 100.7500 146.2500 Du        
  10792 ****       159.2500 100.7500 146.5000 Du        
  10793 ****       159.2500 100.7500 146.7500 Du        
  10794 ****       159.2500 100.7500 147.0000 Du        
  10795 ****       159.2500 100.7500 147.2500 Du        
  10796 ****       159.2500 100.7500 147.5000 Du        
  10797 ****       159.2500 100.7500 147.7500 Du        
  10798 ****       159.2500 100.7500 148.0000 Du        
  10799 ****       159.2500 101.0000 145.7500 Du        
  10800 ****       159.2500 101.0000 146.0000 Du        
  10801 ****       159.2500 101.0000 146.2500 Du        
  10802 ****       159.2500 101.0000 146.5000 Du        
  10803 ****       159.2500 101.0000 146.7500 Du        
  10804 ****       159.2500 101.0000 147.0000 Du        
  10805 ****       159.2500 101.0000 147.2500 Du        
  10806 ****       159.2500 101.0000 147.5000 Du        
  10807 ****       159.2500 101.0000 147.7500 Du        
  10808 ****       159.2500 101.0000 148.0000 Du        
  10809 ****       159.2500 101.2500 145.5000 Du        
  10810 ****       159.2500 101.2500 145.7500 Du        
  10811 ****       159.2500 101.2500 146.0000 Du        
  10812 ****       159.2500 101.2500 146.2500 Du        
  10813 ****       159.2500 101.2500 146.5000 Du        
  10814 ****       159.2500 101.2500 146.7500 Du        
  10815 ****       159.2500 101.2500 147.0000 Du        
  10816 ****       159.2500 101.2500 147.2500 Du        
  10817 ****       159.2500 101.2500 147.5000 Du        
  10818 ****       159.2500 101.2500 147.7500 Du        
  10819 ****       159.2500 101.2500 148.0000 Du        
  10820 ****       159.2500 101.5000 145.7500 Du        
  10821 ****       159.2500 101.5000 146.0000 Du        
  10822 ****       159.2500 101.5000 146.2500 Du        
  10823 ****       159.2500 101.5000 146.5000 Du        
  10824 ****       159.2500 101.5000 146.7500 Du        
  10825 ****       159.2500 101.5000 147.0000 Du        
  10826 ****       159.2500 101.5000 147.2500 Du        
  10827 ****       159.2500 101.5000 147.5000 Du        
  10828 ****       159.2500 101.5000 147.7500 Du        
  10829 ****       159.2500 101.5000 148.0000 Du        
  10830 ****       159.2500 101.7500 145.5000 Du        
  10831 ****       159.2500 101.7500 145.7500 Du        
  10832 ****       159.2500 101.7500 146.0000 Du        
  10833 ****       159.2500 101.7500 146.2500 Du        
  10834 ****       159.2500 101.7500 146.5000 Du        
  10835 ****       159.2500 101.7500 146.7500 Du        
  10836 ****       159.2500 101.7500 147.0000 Du        
  10837 ****       159.2500 101.7500 147.2500 Du        
  10838 ****       159.2500 101.7500 147.5000 Du        
  10839 ****       159.2500 101.7500 147.7500 Du        
  10840 ****       159.2500 101.7500 148.0000 Du        
  10841 ****       159.2500 102.0000 145.7500 Du        
  10842 ****       159.2500 102.0000 146.0000 Du        
  10843 ****       159.2500 102.0000 146.2500 Du        
  10844 ****       159.2500 102.0000 146.5000 Du        
  10845 ****       159.2500 102.0000 146.7500 Du        
  10846 ****       159.2500 102.0000 147.0000 Du        
  10847 ****       159.2500 102.0000 147.2500 Du        
  10848 ****       159.2500 102.0000 147.5000 Du        
  10849 ****       159.2500 102.0000 147.7500 Du        
  10850 ****       159.2500 102.2500 147.0000 Du        
  10851 ****       159.2500 102.2500 147.2500 Du        
  10852 ****       159.2500 105.2500 130.0000 Du        
  10853 ****       159.2500 105.2500 130.2500 Du        
  10854 ****       159.2500 105.2500 130.5000 Du        
  10855 ****       159.2500 105.5000 129.7500 Du        
  10856 ****       159.2500 105.5000 130.0000 Du        
  10857 ****       159.2500 105.5000 130.2500 Du        
  10858 ****       159.2500 105.5000 130.5000 Du        
  10859 ****       159.2500 105.5000 130.7500 Du        
  10860 ****       159.2500 105.7500 129.7500 Du        
  10861 ****       159.2500 105.7500 130.0000 Du        
  10862 ****       159.2500 105.7500 130.2500 Du        
  10863 ****       159.2500 105.7500 130.5000 Du        
  10864 ****       159.2500 105.7500 130.7500 Du        
  10865 ****       159.2500 106.0000 129.7500 Du        
  10866 ****       159.2500 106.0000 130.0000 Du        
  10867 ****       159.2500 106.0000 130.2500 Du        
  10868 ****       159.2500 106.0000 130.5000 Du        
  10869 ****       159.2500 106.2500 130.0000 Du        
  10870 ****       159.2500 106.2500 130.2500 Du        
  10871 ****       159.2500 112.7500 147.5000 Du        
  10872 ****       159.2500 112.7500 147.7500 Du        
  10873 ****       159.2500 113.0000 147.5000 Du        
  10874 ****       159.2500 113.0000 147.7500 Du        
  10875 ****       159.2500 113.0000 148.0000 Du        
  10876 ****       159.2500 113.2500 147.2500 Du        
  10877 ****       159.2500 113.2500 147.5000 Du        
  10878 ****       159.2500 113.2500 147.7500 Du        
  10879 ****       159.2500 113.2500 148.0000 Du        
  10880 ****       159.2500 113.2500 148.2500 Du        
  10881 ****       159.2500 113.5000 147.2500 Du        
  10882 ****       159.2500 113.5000 147.5000 Du        
  10883 ****       159.2500 113.5000 147.7500 Du        
  10884 ****       159.2500 113.5000 148.0000 Du        
  10885 ****       159.2500 113.5000 148.2500 Du        
  10886 ****       159.2500 113.5000 148.5000 Du        
  10887 ****       159.2500 113.5000 148.7500 Du        
  10888 ****       159.2500 113.7500 147.0000 Du        
  10889 ****       159.2500 113.7500 147.2500 Du        
  10890 ****       159.2500 113.7500 147.5000 Du        
  10891 ****       159.2500 113.7500 147.7500 Du        
  10892 ****       159.2500 113.7500 148.0000 Du        
  10893 ****       159.2500 113.7500 148.2500 Du        
  10894 ****       159.2500 113.7500 148.5000 Du        
  10895 ****       159.2500 113.7500 148.7500 Du        
  10896 ****       159.2500 113.7500 149.0000 Du        
  10897 ****       159.2500 114.0000 147.0000 Du        
  10898 ****       159.2500 114.0000 147.2500 Du        
  10899 ****       159.2500 114.0000 147.5000 Du        
  10900 ****       159.2500 114.0000 147.7500 Du        
  10901 ****       159.2500 114.0000 148.0000 Du        
  10902 ****       159.2500 114.0000 148.2500 Du        
  10903 ****       159.2500 114.0000 148.5000 Du        
  10904 ****       159.2500 114.0000 148.7500 Du        
  10905 ****       159.2500 114.0000 149.0000 Du        
  10906 ****       159.2500 114.2500 146.7500 Du        
  10907 ****       159.2500 114.2500 147.0000 Du        
  10908 ****       159.2500 114.2500 147.2500 Du        
  10909 ****       159.2500 114.2500 147.5000 Du        
  10910 ****       159.2500 114.2500 147.7500 Du        
  10911 ****       159.2500 114.2500 148.0000 Du        
  10912 ****       159.2500 114.2500 148.2500 Du        
  10913 ****       159.2500 114.2500 148.5000 Du        
  10914 ****       159.2500 114.2500 148.7500 Du        
  10915 ****       159.2500 114.5000 147.0000 Du        
  10916 ****       159.2500 114.5000 147.2500 Du        
  10917 ****       159.2500 114.5000 147.5000 Du        
  10918 ****       159.2500 114.5000 147.7500 Du        
  10919 ****       159.2500 114.5000 148.0000 Du        
  10920 ****       159.2500 114.5000 148.2500 Du        
  10921 ****       159.2500 114.5000 148.5000 Du        
  10922 ****       159.2500 114.7500 147.0000 Du        
  10923 ****       159.2500 114.7500 147.2500 Du        
  10924 ****       159.2500 114.7500 147.5000 Du        
  10925 ****       159.2500 114.7500 147.7500 Du        
  10926 ****       159.2500 114.7500 148.0000 Du        
  10927 ****       159.2500 114.7500 148.2500 Du        
  10928 ****       159.2500 115.0000 147.0000 Du        
  10929 ****       159.2500 115.0000 147.2500 Du        
  10930 ****       159.2500 115.0000 147.5000 Du        
  10931 ****       159.2500 115.0000 147.7500 Du        
  10932 ****       159.2500 115.0000 148.0000 Du        
  10933 ****       159.2500 117.2500 135.0000 Du        
  10934 ****       159.2500 117.2500 135.2500 Du        
  10935 ****       159.2500 117.2500 135.5000 Du        
  10936 ****       159.2500 117.5000 134.7500 Du        
  10937 ****       159.2500 117.5000 135.0000 Du        
  10938 ****       159.2500 117.5000 135.2500 Du        
  10939 ****       159.2500 117.5000 135.5000 Du        
  10940 ****       159.2500 117.7500 134.7500 Du        
  10941 ****       159.2500 117.7500 135.0000 Du        
  10942 ****       159.2500 117.7500 135.2500 Du        
  10943 ****       159.2500 117.7500 135.5000 Du        
  10944 ****       159.2500 118.0000 134.7500 Du        
  10945 ****       159.2500 118.0000 135.0000 Du        
  10946 ****       159.2500 118.0000 135.2500 Du        
  10947 ****       159.2500 118.0000 135.5000 Du        
  10948 ****       159.5000 100.0000 147.0000 Du        
  10949 ****       159.5000 100.0000 147.2500 Du        
  10950 ****       159.5000 100.0000 147.5000 Du        
  10951 ****       159.5000 100.0000 147.7500 Du        
  10952 ****       159.5000 100.2500 146.5000 Du        
  10953 ****       159.5000 100.2500 146.7500 Du        
  10954 ****       159.5000 100.2500 147.0000 Du        
  10955 ****       159.5000 100.2500 147.2500 Du        
  10956 ****       159.5000 100.2500 147.5000 Du        
  10957 ****       159.5000 100.2500 147.7500 Du        
  10958 ****       159.5000 100.5000 146.2500 Du        
  10959 ****       159.5000 100.5000 146.5000 Du        
  10960 ****       159.5000 100.5000 146.7500 Du        
  10961 ****       159.5000 100.5000 147.0000 Du        
  10962 ****       159.5000 100.5000 147.2500 Du        
  10963 ****       159.5000 100.5000 147.5000 Du        
  10964 ****       159.5000 100.5000 147.7500 Du        
  10965 ****       159.5000 100.5000 148.0000 Du        
  10966 ****       159.5000 100.7500 146.0000 Du        
  10967 ****       159.5000 100.7500 146.2500 Du        
  10968 ****       159.5000 100.7500 146.5000 Du        
  10969 ****       159.5000 100.7500 146.7500 Du        
  10970 ****       159.5000 100.7500 147.0000 Du        
  10971 ****       159.5000 100.7500 147.2500 Du        
  10972 ****       159.5000 100.7500 147.5000 Du        
  10973 ****       159.5000 100.7500 147.7500 Du        
  10974 ****       159.5000 100.7500 148.0000 Du        
  10975 ****       159.5000 101.0000 145.7500 Du        
  10976 ****       159.5000 101.0000 146.0000 Du        
  10977 ****       159.5000 101.0000 146.2500 Du        
  10978 ****       159.5000 101.0000 146.5000 Du        
  10979 ****       159.5000 101.0000 146.7500 Du        
  10980 ****       159.5000 101.0000 147.0000 Du        
  10981 ****       159.5000 101.0000 147.2500 Du        
  10982 ****       159.5000 101.0000 147.5000 Du        
  10983 ****       159.5000 101.0000 147.7500 Du        
  10984 ****       159.5000 101.0000 148.0000 Du        
  10985 ****       159.5000 101.2500 145.5000 Du        
  10986 ****       159.5000 101.2500 145.7500 Du        
  10987 ****       159.5000 101.2500 146.0000 Du        
  10988 ****       159.5000 101.2500 146.2500 Du        
  10989 ****       159.5000 101.2500 146.5000 Du        
  10990 ****       159.5000 101.2500 146.7500 Du        
  10991 ****       159.5000 101.2500 147.0000 Du        
  10992 ****       159.5000 101.2500 147.2500 Du        
  10993 ****       159.5000 101.2500 147.5000 Du        
  10994 ****       159.5000 101.2500 147.7500 Du        
  10995 ****       159.5000 101.2500 148.0000 Du        
  10996 ****       159.5000 101.5000 145.7500 Du        
  10997 ****       159.5000 101.5000 146.0000 Du        
  10998 ****       159.5000 101.5000 146.2500 Du        
  10999 ****       159.5000 101.5000 146.5000 Du        
  11000 ****       159.5000 101.5000 146.7500 Du        
  11001 ****       159.5000 101.5000 147.0000 Du        
  11002 ****       159.5000 101.5000 147.2500 Du        
  11003 ****       159.5000 101.7500 146.0000 Du        
  11004 ****       159.5000 101.7500 146.7500 Du        
  11005 ****       159.5000 101.7500 147.0000 Du        
  11006 ****       159.5000 101.7500 147.2500 Du        
  11007 ****       159.5000 105.2500 130.5000 Du        
  11008 ****       159.5000 105.2500 130.7500 Du        
  11009 ****       159.5000 105.5000 130.0000 Du        
  11010 ****       159.5000 105.5000 130.2500 Du        
  11011 ****       159.5000 105.5000 130.5000 Du        
  11012 ****       159.5000 105.5000 130.7500 Du        
  11013 ****       159.5000 105.5000 131.0000 Du        
  11014 ****       159.5000 105.7500 130.0000 Du        
  11015 ****       159.5000 105.7500 130.2500 Du        
  11016 ****       159.5000 105.7500 130.5000 Du        
  11017 ****       159.5000 105.7500 130.7500 Du        
  11018 ****       159.5000 105.7500 131.0000 Du        
  11019 ****       159.5000 106.0000 130.0000 Du        
  11020 ****       159.5000 106.0000 130.2500 Du        
  11021 ****       159.5000 106.0000 130.5000 Du        
  11022 ****       159.5000 106.0000 130.7500 Du        
  11023 ****       159.5000 106.0000 131.0000 Du        
  11024 ****       159.5000 106.2500 130.2500 Du        
  11025 ****       159.5000 106.2500 130.5000 Du        
  11026 ****       159.5000 106.2500 130.7500 Du        
  11027 ****       159.5000 106.5000 130.5000 Du        
  11028 ****       159.5000 113.0000 147.5000 Du        
  11029 ****       159.5000 113.0000 147.7500 Du        
  11030 ****       159.5000 113.2500 147.2500 Du        
  11031 ****       159.5000 113.2500 147.5000 Du        
  11032 ****       159.5000 113.2500 147.7500 Du        
  11033 ****       159.5000 113.2500 148.0000 Du        
  11034 ****       159.5000 113.5000 147.0000 Du        
  11035 ****       159.5000 113.5000 147.2500 Du        
  11036 ****       159.5000 113.5000 147.5000 Du        
  11037 ****       159.5000 113.5000 147.7500 Du        
  11038 ****       159.5000 113.5000 148.0000 Du        
  11039 ****       159.5000 113.5000 148.2500 Du        
  11040 ****       159.5000 113.5000 148.5000 Du        
  11041 ****       159.5000 113.7500 147.0000 Du        
  11042 ****       159.5000 113.7500 147.2500 Du        
  11043 ****       159.5000 113.7500 147.5000 Du        
  11044 ****       159.5000 113.7500 147.7500 Du        
  11045 ****       159.5000 113.7500 148.0000 Du        
  11046 ****       159.5000 113.7500 148.2500 Du        
  11047 ****       159.5000 113.7500 148.5000 Du        
  11048 ****       159.5000 113.7500 148.7500 Du        
  11049 ****       159.5000 114.0000 147.0000 Du        
  11050 ****       159.5000 114.0000 147.2500 Du        
  11051 ****       159.5000 114.0000 147.5000 Du        
  11052 ****       159.5000 114.0000 147.7500 Du        
  11053 ****       159.5000 114.0000 148.0000 Du        
  11054 ****       159.5000 114.0000 148.2500 Du        
  11055 ****       159.5000 114.0000 148.5000 Du        
  11056 ****       159.5000 114.0000 148.7500 Du        
  11057 ****       159.5000 114.0000 149.0000 Du        
  11058 ****       159.5000 114.2500 147.0000 Du        
  11059 ****       159.5000 114.2500 147.2500 Du        
  11060 ****       159.5000 114.2500 147.5000 Du        
  11061 ****       159.5000 114.2500 147.7500 Du        
  11062 ****       159.5000 114.2500 148.0000 Du        
  11063 ****       159.5000 114.2500 148.2500 Du        
  11064 ****       159.5000 114.2500 148.5000 Du        
  11065 ****       159.5000 114.2500 148.7500 Du        
  11066 ****       159.5000 114.5000 147.0000 Du        
  11067 ****       159.5000 114.5000 147.2500 Du        
  11068 ****       159.5000 114.5000 147.5000 Du        
  11069 ****       159.5000 114.5000 147.7500 Du        
  11070 ****       159.5000 114.5000 148.0000 Du        
  11071 ****       159.5000 114.5000 148.2500 Du        
  11072 ****       159.5000 114.5000 148.5000 Du        
  11073 ****       159.5000 114.7500 147.2500 Du        
  11074 ****       159.5000 114.7500 147.5000 Du        
  11075 ****       159.5000 114.7500 147.7500 Du        
  11076 ****       159.5000 114.7500 148.0000 Du        
  11077 ****       159.5000 117.5000 135.2500 Du        
  11078 ****       159.5000 117.7500 135.2500 Du        
  11079 ****       159.7500  99.7500 147.5000 Du        
  11080 ****       159.7500 100.0000 147.0000 Du        
  11081 ****       159.7500 100.0000 147.2500 Du        
  11082 ****       159.7500 100.0000 147.5000 Du        
  11083 ****       159.7500 100.0000 147.7500 Du        
  11084 ****       159.7500 100.2500 146.5000 Du        
  11085 ****       159.7500 100.2500 146.7500 Du        
  11086 ****       159.7500 100.2500 147.0000 Du        
  11087 ****       159.7500 100.2500 147.2500 Du        
  11088 ****       159.7500 100.2500 147.5000 Du        
  11089 ****       159.7500 100.2500 147.7500 Du        
  11090 ****       159.7500 100.2500 148.0000 Du        
  11091 ****       159.7500 100.5000 146.2500 Du        
  11092 ****       159.7500 100.5000 146.5000 Du        
  11093 ****       159.7500 100.5000 146.7500 Du        
  11094 ****       159.7500 100.5000 147.0000 Du        
  11095 ****       159.7500 100.5000 147.2500 Du        
  11096 ****       159.7500 100.5000 147.5000 Du        
  11097 ****       159.7500 100.5000 147.7500 Du        
  11098 ****       159.7500 100.5000 148.0000 Du        
  11099 ****       159.7500 100.7500 146.0000 Du        
  11100 ****       159.7500 100.7500 146.2500 Du        
  11101 ****       159.7500 100.7500 146.5000 Du        
  11102 ****       159.7500 100.7500 146.7500 Du        
  11103 ****       159.7500 100.7500 147.0000 Du        
  11104 ****       159.7500 100.7500 147.2500 Du        
  11105 ****       159.7500 100.7500 147.5000 Du        
  11106 ****       159.7500 100.7500 147.7500 Du        
  11107 ****       159.7500 100.7500 148.0000 Du        
  11108 ****       159.7500 101.0000 145.7500 Du        
  11109 ****       159.7500 101.0000 146.0000 Du        
  11110 ****       159.7500 101.0000 146.2500 Du        
  11111 ****       159.7500 101.0000 146.5000 Du        
  11112 ****       159.7500 101.0000 146.7500 Du        
  11113 ****       159.7500 101.0000 147.0000 Du        
  11114 ****       159.7500 101.0000 147.2500 Du        
  11115 ****       159.7500 101.0000 147.5000 Du        
  11116 ****       159.7500 101.0000 147.7500 Du        
  11117 ****       159.7500 101.0000 148.0000 Du        
  11118 ****       159.7500 101.0000 148.2500 Du        
  11119 ****       159.7500 101.2500 145.5000 Du        
  11120 ****       159.7500 101.2500 145.7500 Du        
  11121 ****       159.7500 101.2500 146.0000 Du        
  11122 ****       159.7500 101.2500 146.2500 Du        
  11123 ****       159.7500 101.2500 146.5000 Du        
  11124 ****       159.7500 101.2500 146.7500 Du        
  11125 ****       159.7500 101.2500 147.0000 Du        
  11126 ****       159.7500 101.2500 147.2500 Du        
  11127 ****       159.7500 101.2500 147.5000 Du        
  11128 ****       159.7500 101.2500 147.7500 Du        
  11129 ****       159.7500 101.2500 148.0000 Du        
  11130 ****       159.7500 101.5000 146.0000 Du        
  11131 ****       159.7500 101.5000 146.2500 Du        
  11132 ****       159.7500 101.5000 146.5000 Du        
  11133 ****       159.7500 101.5000 146.7500 Du        
  11134 ****       159.7500 101.5000 147.0000 Du        
  11135 ****       159.7500 101.5000 147.2500 Du        
  11136 ****       159.7500 105.2500 130.7500 Du        
  11137 ****       159.7500 105.5000 130.2500 Du        
  11138 ****       159.7500 105.5000 130.5000 Du        
  11139 ****       159.7500 105.5000 130.7500 Du        
  11140 ****       159.7500 105.5000 131.0000 Du        
  11141 ****       159.7500 105.5000 131.2500 Du        
  11142 ****       159.7500 105.7500 130.0000 Du        
  11143 ****       159.7500 105.7500 130.2500 Du        
  11144 ****       159.7500 105.7500 130.5000 Du        
  11145 ****       159.7500 105.7500 130.7500 Du        
  11146 ****       159.7500 105.7500 131.0000 Du        
  11147 ****       159.7500 105.7500 131.2500 Du        
  11148 ****       159.7500 106.0000 130.2500 Du        
  11149 ****       159.7500 106.0000 130.5000 Du        
  11150 ****       159.7500 106.0000 130.7500 Du        
  11151 ****       159.7500 106.0000 131.0000 Du        
  11152 ****       159.7500 106.2500 130.5000 Du        
  11153 ****       159.7500 106.2500 130.7500 Du        
  11154 ****       159.7500 106.2500 131.0000 Du        
  11155 ****       159.7500 106.5000 130.5000 Du        
  11156 ****       159.7500 106.5000 130.7500 Du        
  11157 ****       159.7500 106.5000 131.0000 Du        
  11158 ****       159.7500 112.7500 147.2500 Du        
  11159 ****       159.7500 113.0000 147.0000 Du        
  11160 ****       159.7500 113.0000 147.2500 Du        
  11161 ****       159.7500 113.0000 147.5000 Du        
  11162 ****       159.7500 113.0000 147.7500 Du        
  11163 ****       159.7500 113.2500 147.0000 Du        
  11164 ****       159.7500 113.2500 147.2500 Du        
  11165 ****       159.7500 113.2500 147.5000 Du        
  11166 ****       159.7500 113.2500 147.7500 Du        
  11167 ****       159.7500 113.2500 148.0000 Du        
  11168 ****       159.7500 113.5000 146.7500 Du        
  11169 ****       159.7500 113.5000 147.0000 Du        
  11170 ****       159.7500 113.5000 147.2500 Du        
  11171 ****       159.7500 113.5000 147.5000 Du        
  11172 ****       159.7500 113.5000 147.7500 Du        
  11173 ****       159.7500 113.5000 148.0000 Du        
  11174 ****       159.7500 113.5000 148.2500 Du        
  11175 ****       159.7500 113.7500 147.0000 Du        
  11176 ****       159.7500 113.7500 147.2500 Du        
  11177 ****       159.7500 113.7500 147.5000 Du        
  11178 ****       159.7500 113.7500 147.7500 Du        
  11179 ****       159.7500 113.7500 148.0000 Du        
  11180 ****       159.7500 113.7500 148.2500 Du        
  11181 ****       159.7500 113.7500 148.5000 Du        
  11182 ****       159.7500 114.0000 147.0000 Du        
  11183 ****       159.7500 114.0000 147.2500 Du        
  11184 ****       159.7500 114.0000 147.5000 Du        
  11185 ****       159.7500 114.0000 147.7500 Du        
  11186 ****       159.7500 114.0000 148.0000 Du        
  11187 ****       159.7500 114.0000 148.2500 Du        
  11188 ****       159.7500 114.0000 148.5000 Du        
  11189 ****       159.7500 114.0000 148.7500 Du        
  11190 ****       159.7500 114.2500 147.2500 Du        
  11191 ****       159.7500 114.2500 147.5000 Du        
  11192 ****       159.7500 114.2500 147.7500 Du        
  11193 ****       159.7500 114.2500 148.0000 Du        
  11194 ****       159.7500 114.2500 148.2500 Du        
  11195 ****       159.7500 114.2500 148.5000 Du        
  11196 ****       159.7500 114.2500 148.7500 Du        
  11197 ****       159.7500 114.5000 147.5000 Du        
  11198 ****       159.7500 114.5000 147.7500 Du        
  11199 ****       159.7500 114.5000 148.0000 Du        
  11200 ****       159.7500 114.5000 148.2500 Du        
  11201 ****       159.7500 114.5000 148.5000 Du        
  11202 ****       159.7500 114.7500 147.7500 Du        
  11203 ****       160.0000  99.7500 147.2500 Du        
  11204 ****       160.0000  99.7500 147.5000 Du        
  11205 ****       160.0000  99.7500 147.7500 Du        
  11206 ****       160.0000 100.0000 147.0000 Du        
  11207 ****       160.0000 100.0000 147.2500 Du        
  11208 ****       160.0000 100.0000 147.5000 Du        
  11209 ****       160.0000 100.0000 147.7500 Du        
  11210 ****       160.0000 100.0000 148.0000 Du        
  11211 ****       160.0000 100.2500 146.5000 Du        
  11212 ****       160.0000 100.2500 146.7500 Du        
  11213 ****       160.0000 100.2500 147.0000 Du        
  11214 ****       160.0000 100.2500 147.2500 Du        
  11215 ****       160.0000 100.2500 147.5000 Du        
  11216 ****       160.0000 100.2500 147.7500 Du        
  11217 ****       160.0000 100.2500 148.0000 Du        
  11218 ****       160.0000 100.5000 146.2500 Du        
  11219 ****       160.0000 100.5000 146.5000 Du        
  11220 ****       160.0000 100.5000 146.7500 Du        
  11221 ****       160.0000 100.5000 147.0000 Du        
  11222 ****       160.0000 100.5000 147.2500 Du        
  11223 ****       160.0000 100.5000 147.5000 Du        
  11224 ****       160.0000 100.5000 147.7500 Du        
  11225 ****       160.0000 100.5000 148.0000 Du        
  11226 ****       160.0000 100.7500 145.7500 Du        
  11227 ****       160.0000 100.7500 146.0000 Du        
  11228 ****       160.0000 100.7500 146.2500 Du        
  11229 ****       160.0000 100.7500 146.5000 Du        
  11230 ****       160.0000 100.7500 146.7500 Du        
  11231 ****       160.0000 100.7500 147.0000 Du        
  11232 ****       160.0000 100.7500 147.2500 Du        
  11233 ****       160.0000 100.7500 147.5000 Du        
  11234 ****       160.0000 100.7500 147.7500 Du        
  11235 ****       160.0000 100.7500 148.0000 Du        
  11236 ****       160.0000 100.7500 148.2500 Du        
  11237 ****       160.0000 101.0000 145.7500 Du        
  11238 ****       160.0000 101.0000 146.0000 Du        
  11239 ****       160.0000 101.0000 146.2500 Du        
  11240 ****       160.0000 101.0000 146.5000 Du        
  11241 ****       160.0000 101.0000 146.7500 Du        
  11242 ****       160.0000 101.0000 147.0000 Du        
  11243 ****       160.0000 101.0000 147.2500 Du        
  11244 ****       160.0000 101.0000 147.5000 Du        
  11245 ****       160.0000 101.0000 147.7500 Du        
  11246 ****       160.0000 101.0000 148.0000 Du        
  11247 ****       160.0000 101.2500 145.7500 Du        
  11248 ****       160.0000 101.2500 146.0000 Du        
  11249 ****       160.0000 101.2500 146.2500 Du        
  11250 ****       160.0000 101.2500 146.5000 Du        
  11251 ****       160.0000 101.2500 146.7500 Du        
  11252 ****       160.0000 101.2500 147.0000 Du        
  11253 ****       160.0000 101.2500 147.2500 Du        
  11254 ****       160.0000 101.2500 147.5000 Du        
  11255 ****       160.0000 101.2500 147.7500 Du        
  11256 ****       160.0000 105.5000 130.5000 Du        
  11257 ****       160.0000 105.5000 130.7500 Du        
  11258 ****       160.0000 105.5000 131.0000 Du        
  11259 ****       160.0000 105.5000 131.2500 Du        
  11260 ****       160.0000 105.7500 130.2500 Du        
  11261 ****       160.0000 105.7500 130.5000 Du        
  11262 ****       160.0000 105.7500 130.7500 Du        
  11263 ****       160.0000 105.7500 131.0000 Du        
  11264 ****       160.0000 105.7500 131.2500 Du        
  11265 ****       160.0000 106.0000 130.2500 Du        
  11266 ****       160.0000 106.0000 130.5000 Du        
  11267 ****       160.0000 106.0000 130.7500 Du        
  11268 ****       160.0000 106.0000 131.0000 Du        
  11269 ****       160.0000 106.0000 131.2500 Du        
  11270 ****       160.0000 106.2500 130.5000 Du        
  11271 ****       160.0000 106.2500 130.7500 Du        
  11272 ****       160.0000 106.2500 131.0000 Du        
  11273 ****       160.0000 106.2500 131.2500 Du        
  11274 ****       160.0000 106.5000 130.7500 Du        
  11275 ****       160.0000 106.5000 131.0000 Du        
  11276 ****       160.0000 112.7500 146.7500 Du        
  11277 ****       160.0000 112.7500 147.0000 Du        
  11278 ****       160.0000 112.7500 147.2500 Du        
  11279 ****       160.0000 113.0000 146.7500 Du        
  11280 ****       160.0000 113.0000 147.0000 Du        
  11281 ****       160.0000 113.0000 147.2500 Du        
  11282 ****       160.0000 113.0000 147.5000 Du        
  11283 ****       160.0000 113.2500 146.7500 Du        
  11284 ****       160.0000 113.2500 147.0000 Du        
  11285 ****       160.0000 113.2500 147.2500 Du        
  11286 ****       160.0000 113.2500 147.5000 Du        
  11287 ****       160.0000 113.2500 147.7500 Du        
  11288 ****       160.0000 113.5000 146.7500 Du        
  11289 ****       160.0000 113.5000 147.0000 Du        
  11290 ****       160.0000 113.5000 147.2500 Du        
  11291 ****       160.0000 113.5000 147.5000 Du        
  11292 ****       160.0000 113.5000 147.7500 Du        
  11293 ****       160.0000 113.5000 148.0000 Du        
  11294 ****       160.0000 113.7500 146.7500 Du        
  11295 ****       160.0000 113.7500 147.0000 Du        
  11296 ****       160.0000 113.7500 147.2500 Du        
  11297 ****       160.0000 113.7500 147.5000 Du        
  11298 ****       160.0000 113.7500 147.7500 Du        
  11299 ****       160.0000 113.7500 148.0000 Du        
  11300 ****       160.0000 113.7500 148.2500 Du        
  11301 ****       160.0000 113.7500 148.5000 Du        
  11302 ****       160.0000 114.0000 147.0000 Du        
  11303 ****       160.0000 114.0000 147.2500 Du        
  11304 ****       160.0000 114.0000 147.5000 Du        
  11305 ****       160.0000 114.0000 147.7500 Du        
  11306 ****       160.0000 114.0000 148.0000 Du        
  11307 ****       160.0000 114.0000 148.2500 Du        
  11308 ****       160.0000 114.0000 148.5000 Du        
  11309 ****       160.0000 114.0000 148.7500 Du        
  11310 ****       160.0000 114.2500 147.5000 Du        
  11311 ****       160.0000 114.2500 147.7500 Du        
  11312 ****       160.0000 114.2500 148.0000 Du        
  11313 ****       160.0000 114.2500 148.2500 Du        
  11314 ****       160.0000 114.2500 148.5000 Du        
  11315 ****       160.0000 114.5000 147.7500 Du        
  11316 ****       160.0000 114.5000 148.0000 Du        
  11317 ****       160.0000 114.5000 148.2500 Du        
  11318 ****       160.2500  99.7500 147.2500 Du        
  11319 ****       160.2500  99.7500 147.5000 Du        
  11320 ****       160.2500  99.7500 147.7500 Du        
  11321 ****       160.2500  99.7500 148.0000 Du        
  11322 ****       160.2500 100.0000 147.0000 Du        
  11323 ****       160.2500 100.0000 147.2500 Du        
  11324 ****       160.2500 100.0000 147.5000 Du        
  11325 ****       160.2500 100.0000 147.7500 Du        
  11326 ****       160.2500 100.0000 148.0000 Du        
  11327 ****       160.2500 100.2500 146.5000 Du        
  11328 ****       160.2500 100.2500 146.7500 Du        
  11329 ****       160.2500 100.2500 147.0000 Du        
  11330 ****       160.2500 100.2500 147.2500 Du        
  11331 ****       160.2500 100.2500 147.5000 Du        
  11332 ****       160.2500 100.2500 147.7500 Du        
  11333 ****       160.2500 100.2500 148.0000 Du        
  11334 ****       160.2500 100.2500 148.2500 Du        
  11335 ****       160.2500 100.5000 146.2500 Du        
  11336 ****       160.2500 100.5000 146.5000 Du        
  11337 ****       160.2500 100.5000 146.7500 Du        
  11338 ****       160.2500 100.5000 147.0000 Du        
  11339 ****       160.2500 100.5000 147.2500 Du        
  11340 ****       160.2500 100.5000 147.5000 Du        
  11341 ****       160.2500 100.5000 147.7500 Du        
  11342 ****       160.2500 100.5000 148.0000 Du        
  11343 ****       160.2500 100.5000 148.2500 Du        
  11344 ****       160.2500 100.7500 146.0000 Du        
  11345 ****       160.2500 100.7500 146.2500 Du        
  11346 ****       160.2500 100.7500 146.5000 Du        
  11347 ****       160.2500 100.7500 146.7500 Du        
  11348 ****       160.2500 100.7500 147.0000 Du        
  11349 ****       160.2500 100.7500 147.2500 Du        
  11350 ****       160.2500 100.7500 147.5000 Du        
  11351 ****       160.2500 100.7500 147.7500 Du        
  11352 ****       160.2500 100.7500 148.0000 Du        
  11353 ****       160.2500 100.7500 148.2500 Du        
  11354 ****       160.2500 101.0000 146.0000 Du        
  11355 ****       160.2500 101.0000 146.2500 Du        
  11356 ****       160.2500 101.0000 146.5000 Du        
  11357 ****       160.2500 101.0000 146.7500 Du        
  11358 ****       160.2500 101.0000 147.0000 Du        
  11359 ****       160.2500 101.0000 147.2500 Du        
  11360 ****       160.2500 101.0000 147.5000 Du        
  11361 ****       160.2500 101.0000 147.7500 Du        
  11362 ****       160.2500 101.0000 148.0000 Du        
  11363 ****       160.2500 101.2500 146.2500 Du        
  11364 ****       160.2500 101.2500 146.5000 Du        
  11365 ****       160.2500 101.2500 146.7500 Du        
  11366 ****       160.2500 101.2500 147.0000 Du        
  11367 ****       160.2500 101.2500 147.2500 Du        
  11368 ****       160.2500 105.5000 130.7500 Du        
  11369 ****       160.2500 105.5000 131.0000 Du        
  11370 ****       160.2500 105.5000 131.2500 Du        
  11371 ****       160.2500 105.7500 130.5000 Du        
  11372 ****       160.2500 105.7500 130.7500 Du        
  11373 ****       160.2500 105.7500 131.0000 Du        
  11374 ****       160.2500 105.7500 131.2500 Du        
  11375 ****       160.2500 106.0000 130.5000 Du        
  11376 ****       160.2500 106.0000 130.7500 Du        
  11377 ****       160.2500 106.0000 131.0000 Du        
  11378 ****       160.2500 106.0000 131.2500 Du        
  11379 ****       160.2500 106.2500 130.7500 Du        
  11380 ****       160.2500 106.2500 131.0000 Du        
  11381 ****       160.2500 106.2500 131.2500 Du        
  11382 ****       160.2500 106.5000 130.7500 Du        
  11383 ****       160.2500 106.5000 131.0000 Du        
  11384 ****       160.2500 106.5000 131.2500 Du        
  11385 ****       160.2500 112.5000 146.7500 Du        
  11386 ****       160.2500 112.5000 147.0000 Du        
  11387 ****       160.2500 112.7500 146.7500 Du        
  11388 ****       160.2500 112.7500 147.0000 Du        
  11389 ****       160.2500 112.7500 147.2500 Du        
  11390 ****       160.2500 113.0000 146.7500 Du        
  11391 ****       160.2500 113.0000 147.0000 Du        
  11392 ****       160.2500 113.0000 147.2500 Du        
  11393 ****       160.2500 113.0000 147.5000 Du        
  11394 ****       160.2500 113.2500 146.7500 Du        
  11395 ****       160.2500 113.2500 147.0000 Du        
  11396 ****       160.2500 113.2500 147.2500 Du        
  11397 ****       160.2500 113.2500 147.5000 Du        
  11398 ****       160.2500 113.5000 146.7500 Du        
  11399 ****       160.2500 113.5000 147.0000 Du        
  11400 ****       160.2500 113.5000 147.2500 Du        
  11401 ****       160.2500 113.5000 147.5000 Du        
  11402 ****       160.2500 113.5000 147.7500 Du        
  11403 ****       160.2500 113.5000 148.0000 Du        
  11404 ****       160.2500 113.7500 147.0000 Du        
  11405 ****       160.2500 113.7500 147.2500 Du        
  11406 ****       160.2500 113.7500 147.5000 Du        
  11407 ****       160.2500 113.7500 147.7500 Du        
  11408 ****       160.2500 113.7500 148.0000 Du        
  11409 ****       160.2500 113.7500 148.2500 Du        
  11410 ****       160.2500 114.0000 147.5000 Du        
  11411 ****       160.2500 114.0000 147.7500 Du        
  11412 ****       160.2500 114.0000 148.0000 Du        
  11413 ****       160.2500 114.0000 148.2500 Du        
  11414 ****       160.2500 114.0000 148.5000 Du        
  11415 ****       160.2500 114.2500 147.7500 Du        
  11416 ****       160.2500 114.2500 148.0000 Du        
  11417 ****       160.2500 114.2500 148.2500 Du        
  11418 ****       160.2500 114.2500 148.5000 Du        
  11419 ****       160.5000  99.7500 147.5000 Du        
  11420 ****       160.5000  99.7500 147.7500 Du        
  11421 ****       160.5000  99.7500 148.0000 Du        
  11422 ****       160.5000 100.0000 147.0000 Du        
  11423 ****       160.5000 100.0000 147.2500 Du        
  11424 ****       160.5000 100.0000 147.5000 Du        
  11425 ****       160.5000 100.0000 147.7500 Du        
  11426 ****       160.5000 100.0000 148.0000 Du        
  11427 ****       160.5000 100.2500 146.7500 Du        
  11428 ****       160.5000 100.2500 147.0000 Du        
  11429 ****       160.5000 100.2500 147.2500 Du        
  11430 ****       160.5000 100.2500 147.5000 Du        
  11431 ****       160.5000 100.2500 147.7500 Du        
  11432 ****       160.5000 100.2500 148.0000 Du        
  11433 ****       160.5000 100.5000 147.2500 Du        
  11434 ****       160.5000 105.7500 130.5000 Du        
  11435 ****       160.5000 105.7500 130.7500 Du        
  11436 ****       160.5000 105.7500 131.0000 Du        
  11437 ****       160.5000 106.0000 130.5000 Du        
  11438 ****       160.5000 106.0000 130.7500 Du        
  11439 ****       160.5000 106.0000 131.0000 Du        
  11440 ****       160.5000 106.0000 131.2500 Du        
  11441 ****       160.5000 106.2500 130.7500 Du        
  11442 ****       160.5000 106.2500 131.0000 Du        
  11443 ****       160.5000 106.2500 131.2500 Du        
  11444 ****       160.5000 106.5000 131.0000 Du        
  11445 ****       160.5000 106.5000 131.2500 Du        
  11446 ****       160.5000 112.2500 146.7500 Du        
  11447 ****       160.5000 112.5000 146.5000 Du        
  11448 ****       160.5000 112.5000 146.7500 Du        
  11449 ****       160.5000 112.5000 147.0000 Du        
  11450 ****       160.5000 112.7500 146.5000 Du        
  11451 ****       160.5000 112.7500 146.7500 Du        
  11452 ****       160.5000 112.7500 147.0000 Du        
  11453 ****       160.5000 112.7500 147.2500 Du        
  11454 ****       160.5000 113.0000 146.7500 Du        
  11455 ****       160.5000 113.0000 147.0000 Du        
  11456 ****       160.5000 113.0000 147.2500 Du        
  11457 ****       160.5000 113.2500 146.7500 Du        
  11458 ****       160.5000 113.2500 147.0000 Du        
  11459 ****       160.5000 113.2500 147.2500 Du        
  11460 ****       160.5000 113.2500 147.5000 Du        
  11461 ****       160.5000 113.5000 147.2500 Du        
  11462 ****       160.5000 113.5000 147.5000 Du        
  11463 ****       160.5000 113.5000 147.7500 Du        
  11464 ****       160.5000 113.7500 147.5000 Du        
  11465 ****       160.5000 113.7500 147.7500 Du        
  11466 ****       160.5000 113.7500 148.0000 Du        
  11467 ****       160.5000 113.7500 148.2500 Du        
  11468 ****       160.5000 114.0000 147.7500 Du        
  11469 ****       160.5000 114.0000 148.0000 Du        
  11470 ****       160.5000 114.0000 148.2500 Du        
  11471 ****       160.7500  99.7500 147.7500 Du        
  11472 ****       160.7500  99.7500 148.0000 Du        
  11473 ****       160.7500 100.0000 147.2500 Du        
  11474 ****       160.7500 100.0000 147.5000 Du        
  11475 ****       160.7500 100.0000 147.7500 Du        
  11476 ****       160.7500 100.0000 148.0000 Du        
  11477 ****       160.7500 100.0000 148.2500 Du        
  11478 ****       160.7500 100.2500 147.0000 Du        
  11479 ****       160.7500 100.2500 147.2500 Du        
  11480 ****       160.7500 100.2500 147.5000 Du        
  11481 ****       160.7500 100.2500 147.7500 Du        
  11482 ****       160.7500 100.2500 148.0000 Du        
  11483 ****       160.7500 105.7500 130.7500 Du        
  11484 ****       160.7500 105.7500 131.0000 Du        
  11485 ****       160.7500 106.0000 130.7500 Du        
  11486 ****       160.7500 106.0000 131.0000 Du        
  11487 ****       160.7500 106.0000 131.2500 Du        
  11488 ****       160.7500 106.2500 130.7500 Du        
  11489 ****       160.7500 106.2500 131.0000 Du        
  11490 ****       160.7500 106.2500 131.2500 Du        
  11491 ****       160.7500 106.5000 131.0000 Du        
  11492 ****       160.7500 106.5000 131.2500 Du        
  11493 ****       160.7500 106.5000 131.5000 Du        
  11494 ****       160.7500 106.7500 131.2500 Du        
  11495 ****       160.7500 112.0000 146.5000 Du        
  11496 ****       160.7500 112.0000 146.7500 Du        
  11497 ****       160.7500 112.2500 146.5000 Du        
  11498 ****       160.7500 112.2500 146.7500 Du        
  11499 ****       160.7500 112.5000 146.5000 Du        
  11500 ****       160.7500 112.5000 146.7500 Du        
  11501 ****       160.7500 112.5000 147.0000 Du        
  11502 ****       160.7500 112.7500 146.5000 Du        
  11503 ****       160.7500 112.7500 146.7500 Du        
  11504 ****       160.7500 112.7500 147.0000 Du        
  11505 ****       160.7500 112.7500 147.2500 Du        
  11506 ****       160.7500 113.0000 147.0000 Du        
  11507 ****       160.7500 113.0000 147.2500 Du        
  11508 ****       161.0000  99.7500 147.7500 Du        
  11509 ****       161.0000  99.7500 148.0000 Du        
  11510 ****       161.0000 100.0000 147.5000 Du        
  11511 ****       161.0000 100.0000 147.7500 Du        
  11512 ****       161.0000 100.0000 148.0000 Du        
  11513 ****       161.0000 105.7500 130.7500 Du        
  11514 ****       161.0000 105.7500 131.0000 Du        
  11515 ****       161.0000 106.0000 130.7500 Du        
  11516 ****       161.0000 106.0000 131.0000 Du        
  11517 ****       161.0000 106.0000 131.2500 Du        
  11518 ****       161.0000 106.2500 131.0000 Du        
  11519 ****       161.0000 106.2500 131.2500 Du        
  11520 ****       161.0000 106.5000 131.0000 Du        
  11521 ****       161.0000 106.5000 131.2500 Du        
  11522 ****       161.0000 106.5000 131.5000 Du        
  11523 ****       161.0000 106.7500 131.2500 Du        
  11524 ****       161.0000 106.7500 131.5000 Du        
  11525 ****       161.0000 111.7500 146.5000 Du        
  11526 ****       161.0000 112.0000 146.5000 Du        
  11527 ****       161.0000 112.0000 146.7500 Du        
  11528 ****       161.0000 112.2500 146.5000 Du        
  11529 ****       161.0000 112.2500 146.7500 Du        
  11530 ****       161.0000 112.2500 147.0000 Du        
  11531 ****       161.0000 112.5000 146.5000 Du        
  11532 ****       161.0000 112.5000 146.7500 Du        
  11533 ****       161.0000 112.5000 147.0000 Du        
  11534 ****       161.0000 112.7500 147.0000 Du        
  11535 ****       161.2500 106.0000 131.0000 Du        
  11536 ****       161.2500 106.0000 131.2500 Du        
  11537 ****       161.2500 106.2500 131.0000 Du        
  11538 ****       161.2500 106.2500 131.2500 Du        
  11539 ****       161.2500 106.5000 131.0000 Du        
  11540 ****       161.2500 106.5000 131.2500 Du        
  11541 ****       161.2500 106.5000 131.5000 Du        
  11542 ****       161.2500 106.5000 131.7500 Du        
  11543 ****       161.2500 106.7500 131.5000 Du        
  11544 ****       161.2500 106.7500 131.7500 Du        
  11545 ****       161.2500 111.7500 146.5000 Du        
  11546 ****       161.2500 111.7500 146.7500 Du        
  11547 ****       161.2500 112.0000 146.2500 Du        
  11548 ****       161.2500 112.0000 146.5000 Du        
  11549 ****       161.2500 112.0000 146.7500 Du        
  11550 ****       161.2500 112.2500 146.5000 Du        
  11551 ****       161.2500 112.2500 146.7500 Du        
  11552 ****       161.5000 106.5000 131.2500 Du        
  11553 ****       161.5000 106.5000 131.5000 Du        
  11554 ****       161.5000 106.5000 131.7500 Du        
  11555 ****       161.5000 106.7500 131.5000 Du        
  11556 ****       161.5000 106.7500 131.7500 Du        
  11557 ****       161.5000 111.7500 146.5000 Du        
  11558 ****       161.5000 111.7500 146.7500 Du        
  11559 ****       161.5000 112.0000 146.5000 Du        
  11560 ****       161.5000 112.0000 146.7500 Du        
  11561 ****       161.7500 106.5000 131.2500 Du        
  11562 ****       161.7500 106.5000 131.5000 Du        
  11563 ****       161.7500 106.5000 131.7500 Du        
  11564 ****       161.7500 106.7500 131.5000 Du        
  11565 ****       161.7500 106.7500 131.7500 Du        
  11566 ****       161.7500 106.7500 132.0000 Du        
  11567 ****       161.7500 107.0000 131.7500 Du        
  11568 ****       161.7500 107.0000 132.0000 Du        
  11569 ****       161.7500 107.2500 132.0000 Du        
  11570 ****       161.7500 107.5000 132.0000 Du        
  11571 ****       161.7500 107.5000 132.2500 Du        
  11572 ****       161.7500 107.7500 132.2500 Du        
  11573 ****       162.0000 106.5000 131.2500 Du        
  11574 ****       162.0000 106.5000 131.5000 Du        
  11575 ****       162.0000 106.5000 131.7500 Du        
  11576 ****       162.0000 106.5000 132.0000 Du        
  11577 ****       162.0000 106.7500 131.2500 Du        
  11578 ****       162.0000 106.7500 131.5000 Du        
  11579 ****       162.0000 106.7500 131.7500 Du        
  11580 ****       162.0000 106.7500 132.0000 Du        
  11581 ****       162.0000 106.7500 132.2500 Du        
  11582 ****       162.0000 107.0000 131.5000 Du        
  11583 ****       162.0000 107.0000 131.7500 Du        
  11584 ****       162.0000 107.0000 132.0000 Du        
  11585 ****       162.0000 107.0000 132.2500 Du        
  11586 ****       162.0000 107.2500 131.7500 Du        
  11587 ****       162.0000 107.2500 132.0000 Du        
  11588 ****       162.0000 107.2500 132.2500 Du        
  11589 ****       162.0000 107.5000 132.0000 Du        
  11590 ****       162.0000 107.5000 132.2500 Du        
  11591 ****       162.0000 107.5000 132.5000 Du        
  11592 ****       162.0000 107.7500 132.2500 Du        
  11593 ****       162.0000 107.7500 132.5000 Du        
  11594 ****       162.0000 108.0000 132.2500 Du        
  11595 ****       162.0000 114.0000 143.0000 Du        
  11596 ****       162.0000 114.2500 143.0000 Du        
  11597 ****       162.0000 114.2500 143.2500 Du        
  11598 ****       162.2500 106.5000 131.0000 Du        
  11599 ****       162.2500 106.5000 131.2500 Du        
  11600 ****       162.2500 106.5000 131.5000 Du        
  11601 ****       162.2500 106.5000 131.7500 Du        
  11602 ****       162.2500 106.7500 131.0000 Du        
  11603 ****       162.2500 106.7500 131.2500 Du        
  11604 ****       162.2500 106.7500 131.5000 Du        
  11605 ****       162.2500 106.7500 131.7500 Du        
  11606 ****       162.2500 106.7500 132.0000 Du        
  11607 ****       162.2500 106.7500 132.2500 Du        
  11608 ****       162.2500 107.0000 131.2500 Du        
  11609 ****       162.2500 107.0000 131.5000 Du        
  11610 ****       162.2500 107.0000 131.7500 Du        
  11611 ****       162.2500 107.0000 132.0000 Du        
  11612 ****       162.2500 107.0000 132.2500 Du        
  11613 ****       162.2500 107.0000 132.5000 Du        
  11614 ****       162.2500 107.2500 131.7500 Du        
  11615 ****       162.2500 107.2500 132.0000 Du        
  11616 ****       162.2500 107.2500 132.2500 Du        
  11617 ****       162.2500 107.2500 132.5000 Du        
  11618 ****       162.2500 107.5000 131.7500 Du        
  11619 ****       162.2500 107.5000 132.0000 Du        
  11620 ****       162.2500 107.5000 132.2500 Du        
  11621 ****       162.2500 107.5000 132.5000 Du        
  11622 ****       162.2500 107.5000 132.7500 Du        
  11623 ****       162.2500 107.7500 132.0000 Du        
  11624 ****       162.2500 107.7500 132.2500 Du        
  11625 ****       162.2500 107.7500 132.5000 Du        
  11626 ****       162.2500 107.7500 132.7500 Du        
  11627 ****       162.2500 108.0000 132.2500 Du        
  11628 ****       162.2500 108.0000 132.5000 Du        
  11629 ****       162.2500 113.7500 143.2500 Du        
  11630 ****       162.2500 113.7500 143.5000 Du        
  11631 ****       162.2500 114.0000 142.5000 Du        
  11632 ****       162.2500 114.0000 142.7500 Du        
  11633 ****       162.2500 114.0000 143.0000 Du        
  11634 ****       162.2500 114.0000 143.2500 Du        
  11635 ****       162.2500 114.2500 142.7500 Du        
  11636 ****       162.2500 114.2500 143.0000 Du        
  11637 ****       162.2500 114.2500 143.2500 Du        
  11638 ****       162.5000 106.5000 131.0000 Du        
  11639 ****       162.5000 106.5000 131.2500 Du        
  11640 ****       162.5000 106.5000 131.5000 Du        
  11641 ****       162.5000 106.7500 131.0000 Du        
  11642 ****       162.5000 106.7500 131.2500 Du        
  11643 ****       162.5000 106.7500 131.5000 Du        
  11644 ****       162.5000 106.7500 131.7500 Du        
  11645 ****       162.5000 106.7500 132.0000 Du        
  11646 ****       162.5000 107.0000 131.2500 Du        
  11647 ****       162.5000 107.0000 131.5000 Du        
  11648 ****       162.5000 107.0000 131.7500 Du        
  11649 ****       162.5000 107.0000 132.0000 Du        
  11650 ****       162.5000 107.0000 132.2500 Du        
  11651 ****       162.5000 107.2500 131.7500 Du        
  11652 ****       162.5000 107.2500 132.0000 Du        
  11653 ****       162.5000 107.2500 132.2500 Du        
  11654 ****       162.5000 107.2500 132.5000 Du        
  11655 ****       162.5000 107.5000 131.7500 Du        
  11656 ****       162.5000 107.5000 132.0000 Du        
  11657 ****       162.5000 107.5000 132.2500 Du        
  11658 ****       162.5000 107.5000 132.5000 Du        
  11659 ****       162.5000 107.5000 132.7500 Du        
  11660 ****       162.5000 107.7500 132.0000 Du        
  11661 ****       162.5000 107.7500 132.2500 Du        
  11662 ****       162.5000 107.7500 132.5000 Du        
  11663 ****       162.5000 107.7500 132.7500 Du        
  11664 ****       162.5000 108.0000 132.0000 Du        
  11665 ****       162.5000 108.0000 132.2500 Du        
  11666 ****       162.5000 108.0000 132.5000 Du        
  11667 ****       162.5000 108.2500 132.2500 Du        
  11668 ****       162.5000 113.5000 143.2500 Du        
  11669 ****       162.5000 113.5000 143.5000 Du        
  11670 ****       162.5000 113.7500 138.2500 Du        
  11671 ****       162.5000 113.7500 142.2500 Du        
  11672 ****       162.5000 113.7500 142.5000 Du        
  11673 ****       162.5000 113.7500 142.7500 Du        
  11674 ****       162.5000 113.7500 143.0000 Du        
  11675 ****       162.5000 113.7500 143.2500 Du        
  11676 ****       162.5000 113.7500 143.5000 Du        
  11677 ****       162.5000 114.0000 138.2500 Du        
  11678 ****       162.5000 114.0000 142.2500 Du        
  11679 ****       162.5000 114.0000 142.5000 Du        
  11680 ****       162.5000 114.0000 142.7500 Du        
  11681 ****       162.5000 114.0000 143.0000 Du        
  11682 ****       162.5000 114.0000 143.2500 Du        
  11683 ****       162.5000 114.2500 142.2500 Du        
  11684 ****       162.5000 114.2500 142.5000 Du        
  11685 ****       162.5000 114.2500 142.7500 Du        
  11686 ****       162.5000 114.2500 143.0000 Du        
  11687 ****       162.5000 114.2500 143.2500 Du        
  11688 ****       162.7500 106.5000 131.0000 Du        
  11689 ****       162.7500 106.5000 131.2500 Du        
  11690 ****       162.7500 106.5000 131.5000 Du        
  11691 ****       162.7500 106.7500 131.0000 Du        
  11692 ****       162.7500 106.7500 131.2500 Du        
  11693 ****       162.7500 106.7500 131.5000 Du        
  11694 ****       162.7500 106.7500 131.7500 Du        
  11695 ****       162.7500 106.7500 132.0000 Du        
  11696 ****       162.7500 107.0000 131.2500 Du        
  11697 ****       162.7500 107.0000 131.5000 Du        
  11698 ****       162.7500 107.0000 131.7500 Du        
  11699 ****       162.7500 107.0000 132.0000 Du        
  11700 ****       162.7500 107.0000 132.2500 Du        
  11701 ****       162.7500 107.0000 132.5000 Du        
  11702 ****       162.7500 107.2500 131.2500 Du        
  11703 ****       162.7500 107.2500 131.5000 Du        
  11704 ****       162.7500 107.2500 131.7500 Du        
  11705 ****       162.7500 107.2500 132.0000 Du        
  11706 ****       162.7500 107.2500 132.2500 Du        
  11707 ****       162.7500 107.2500 132.5000 Du        
  11708 ****       162.7500 107.2500 132.7500 Du        
  11709 ****       162.7500 107.5000 131.5000 Du        
  11710 ****       162.7500 107.5000 131.7500 Du        
  11711 ****       162.7500 107.5000 132.0000 Du        
  11712 ****       162.7500 107.5000 132.2500 Du        
  11713 ****       162.7500 107.5000 132.5000 Du        
  11714 ****       162.7500 107.5000 132.7500 Du        
  11715 ****       162.7500 107.5000 133.0000 Du        
  11716 ****       162.7500 107.7500 131.7500 Du        
  11717 ****       162.7500 107.7500 132.0000 Du        
  11718 ****       162.7500 107.7500 132.2500 Du        
  11719 ****       162.7500 107.7500 132.5000 Du        
  11720 ****       162.7500 107.7500 132.7500 Du        
  11721 ****       162.7500 108.0000 132.0000 Du        
  11722 ****       162.7500 108.0000 132.2500 Du        
  11723 ****       162.7500 108.0000 132.5000 Du        
  11724 ****       162.7500 108.0000 132.7500 Du        
  11725 ****       162.7500 108.2500 132.0000 Du        
  11726 ****       162.7500 108.2500 132.2500 Du        
  11727 ****       162.7500 108.2500 132.5000 Du        
  11728 ****       162.7500 108.5000 132.2500 Du        
  11729 ****       162.7500 108.5000 132.5000 Du        
  11730 ****       162.7500 113.5000 138.0000 Du        
  11731 ****       162.7500 113.5000 138.2500 Du        
  11732 ****       162.7500 113.5000 142.7500 Du        
  11733 ****       162.7500 113.5000 143.0000 Du        
  11734 ****       162.7500 113.5000 143.2500 Du        
  11735 ****       162.7500 113.5000 143.5000 Du        
  11736 ****       162.7500 113.7500 137.7500 Du        
  11737 ****       162.7500 113.7500 138.0000 Du        
  11738 ****       162.7500 113.7500 138.2500 Du        
  11739 ****       162.7500 113.7500 142.2500 Du        
  11740 ****       162.7500 113.7500 142.5000 Du        
  11741 ****       162.7500 113.7500 142.7500 Du        
  11742 ****       162.7500 113.7500 143.0000 Du        
  11743 ****       162.7500 113.7500 143.2500 Du        
  11744 ****       162.7500 113.7500 143.5000 Du        
  11745 ****       162.7500 114.0000 138.0000 Du        
  11746 ****       162.7500 114.0000 138.2500 Du        
  11747 ****       162.7500 114.0000 142.2500 Du        
  11748 ****       162.7500 114.0000 142.5000 Du        
  11749 ****       162.7500 114.0000 142.7500 Du        
  11750 ****       162.7500 114.0000 143.0000 Du        
  11751 ****       162.7500 114.0000 143.2500 Du        
  11752 ****       162.7500 114.2500 138.0000 Du        
  11753 ****       162.7500 114.2500 142.5000 Du        
  11754 ****       162.7500 114.2500 142.7500 Du        
  11755 ****       162.7500 114.2500 143.0000 Du        
  11756 ****       163.0000 106.5000 131.2500 Du        
  11757 ****       163.0000 106.7500 131.2500 Du        
  11758 ****       163.0000 106.7500 131.5000 Du        
  11759 ****       163.0000 106.7500 131.7500 Du        
  11760 ****       163.0000 106.7500 132.0000 Du        
  11761 ****       163.0000 107.0000 131.2500 Du        
  11762 ****       163.0000 107.0000 131.5000 Du        
  11763 ****       163.0000 107.0000 131.7500 Du        
  11764 ****       163.0000 107.0000 132.0000 Du        
  11765 ****       163.0000 107.0000 132.2500 Du        
  11766 ****       163.0000 107.2500 131.2500 Du        
  11767 ****       163.0000 107.2500 131.5000 Du        
  11768 ****       163.0000 107.2500 131.7500 Du        
  11769 ****       163.0000 107.2500 132.0000 Du        
  11770 ****       163.0000 107.2500 132.2500 Du        
  11771 ****       163.0000 107.2500 132.5000 Du        
  11772 ****       163.0000 107.2500 132.7500 Du        
  11773 ****       163.0000 107.5000 131.5000 Du        
  11774 ****       163.0000 107.5000 131.7500 Du        
  11775 ****       163.0000 107.5000 132.0000 Du        
  11776 ****       163.0000 107.5000 132.2500 Du        
  11777 ****       163.0000 107.5000 132.5000 Du        
  11778 ****       163.0000 107.5000 132.7500 Du        
  11779 ****       163.0000 107.5000 133.0000 Du        
  11780 ****       163.0000 107.7500 131.5000 Du        
  11781 ****       163.0000 107.7500 131.7500 Du        
  11782 ****       163.0000 107.7500 132.0000 Du        
  11783 ****       163.0000 107.7500 132.2500 Du        
  11784 ****       163.0000 107.7500 132.5000 Du        
  11785 ****       163.0000 107.7500 132.7500 Du        
  11786 ****       163.0000 107.7500 133.0000 Du        
  11787 ****       163.0000 108.0000 131.7500 Du        
  11788 ****       163.0000 108.0000 132.0000 Du        
  11789 ****       163.0000 108.0000 132.2500 Du        
  11790 ****       163.0000 108.0000 132.5000 Du        
  11791 ****       163.0000 108.0000 132.7500 Du        
  11792 ****       163.0000 108.0000 133.0000 Du        
  11793 ****       163.0000 108.2500 131.7500 Du        
  11794 ****       163.0000 108.2500 132.0000 Du        
  11795 ****       163.0000 108.2500 132.2500 Du        
  11796 ****       163.0000 108.2500 132.5000 Du        
  11797 ****       163.0000 108.2500 132.7500 Du        
  11798 ****       163.0000 108.5000 132.0000 Du        
  11799 ****       163.0000 108.5000 132.2500 Du        
  11800 ****       163.0000 108.5000 132.5000 Du        
  11801 ****       163.0000 113.2500 138.0000 Du        
  11802 ****       163.0000 113.5000 137.7500 Du        
  11803 ****       163.0000 113.5000 138.0000 Du        
  11804 ****       163.0000 113.5000 138.2500 Du        
  11805 ****       163.0000 113.5000 142.7500 Du        
  11806 ****       163.0000 113.5000 143.0000 Du        
  11807 ****       163.0000 113.5000 143.2500 Du        
  11808 ****       163.0000 113.5000 143.5000 Du        
  11809 ****       163.0000 113.7500 137.7500 Du        
  11810 ****       163.0000 113.7500 138.0000 Du        
  11811 ****       163.0000 113.7500 138.2500 Du        
  11812 ****       163.0000 113.7500 142.2500 Du        
  11813 ****       163.0000 113.7500 142.5000 Du        
  11814 ****       163.0000 113.7500 142.7500 Du        
  11815 ****       163.0000 113.7500 143.0000 Du        
  11816 ****       163.0000 113.7500 143.2500 Du        
  11817 ****       163.0000 114.0000 137.7500 Du        
  11818 ****       163.0000 114.0000 138.0000 Du        
  11819 ****       163.0000 114.0000 138.2500 Du        
  11820 ****       163.0000 114.0000 142.2500 Du        
  11821 ****       163.0000 114.0000 142.5000 Du        
  11822 ****       163.0000 114.0000 142.7500 Du        
  11823 ****       163.0000 114.0000 143.0000 Du        
  11824 ****       163.0000 114.2500 137.7500 Du        
  11825 ****       163.0000 114.2500 138.0000 Du        
  11826 ****       163.0000 114.2500 142.7500 Du        
  11827 ****       163.0000 114.2500 143.0000 Du        
  11828 ****       163.2500 106.7500 131.5000 Du        
  11829 ****       163.2500 106.7500 131.7500 Du        
  11830 ****       163.2500 106.7500 132.0000 Du        
  11831 ****       163.2500 107.0000 131.5000 Du        
  11832 ****       163.2500 107.0000 131.7500 Du        
  11833 ****       163.2500 107.0000 132.0000 Du        
  11834 ****       163.2500 107.0000 132.2500 Du        
  11835 ****       163.2500 107.2500 131.5000 Du        
  11836 ****       163.2500 107.2500 131.7500 Du        
  11837 ****       163.2500 107.2500 132.0000 Du        
  11838 ****       163.2500 107.2500 132.2500 Du        
  11839 ****       163.2500 107.5000 131.5000 Du        
  11840 ****       163.2500 107.5000 131.7500 Du        
  11841 ****       163.2500 107.5000 132.0000 Du        
  11842 ****       163.2500 107.5000 132.2500 Du        
  11843 ****       163.2500 107.5000 132.5000 Du        
  11844 ****       163.2500 107.5000 132.7500 Du        
  11845 ****       163.2500 107.5000 133.0000 Du        
  11846 ****       163.2500 107.7500 131.5000 Du        
  11847 ****       163.2500 107.7500 131.7500 Du        
  11848 ****       163.2500 107.7500 132.0000 Du        
  11849 ****       163.2500 107.7500 132.2500 Du        
  11850 ****       163.2500 107.7500 132.5000 Du        
  11851 ****       163.2500 107.7500 132.7500 Du        
  11852 ****       163.2500 107.7500 133.0000 Du        
  11853 ****       163.2500 108.0000 131.7500 Du        
  11854 ****       163.2500 108.0000 132.0000 Du        
  11855 ****       163.2500 108.0000 132.2500 Du        
  11856 ****       163.2500 108.0000 132.5000 Du        
  11857 ****       163.2500 108.0000 132.7500 Du        
  11858 ****       163.2500 108.0000 133.0000 Du        
  11859 ****       163.2500 108.2500 131.7500 Du        
  11860 ****       163.2500 108.2500 132.0000 Du        
  11861 ****       163.2500 108.2500 132.2500 Du        
  11862 ****       163.2500 108.2500 132.5000 Du        
  11863 ****       163.2500 108.2500 132.7500 Du        
  11864 ****       163.2500 108.5000 131.7500 Du        
  11865 ****       163.2500 108.5000 132.0000 Du        
  11866 ****       163.2500 108.5000 132.2500 Du        
  11867 ****       163.2500 108.5000 132.5000 Du        
  11868 ****       163.2500 108.7500 131.7500 Du        
  11869 ****       163.2500 108.7500 132.0000 Du        
  11870 ****       163.2500 111.5000 129.7500 Du        
  11871 ****       163.2500 111.5000 130.0000 Du        
  11872 ****       163.2500 113.2500 137.7500 Du        
  11873 ****       163.2500 113.2500 138.0000 Du        
  11874 ****       163.2500 113.5000 137.5000 Du        
  11875 ****       163.2500 113.5000 137.7500 Du        
  11876 ****       163.2500 113.5000 138.0000 Du        
  11877 ****       163.2500 113.5000 138.2500 Du        
  11878 ****       163.2500 113.5000 142.5000 Du        
  11879 ****       163.2500 113.5000 142.7500 Du        
  11880 ****       163.2500 113.5000 143.0000 Du        
  11881 ****       163.2500 113.5000 143.2500 Du        
  11882 ****       163.2500 113.7500 137.5000 Du        
  11883 ****       163.2500 113.7500 137.7500 Du        
  11884 ****       163.2500 113.7500 138.0000 Du        
  11885 ****       163.2500 113.7500 138.2500 Du        
  11886 ****       163.2500 113.7500 142.0000 Du        
  11887 ****       163.2500 113.7500 142.2500 Du        
  11888 ****       163.2500 113.7500 142.5000 Du        
  11889 ****       163.2500 113.7500 142.7500 Du        
  11890 ****       163.2500 113.7500 143.0000 Du        
  11891 ****       163.2500 114.0000 137.5000 Du        
  11892 ****       163.2500 114.0000 137.7500 Du        
  11893 ****       163.2500 114.0000 138.0000 Du        
  11894 ****       163.2500 114.0000 138.2500 Du        
  11895 ****       163.2500 114.0000 142.2500 Du        
  11896 ****       163.2500 114.0000 142.5000 Du        
  11897 ****       163.2500 114.0000 142.7500 Du        
  11898 ****       163.2500 114.0000 143.0000 Du        
  11899 ****       163.2500 114.2500 137.5000 Du        
  11900 ****       163.2500 114.2500 137.7500 Du        
  11901 ****       163.2500 114.2500 138.0000 Du        
  11902 ****       163.2500 114.5000 137.7500 Du        
  11903 ****       163.2500 114.5000 138.0000 Du        
  11904 ****       163.5000 107.0000 132.0000 Du        
  11905 ****       163.5000 107.2500 132.0000 Du        
  11906 ****       163.5000 107.2500 132.2500 Du        
  11907 ****       163.5000 107.5000 131.7500 Du        
  11908 ****       163.5000 107.5000 132.0000 Du        
  11909 ****       163.5000 107.5000 132.2500 Du        
  11910 ****       163.5000 107.5000 132.5000 Du        
  11911 ****       163.5000 107.5000 132.7500 Du        
  11912 ****       163.5000 107.7500 131.7500 Du        
  11913 ****       163.5000 107.7500 132.0000 Du        
  11914 ****       163.5000 107.7500 132.2500 Du        
  11915 ****       163.5000 107.7500 132.5000 Du        
  11916 ****       163.5000 107.7500 132.7500 Du        
  11917 ****       163.5000 107.7500 133.0000 Du        
  11918 ****       163.5000 108.0000 131.7500 Du        
  11919 ****       163.5000 108.0000 132.0000 Du        
  11920 ****       163.5000 108.0000 132.2500 Du        
  11921 ****       163.5000 108.0000 132.5000 Du        
  11922 ****       163.5000 108.0000 132.7500 Du        
  11923 ****       163.5000 108.2500 131.7500 Du        
  11924 ****       163.5000 108.2500 132.0000 Du        
  11925 ****       163.5000 108.2500 132.2500 Du        
  11926 ****       163.5000 108.5000 131.7500 Du        
  11927 ****       163.5000 108.5000 132.0000 Du        
  11928 ****       163.5000 108.5000 132.2500 Du        
  11929 ****       163.5000 108.7500 131.7500 Du        
  11930 ****       163.5000 111.0000 129.7500 Du        
  11931 ****       163.5000 111.0000 130.0000 Du        
  11932 ****       163.5000 111.0000 130.2500 Du        
  11933 ****       163.5000 111.2500 129.7500 Du        
  11934 ****       163.5000 111.2500 130.0000 Du        
  11935 ****       163.5000 111.2500 130.2500 Du        
  11936 ****       163.5000 111.5000 129.7500 Du        
  11937 ****       163.5000 111.5000 130.0000 Du        
  11938 ****       163.5000 111.5000 130.2500 Du        
  11939 ****       163.5000 111.7500 130.0000 Du        
  11940 ****       163.5000 112.5000 137.2500 Du        
  11941 ****       163.5000 112.7500 137.2500 Du        
  11942 ****       163.5000 112.7500 137.5000 Du        
  11943 ****       163.5000 113.0000 137.2500 Du        
  11944 ****       163.5000 113.0000 137.5000 Du        
  11945 ****       163.5000 113.0000 137.7500 Du        
  11946 ****       163.5000 113.2500 137.2500 Du        
  11947 ****       163.5000 113.2500 137.5000 Du        
  11948 ****       163.5000 113.2500 137.7500 Du        
  11949 ****       163.5000 113.2500 138.0000 Du        
  11950 ****       163.5000 113.5000 137.2500 Du        
  11951 ****       163.5000 113.5000 137.5000 Du        
  11952 ****       163.5000 113.5000 137.7500 Du        
  11953 ****       163.5000 113.5000 138.0000 Du        
  11954 ****       163.5000 113.5000 138.2500 Du        
  11955 ****       163.5000 113.5000 142.5000 Du        
  11956 ****       163.5000 113.5000 142.7500 Du        
  11957 ****       163.5000 113.5000 143.0000 Du        
  11958 ****       163.5000 113.7500 137.2500 Du        
  11959 ****       163.5000 113.7500 137.5000 Du        
  11960 ****       163.5000 113.7500 137.7500 Du        
  11961 ****       163.5000 113.7500 138.0000 Du        
  11962 ****       163.5000 113.7500 138.2500 Du        
  11963 ****       163.5000 113.7500 142.0000 Du        
  11964 ****       163.5000 113.7500 142.2500 Du        
  11965 ****       163.5000 113.7500 142.5000 Du        
  11966 ****       163.5000 113.7500 142.7500 Du        
  11967 ****       163.5000 113.7500 143.0000 Du        
  11968 ****       163.5000 114.0000 137.2500 Du        
  11969 ****       163.5000 114.0000 137.5000 Du        
  11970 ****       163.5000 114.0000 137.7500 Du        
  11971 ****       163.5000 114.0000 138.0000 Du        
  11972 ****       163.5000 114.0000 138.2500 Du        
  11973 ****       163.5000 114.2500 137.2500 Du        
  11974 ****       163.5000 114.2500 137.5000 Du        
  11975 ****       163.5000 114.2500 137.7500 Du        
  11976 ****       163.5000 114.2500 138.0000 Du        
  11977 ****       163.5000 114.2500 138.2500 Du        
  11978 ****       163.5000 114.5000 137.5000 Du        
  11979 ****       163.5000 114.5000 137.7500 Du        
  11980 ****       163.5000 114.5000 138.0000 Du        
  11981 ****       163.7500 107.2500 132.2500 Du        
  11982 ****       163.7500 107.5000 131.7500 Du        
  11983 ****       163.7500 107.5000 132.0000 Du        
  11984 ****       163.7500 107.5000 132.2500 Du        
  11985 ****       163.7500 107.5000 132.5000 Du        
  11986 ****       163.7500 107.7500 132.0000 Du        
  11987 ****       163.7500 107.7500 132.2500 Du        
  11988 ****       163.7500 107.7500 132.5000 Du        
  11989 ****       163.7500 108.0000 132.0000 Du        
  11990 ****       163.7500 108.0000 132.2500 Du        
  11991 ****       163.7500 108.2500 132.0000 Du        
  11992 ****       163.7500 112.5000 137.0000 Du        
  11993 ****       163.7500 112.5000 137.2500 Du        
  11994 ****       163.7500 112.5000 137.5000 Du        
  11995 ****       163.7500 112.7500 137.0000 Du        
  11996 ****       163.7500 112.7500 137.2500 Du        
  11997 ****       163.7500 112.7500 137.5000 Du        
  11998 ****       163.7500 112.7500 137.7500 Du        
  11999 ****       163.7500 113.0000 137.0000 Du        
  12000 ****       163.7500 113.0000 137.2500 Du        
  12001 ****       163.7500 113.0000 137.5000 Du        
  12002 ****       163.7500 113.0000 137.7500 Du        
  12003 ****       163.7500 113.2500 137.0000 Du        
  12004 ****       163.7500 113.2500 137.2500 Du        
  12005 ****       163.7500 113.2500 137.5000 Du        
  12006 ****       163.7500 113.2500 137.7500 Du        
  12007 ****       163.7500 113.2500 138.0000 Du        
  12008 ****       163.7500 113.5000 137.0000 Du        
  12009 ****       163.7500 113.5000 137.2500 Du        
  12010 ****       163.7500 113.5000 137.5000 Du        
  12011 ****       163.7500 113.5000 137.7500 Du        
  12012 ****       163.7500 113.5000 138.0000 Du        
  12013 ****       163.7500 113.5000 138.2500 Du        
  12014 ****       163.7500 113.5000 142.0000 Du        
  12015 ****       163.7500 113.5000 142.5000 Du        
  12016 ****       163.7500 113.7500 137.0000 Du        
  12017 ****       163.7500 113.7500 137.2500 Du        
  12018 ****       163.7500 113.7500 137.5000 Du        
  12019 ****       163.7500 113.7500 137.7500 Du        
  12020 ****       163.7500 113.7500 138.0000 Du        
  12021 ****       163.7500 113.7500 138.2500 Du        
  12022 ****       163.7500 113.7500 142.0000 Du        
  12023 ****       163.7500 113.7500 142.2500 Du        
  12024 ****       163.7500 114.0000 137.0000 Du        
  12025 ****       163.7500 114.0000 137.2500 Du        
  12026 ****       163.7500 114.0000 137.5000 Du        
  12027 ****       163.7500 114.0000 137.7500 Du        
  12028 ****       163.7500 114.0000 138.0000 Du        
  12029 ****       163.7500 114.0000 138.2500 Du        
  12030 ****       163.7500 114.2500 137.2500 Du        
  12031 ****       163.7500 114.2500 137.5000 Du        
  12032 ****       163.7500 114.2500 137.7500 Du        
  12033 ****       163.7500 114.2500 138.0000 Du        
  12034 ****       163.7500 114.2500 138.2500 Du        
  12035 ****       163.7500 114.5000 137.2500 Du        
  12036 ****       163.7500 114.5000 137.5000 Du        
  12037 ****       163.7500 114.5000 137.7500 Du        
  12038 ****       163.7500 114.5000 138.0000 Du        
  12039 ****       163.7500 114.7500 137.2500 Du        
  12040 ****       163.7500 114.7500 137.5000 Du        
  12041 ****       164.0000 107.7500 132.0000 Du        
  12042 ****       164.0000 112.5000 137.0000 Du        
  12043 ****       164.0000 112.5000 137.2500 Du        
  12044 ****       164.0000 112.5000 137.5000 Du        
  12045 ****       164.0000 112.7500 137.0000 Du        
  12046 ****       164.0000 112.7500 137.2500 Du        
  12047 ****       164.0000 112.7500 137.5000 Du        
  12048 ****       164.0000 112.7500 137.7500 Du        
  12049 ****       164.0000 113.0000 137.0000 Du        
  12050 ****       164.0000 113.0000 137.2500 Du        
  12051 ****       164.0000 113.0000 137.5000 Du        
  12052 ****       164.0000 113.0000 137.7500 Du        
  12053 ****       164.0000 113.2500 137.0000 Du        
  12054 ****       164.0000 113.2500 137.2500 Du        
  12055 ****       164.0000 113.2500 137.5000 Du        
  12056 ****       164.0000 113.2500 137.7500 Du        
  12057 ****       164.0000 113.5000 137.0000 Du        
  12058 ****       164.0000 113.5000 137.2500 Du        
  12059 ****       164.0000 113.5000 137.5000 Du        
  12060 ****       164.0000 113.5000 137.7500 Du        
  12061 ****       164.0000 113.5000 138.0000 Du        
  12062 ****       164.0000 113.7500 137.0000 Du        
  12063 ****       164.0000 113.7500 137.2500 Du        
  12064 ****       164.0000 113.7500 137.5000 Du        
  12065 ****       164.0000 113.7500 137.7500 Du        
  12066 ****       164.0000 113.7500 138.0000 Du        
  12067 ****       164.0000 113.7500 138.2500 Du        
  12068 ****       164.0000 114.0000 137.0000 Du        
  12069 ****       164.0000 114.0000 137.2500 Du        
  12070 ****       164.0000 114.0000 137.5000 Du        
  12071 ****       164.0000 114.0000 137.7500 Du        
  12072 ****       164.0000 114.0000 138.0000 Du        
  12073 ****       164.0000 114.0000 138.2500 Du        
  12074 ****       164.0000 114.2500 137.0000 Du        
  12075 ****       164.0000 114.2500 137.2500 Du        
  12076 ****       164.0000 114.2500 137.5000 Du        
  12077 ****       164.0000 114.2500 137.7500 Du        
  12078 ****       164.0000 114.2500 138.0000 Du        
  12079 ****       164.0000 114.2500 138.2500 Du        
  12080 ****       164.0000 114.5000 137.0000 Du        
  12081 ****       164.0000 114.5000 137.2500 Du        
  12082 ****       164.0000 114.5000 137.5000 Du        
  12083 ****       164.0000 114.5000 137.7500 Du        
  12084 ****       164.0000 114.5000 138.0000 Du        
  12085 ****       164.0000 114.7500 137.2500 Du        
  12086 ****       164.0000 114.7500 137.5000 Du        
  12087 ****       164.0000 114.7500 137.7500 Du        
  12088 ****       164.0000 115.0000 137.2500 Du        
  12089 ****       164.2500 112.5000 137.0000 Du        
  12090 ****       164.2500 112.5000 137.2500 Du        
  12091 ****       164.2500 112.7500 136.7500 Du        
  12092 ****       164.2500 112.7500 137.0000 Du        
  12093 ****       164.2500 112.7500 137.2500 Du        
  12094 ****       164.2500 112.7500 137.5000 Du        
  12095 ****       164.2500 113.0000 136.7500 Du        
  12096 ****       164.2500 113.0000 137.0000 Du        
  12097 ****       164.2500 113.0000 137.2500 Du        
  12098 ****       164.2500 113.0000 137.5000 Du        
  12099 ****       164.2500 113.0000 137.7500 Du        
  12100 ****       164.2500 113.2500 136.7500 Du        
  12101 ****       164.2500 113.2500 137.0000 Du        
  12102 ****       164.2500 113.2500 137.2500 Du        
  12103 ****       164.2500 113.2500 137.5000 Du        
  12104 ****       164.2500 113.2500 137.7500 Du        
  12105 ****       164.2500 113.2500 138.0000 Du        
  12106 ****       164.2500 113.5000 136.7500 Du        
  12107 ****       164.2500 113.5000 137.0000 Du        
  12108 ****       164.2500 113.5000 137.2500 Du        
  12109 ****       164.2500 113.5000 137.5000 Du        
  12110 ****       164.2500 113.5000 137.7500 Du        
  12111 ****       164.2500 113.5000 138.0000 Du        
  12112 ****       164.2500 113.7500 136.7500 Du        
  12113 ****       164.2500 113.7500 137.0000 Du        
  12114 ****       164.2500 113.7500 137.2500 Du        
  12115 ****       164.2500 113.7500 137.5000 Du        
  12116 ****       164.2500 113.7500 137.7500 Du        
  12117 ****       164.2500 113.7500 138.0000 Du        
  12118 ****       164.2500 114.0000 136.7500 Du        
  12119 ****       164.2500 114.0000 137.0000 Du        
  12120 ****       164.2500 114.0000 137.2500 Du        
  12121 ****       164.2500 114.0000 137.5000 Du        
  12122 ****       164.2500 114.0000 137.7500 Du        
  12123 ****       164.2500 114.0000 138.0000 Du        
  12124 ****       164.2500 114.0000 138.2500 Du        
  12125 ****       164.2500 114.2500 136.7500 Du        
  12126 ****       164.2500 114.2500 137.0000 Du        
  12127 ****       164.2500 114.2500 137.2500 Du        
  12128 ****       164.2500 114.2500 137.5000 Du        
  12129 ****       164.2500 114.2500 137.7500 Du        
  12130 ****       164.2500 114.2500 138.0000 Du        
  12131 ****       164.2500 114.2500 138.2500 Du        
  12132 ****       164.2500 114.5000 137.0000 Du        
  12133 ****       164.2500 114.5000 137.2500 Du        
  12134 ****       164.2500 114.5000 137.5000 Du        
  12135 ****       164.2500 114.5000 137.7500 Du        
  12136 ****       164.2500 114.5000 138.0000 Du        
  12137 ****       164.2500 114.7500 137.0000 Du        
  12138 ****       164.2500 114.7500 137.2500 Du        
  12139 ****       164.2500 114.7500 137.5000 Du        
  12140 ****       164.2500 114.7500 137.7500 Du        
  12141 ****       164.2500 115.0000 137.0000 Du        
  12142 ****       164.2500 115.0000 137.2500 Du        
  12143 ****       164.5000 112.5000 137.2500 Du        
  12144 ****       164.5000 112.7500 136.7500 Du        
  12145 ****       164.5000 112.7500 137.0000 Du        
  12146 ****       164.5000 112.7500 137.2500 Du        
  12147 ****       164.5000 112.7500 137.5000 Du        
  12148 ****       164.5000 113.0000 136.7500 Du        
  12149 ****       164.5000 113.0000 137.0000 Du        
  12150 ****       164.5000 113.0000 137.2500 Du        
  12151 ****       164.5000 113.0000 137.5000 Du        
  12152 ****       164.5000 113.0000 137.7500 Du        
  12153 ****       164.5000 113.2500 136.7500 Du        
  12154 ****       164.5000 113.2500 137.0000 Du        
  12155 ****       164.5000 113.2500 137.2500 Du        
  12156 ****       164.5000 113.2500 137.5000 Du        
  12157 ****       164.5000 113.2500 137.7500 Du        
  12158 ****       164.5000 113.5000 136.5000 Du        
  12159 ****       164.5000 113.5000 136.7500 Du        
  12160 ****       164.5000 113.5000 137.0000 Du        
  12161 ****       164.5000 113.5000 137.2500 Du        
  12162 ****       164.5000 113.5000 137.5000 Du        
  12163 ****       164.5000 113.5000 137.7500 Du        
  12164 ****       164.5000 113.5000 138.0000 Du        
  12165 ****       164.5000 113.7500 136.5000 Du        
  12166 ****       164.5000 113.7500 136.7500 Du        
  12167 ****       164.5000 113.7500 137.0000 Du        
  12168 ****       164.5000 113.7500 137.2500 Du        
  12169 ****       164.5000 113.7500 137.5000 Du        
  12170 ****       164.5000 113.7500 137.7500 Du        
  12171 ****       164.5000 113.7500 138.0000 Du        
  12172 ****       164.5000 114.0000 136.7500 Du        
  12173 ****       164.5000 114.0000 137.0000 Du        
  12174 ****       164.5000 114.0000 137.2500 Du        
  12175 ****       164.5000 114.0000 137.5000 Du        
  12176 ****       164.5000 114.0000 137.7500 Du        
  12177 ****       164.5000 114.0000 138.0000 Du        
  12178 ****       164.5000 114.0000 138.2500 Du        
  12179 ****       164.5000 114.2500 136.7500 Du        
  12180 ****       164.5000 114.2500 137.0000 Du        
  12181 ****       164.5000 114.2500 137.2500 Du        
  12182 ****       164.5000 114.2500 137.5000 Du        
  12183 ****       164.5000 114.2500 137.7500 Du        
  12184 ****       164.5000 114.2500 138.0000 Du        
  12185 ****       164.5000 114.2500 138.2500 Du        
  12186 ****       164.5000 114.5000 136.7500 Du        
  12187 ****       164.5000 114.5000 137.0000 Du        
  12188 ****       164.5000 114.5000 137.2500 Du        
  12189 ****       164.5000 114.5000 137.5000 Du        
  12190 ****       164.5000 114.5000 137.7500 Du        
  12191 ****       164.5000 114.5000 138.0000 Du        
  12192 ****       164.5000 114.5000 138.2500 Du        
  12193 ****       164.5000 114.7500 136.7500 Du        
  12194 ****       164.5000 114.7500 137.0000 Du        
  12195 ****       164.5000 114.7500 137.2500 Du        
  12196 ****       164.5000 114.7500 137.5000 Du        
  12197 ****       164.5000 114.7500 137.7500 Du        
  12198 ****       164.5000 115.0000 136.7500 Du        
  12199 ****       164.5000 115.0000 137.0000 Du        
  12200 ****       164.5000 115.0000 137.2500 Du        
  12201 ****       164.5000 115.0000 137.5000 Du        
  12202 ****       164.7500 112.7500 136.7500 Du        
  12203 ****       164.7500 112.7500 137.0000 Du        
  12204 ****       164.7500 112.7500 137.2500 Du        
  12205 ****       164.7500 113.0000 136.7500 Du        
  12206 ****       164.7500 113.0000 137.0000 Du        
  12207 ****       164.7500 113.0000 137.2500 Du        
  12208 ****       164.7500 113.0000 137.5000 Du        
  12209 ****       164.7500 113.2500 136.5000 Du        
  12210 ****       164.7500 113.2500 136.7500 Du        
  12211 ****       164.7500 113.2500 137.0000 Du        
  12212 ****       164.7500 113.2500 137.2500 Du        
  12213 ****       164.7500 113.2500 137.5000 Du        
  12214 ****       164.7500 113.2500 137.7500 Du        
  12215 ****       164.7500 113.5000 136.5000 Du        
  12216 ****       164.7500 113.5000 136.7500 Du        
  12217 ****       164.7500 113.5000 137.0000 Du        
  12218 ****       164.7500 113.5000 137.2500 Du        
  12219 ****       164.7500 113.5000 137.5000 Du        
  12220 ****       164.7500 113.5000 137.7500 Du        
  12221 ****       164.7500 113.5000 138.0000 Du        
  12222 ****       164.7500 113.7500 136.5000 Du        
  12223 ****       164.7500 113.7500 136.7500 Du        
  12224 ****       164.7500 113.7500 137.0000 Du        
  12225 ****       164.7500 113.7500 137.2500 Du        
  12226 ****       164.7500 113.7500 137.5000 Du        
  12227 ****       164.7500 113.7500 137.7500 Du        
  12228 ****       164.7500 113.7500 138.0000 Du        
  12229 ****       164.7500 114.0000 136.5000 Du        
  12230 ****       164.7500 114.0000 136.7500 Du        
  12231 ****       164.7500 114.0000 137.0000 Du        
  12232 ****       164.7500 114.0000 137.2500 Du        
  12233 ****       164.7500 114.0000 137.5000 Du        
  12234 ****       164.7500 114.0000 137.7500 Du        
  12235 ****       164.7500 114.0000 138.0000 Du        
  12236 ****       164.7500 114.0000 140.5000 Du        
  12237 ****       164.7500 114.0000 140.7500 Du        
  12238 ****       164.7500 114.2500 136.5000 Du        
  12239 ****       164.7500 114.2500 136.7500 Du        
  12240 ****       164.7500 114.2500 137.0000 Du        
  12241 ****       164.7500 114.2500 137.2500 Du        
  12242 ****       164.7500 114.2500 137.5000 Du        
  12243 ****       164.7500 114.2500 137.7500 Du        
  12244 ****       164.7500 114.2500 138.0000 Du        
  12245 ****       164.7500 114.2500 138.2500 Du        
  12246 ****       164.7500 114.5000 136.5000 Du        
  12247 ****       164.7500 114.5000 136.7500 Du        
  12248 ****       164.7500 114.5000 137.0000 Du        
  12249 ****       164.7500 114.5000 137.2500 Du        
  12250 ****       164.7500 114.5000 137.5000 Du        
  12251 ****       164.7500 114.5000 137.7500 Du        
  12252 ****       164.7500 114.5000 138.0000 Du        
  12253 ****       164.7500 114.5000 138.2500 Du        
  12254 ****       164.7500 114.7500 136.7500 Du        
  12255 ****       164.7500 114.7500 137.0000 Du        
  12256 ****       164.7500 114.7500 137.2500 Du        
  12257 ****       164.7500 114.7500 137.5000 Du        
  12258 ****       164.7500 114.7500 137.7500 Du        
  12259 ****       164.7500 114.7500 138.0000 Du        
  12260 ****       164.7500 115.0000 136.7500 Du        
  12261 ****       164.7500 115.0000 137.0000 Du        
  12262 ****       164.7500 115.0000 137.2500 Du        
  12263 ****       164.7500 115.0000 137.5000 Du        
  12264 ****       164.7500 115.2500 136.7500 Du        
  12265 ****       164.7500 115.2500 137.0000 Du        
  12266 ****       164.7500 115.2500 137.2500 Du        
  12267 ****       165.0000 112.7500 137.0000 Du        
  12268 ****       165.0000 112.7500 137.2500 Du        
  12269 ****       165.0000 113.0000 136.7500 Du        
  12270 ****       165.0000 113.0000 137.0000 Du        
  12271 ****       165.0000 113.0000 137.2500 Du        
  12272 ****       165.0000 113.2500 136.5000 Du        
  12273 ****       165.0000 113.2500 136.7500 Du        
  12274 ****       165.0000 113.2500 137.0000 Du        
  12275 ****       165.0000 113.2500 137.2500 Du        
  12276 ****       165.0000 113.2500 137.5000 Du        
  12277 ****       165.0000 113.5000 136.5000 Du        
  12278 ****       165.0000 113.5000 136.7500 Du        
  12279 ****       165.0000 113.5000 137.0000 Du        
  12280 ****       165.0000 113.5000 137.2500 Du        
  12281 ****       165.0000 113.5000 137.5000 Du        
  12282 ****       165.0000 113.5000 137.7500 Du        
  12283 ****       165.0000 113.7500 136.5000 Du        
  12284 ****       165.0000 113.7500 136.7500 Du        
  12285 ****       165.0000 113.7500 137.0000 Du        
  12286 ****       165.0000 113.7500 137.2500 Du        
  12287 ****       165.0000 113.7500 137.5000 Du        
  12288 ****       165.0000 113.7500 137.7500 Du        
  12289 ****       165.0000 113.7500 138.0000 Du        
  12290 ****       165.0000 114.0000 136.5000 Du        
  12291 ****       165.0000 114.0000 136.7500 Du        
  12292 ****       165.0000 114.0000 137.0000 Du        
  12293 ****       165.0000 114.0000 137.2500 Du        
  12294 ****       165.0000 114.0000 137.5000 Du        
  12295 ****       165.0000 114.0000 137.7500 Du        
  12296 ****       165.0000 114.0000 138.0000 Du        
  12297 ****       165.0000 114.0000 138.2500 Du        
  12298 ****       165.0000 114.0000 140.2500 Du        
  12299 ****       165.0000 114.0000 140.5000 Du        
  12300 ****       165.0000 114.0000 140.7500 Du        
  12301 ****       165.0000 114.2500 136.5000 Du        
  12302 ****       165.0000 114.2500 136.7500 Du        
  12303 ****       165.0000 114.2500 137.0000 Du        
  12304 ****       165.0000 114.2500 137.2500 Du        
  12305 ****       165.0000 114.2500 137.5000 Du        
  12306 ****       165.0000 114.2500 137.7500 Du        
  12307 ****       165.0000 114.2500 138.0000 Du        
  12308 ****       165.0000 114.2500 138.5000 Du        
  12309 ****       165.0000 114.2500 138.7500 Du        
  12310 ****       165.0000 114.2500 140.5000 Du        
  12311 ****       165.0000 114.2500 140.7500 Du        
  12312 ****       165.0000 114.5000 136.5000 Du        
  12313 ****       165.0000 114.5000 136.7500 Du        
  12314 ****       165.0000 114.5000 137.0000 Du        
  12315 ****       165.0000 114.5000 137.2500 Du        
  12316 ****       165.0000 114.5000 137.5000 Du        
  12317 ****       165.0000 114.5000 137.7500 Du        
  12318 ****       165.0000 114.5000 138.0000 Du        
  12319 ****       165.0000 114.5000 138.2500 Du        
  12320 ****       165.0000 114.7500 136.5000 Du        
  12321 ****       165.0000 114.7500 136.7500 Du        
  12322 ****       165.0000 114.7500 137.0000 Du        
  12323 ****       165.0000 114.7500 137.2500 Du        
  12324 ****       165.0000 114.7500 137.5000 Du        
  12325 ****       165.0000 114.7500 137.7500 Du        
  12326 ****       165.0000 114.7500 138.0000 Du        
  12327 ****       165.0000 115.0000 136.5000 Du        
  12328 ****       165.0000 115.0000 136.7500 Du        
  12329 ****       165.0000 115.0000 137.0000 Du        
  12330 ****       165.0000 115.0000 137.2500 Du        
  12331 ****       165.0000 115.0000 137.5000 Du        
  12332 ****       165.0000 115.2500 136.7500 Du        
  12333 ****       165.0000 115.2500 137.0000 Du        
  12334 ****       165.0000 115.2500 137.2500 Du        
  12335 ****       165.2500 113.0000 136.7500 Du        
  12336 ****       165.2500 113.0000 137.0000 Du        
  12337 ****       165.2500 113.0000 137.2500 Du        
  12338 ****       165.2500 113.2500 136.7500 Du        
  12339 ****       165.2500 113.2500 137.0000 Du        
  12340 ****       165.2500 113.2500 137.2500 Du        
  12341 ****       165.2500 113.2500 137.5000 Du        
  12342 ****       165.2500 113.5000 136.5000 Du        
  12343 ****       165.2500 113.5000 136.7500 Du        
  12344 ****       165.2500 113.5000 137.0000 Du        
  12345 ****       165.2500 113.5000 137.2500 Du        
  12346 ****       165.2500 113.5000 137.5000 Du        
  12347 ****       165.2500 113.7500 136.5000 Du        
  12348 ****       165.2500 113.7500 136.7500 Du        
  12349 ****       165.2500 113.7500 137.0000 Du        
  12350 ****       165.2500 113.7500 137.2500 Du        
  12351 ****       165.2500 113.7500 137.5000 Du        
  12352 ****       165.2500 113.7500 137.7500 Du        
  12353 ****       165.2500 114.0000 136.5000 Du        
  12354 ****       165.2500 114.0000 136.7500 Du        
  12355 ****       165.2500 114.0000 137.0000 Du        
  12356 ****       165.2500 114.0000 137.2500 Du        
  12357 ****       165.2500 114.0000 137.5000 Du        
  12358 ****       165.2500 114.0000 137.7500 Du        
  12359 ****       165.2500 114.0000 138.0000 Du        
  12360 ****       165.2500 114.0000 138.7500 Du        
  12361 ****       165.2500 114.0000 140.2500 Du        
  12362 ****       165.2500 114.0000 140.5000 Du        
  12363 ****       165.2500 114.0000 140.7500 Du        
  12364 ****       165.2500 114.2500 136.5000 Du        
  12365 ****       165.2500 114.2500 136.7500 Du        
  12366 ****       165.2500 114.2500 137.0000 Du        
  12367 ****       165.2500 114.2500 137.2500 Du        
  12368 ****       165.2500 114.2500 137.5000 Du        
  12369 ****       165.2500 114.2500 137.7500 Du        
  12370 ****       165.2500 114.2500 138.0000 Du        
  12371 ****       165.2500 114.2500 138.5000 Du        
  12372 ****       165.2500 114.2500 138.7500 Du        
  12373 ****       165.2500 114.2500 140.0000 Du        
  12374 ****       165.2500 114.2500 140.2500 Du        
  12375 ****       165.2500 114.2500 140.5000 Du        
  12376 ****       165.2500 114.2500 140.7500 Du        
  12377 ****       165.2500 114.5000 136.5000 Du        
  12378 ****       165.2500 114.5000 136.7500 Du        
  12379 ****       165.2500 114.5000 137.0000 Du        
  12380 ****       165.2500 114.5000 137.2500 Du        
  12381 ****       165.2500 114.5000 137.5000 Du        
  12382 ****       165.2500 114.5000 137.7500 Du        
  12383 ****       165.2500 114.5000 138.0000 Du        
  12384 ****       165.2500 114.5000 138.2500 Du        
  12385 ****       165.2500 114.5000 140.0000 Du        
  12386 ****       165.2500 114.5000 140.2500 Du        
  12387 ****       165.2500 114.5000 140.5000 Du        
  12388 ****       165.2500 114.7500 136.5000 Du        
  12389 ****       165.2500 114.7500 136.7500 Du        
  12390 ****       165.2500 114.7500 137.0000 Du        
  12391 ****       165.2500 114.7500 137.2500 Du        
  12392 ****       165.2500 114.7500 137.5000 Du        
  12393 ****       165.2500 114.7500 137.7500 Du        
  12394 ****       165.2500 114.7500 138.0000 Du        
  12395 ****       165.2500 115.0000 136.5000 Du        
  12396 ****       165.2500 115.0000 136.7500 Du        
  12397 ****       165.2500 115.0000 137.0000 Du        
  12398 ****       165.2500 115.0000 137.2500 Du        
  12399 ****       165.2500 115.0000 137.5000 Du        
  12400 ****       165.2500 115.2500 136.5000 Du        
  12401 ****       165.2500 115.2500 136.7500 Du        
  12402 ****       165.2500 115.2500 137.0000 Du        
  12403 ****       165.5000 113.5000 136.7500 Du        
  12404 ****       165.5000 113.5000 137.0000 Du        
  12405 ****       165.5000 113.5000 137.2500 Du        
  12406 ****       165.5000 113.7500 136.5000 Du        
  12407 ****       165.5000 113.7500 136.7500 Du        
  12408 ****       165.5000 113.7500 137.0000 Du        
  12409 ****       165.5000 113.7500 137.2500 Du        
  12410 ****       165.5000 114.0000 136.7500 Du        
  12411 ****       165.5000 114.0000 137.0000 Du        
  12412 ****       165.5000 114.0000 137.2500 Du        
  12413 ****       165.5000 114.0000 137.5000 Du        
  12414 ****       165.5000 114.0000 137.7500 Du        
  12415 ****       165.5000 114.0000 138.0000 Du        
  12416 ****       165.5000 114.0000 138.2500 Du        
  12417 ****       165.5000 114.0000 140.2500 Du        
  12418 ****       165.5000 114.0000 140.5000 Du        
  12419 ****       165.5000 114.2500 136.7500 Du        
  12420 ****       165.5000 114.2500 137.0000 Du        
  12421 ****       165.5000 114.2500 137.2500 Du        
  12422 ****       165.5000 114.2500 137.5000 Du        
  12423 ****       165.5000 114.2500 137.7500 Du        
  12424 ****       165.5000 114.2500 138.0000 Du        
  12425 ****       165.5000 114.2500 138.2500 Du        
  12426 ****       165.5000 114.2500 138.7500 Du        
  12427 ****       165.5000 114.2500 140.0000 Du        
  12428 ****       165.5000 114.2500 140.2500 Du        
  12429 ****       165.5000 114.2500 140.5000 Du        
  12430 ****       165.5000 114.5000 136.7500 Du        
  12431 ****       165.5000 114.5000 137.0000 Du        
  12432 ****       165.5000 114.5000 137.2500 Du        
  12433 ****       165.5000 114.5000 137.5000 Du        
  12434 ****       165.5000 114.5000 137.7500 Du        
  12435 ****       165.5000 114.5000 138.0000 Du        
  12436 ****       165.5000 114.5000 138.2500 Du        
  12437 ****       165.5000 114.5000 139.2500 Du        
  12438 ****       165.5000 114.5000 139.7500 Du        
  12439 ****       165.5000 114.5000 140.0000 Du        
  12440 ****       165.5000 114.5000 140.2500 Du        
  12441 ****       165.5000 114.5000 140.5000 Du        
  12442 ****       165.5000 114.7500 136.7500 Du        
  12443 ****       165.5000 114.7500 137.0000 Du        
  12444 ****       165.5000 114.7500 137.2500 Du        
  12445 ****       165.5000 114.7500 137.5000 Du        
  12446 ****       165.5000 115.0000 136.7500 Du        
  12447 ****       165.5000 115.0000 137.0000 Du        
  12448 ****       165.5000 115.0000 137.2500 Du        
  12449 ****       165.5000 115.2500 136.7500 Du        
  12450 ****       165.5000 115.2500 137.0000 Du        
  12451 ****       165.7500 113.5000 136.7500 Du        
  12452 ****       165.7500 113.5000 137.0000 Du        
  12453 ****       165.7500 113.5000 137.2500 Du        
  12454 ****       165.7500 113.7500 136.7500 Du        
  12455 ****       165.7500 113.7500 137.0000 Du        
  12456 ****       165.7500 113.7500 137.2500 Du        
  12457 ****       165.7500 114.0000 136.7500 Du        
  12458 ****       165.7500 114.0000 137.0000 Du        
  12459 ****       165.7500 114.0000 137.2500 Du        
  12460 ****       165.7500 114.0000 137.7500 Du        
  12461 ****       165.7500 114.0000 138.0000 Du        
  12462 ****       165.7500 114.0000 138.2500 Du        
  12463 ****       165.7500 114.0000 139.0000 Du        
  12464 ****       165.7500 114.0000 140.0000 Du        
  12465 ****       165.7500 114.0000 140.2500 Du        
  12466 ****       165.7500 114.0000 140.5000 Du        
  12467 ****       165.7500 114.2500 136.7500 Du        
  12468 ****       165.7500 114.2500 137.0000 Du        
  12469 ****       165.7500 114.2500 137.2500 Du        
  12470 ****       165.7500 114.2500 137.5000 Du        
  12471 ****       165.7500 114.2500 137.7500 Du        
  12472 ****       165.7500 114.2500 138.0000 Du        
  12473 ****       165.7500 114.2500 138.2500 Du        
  12474 ****       165.7500 114.2500 138.5000 Du        
  12475 ****       165.7500 114.2500 138.7500 Du        
  12476 ****       165.7500 114.2500 139.0000 Du        
  12477 ****       165.7500 114.2500 139.7500 Du        
  12478 ****       165.7500 114.2500 140.0000 Du        
  12479 ****       165.7500 114.2500 140.2500 Du        
  12480 ****       165.7500 114.2500 140.5000 Du        
  12481 ****       165.7500 114.5000 136.7500 Du        
  12482 ****       165.7500 114.5000 137.0000 Du        
  12483 ****       165.7500 114.5000 137.2500 Du        
  12484 ****       165.7500 114.5000 137.5000 Du        
  12485 ****       165.7500 114.5000 137.7500 Du        
  12486 ****       165.7500 114.5000 138.0000 Du        
  12487 ****       165.7500 114.5000 138.2500 Du        
  12488 ****       165.7500 114.5000 139.0000 Du        
  12489 ****       165.7500 114.5000 139.2500 Du        
  12490 ****       165.7500 114.5000 139.5000 Du        
  12491 ****       165.7500 114.5000 139.7500 Du        
  12492 ****       165.7500 114.5000 140.0000 Du        
  12493 ****       165.7500 114.5000 140.2500 Du        
  12494 ****       165.7500 114.5000 140.5000 Du        
  12495 ****       165.7500 114.5000 140.7500 Du        
  12496 ****       165.7500 114.7500 136.7500 Du        
  12497 ****       165.7500 114.7500 137.0000 Du        
  12498 ****       165.7500 114.7500 137.2500 Du        
  12499 ****       165.7500 114.7500 139.7500 Du        
  12500 ****       165.7500 114.7500 140.0000 Du        
  12501 ****       165.7500 114.7500 140.2500 Du        
  12502 ****       165.7500 114.7500 140.5000 Du        
  12503 ****       165.7500 115.0000 136.7500 Du        
  12504 ****       165.7500 115.0000 137.0000 Du        
  12505 ****       165.7500 115.0000 137.2500 Du        
  12506 ****       166.0000 113.7500 137.0000 Du        
  12507 ****       166.0000 114.0000 137.0000 Du        
  12508 ****       166.0000 114.0000 137.2500 Du        
  12509 ****       166.0000 114.0000 138.0000 Du        
  12510 ****       166.0000 114.0000 138.2500 Du        
  12511 ****       166.0000 114.2500 137.0000 Du        
  12512 ****       166.0000 114.2500 137.2500 Du        
  12513 ****       166.0000 114.2500 137.5000 Du        
  12514 ****       166.0000 114.2500 137.7500 Du        
  12515 ****       166.0000 114.2500 138.0000 Du        
  12516 ****       166.0000 114.2500 138.2500 Du        
  12517 ****       166.0000 114.2500 138.5000 Du        
  12518 ****       166.0000 114.2500 138.7500 Du        
  12519 ****       166.0000 114.2500 139.7500 Du        
  12520 ****       166.0000 114.2500 140.0000 Du        
  12521 ****       166.0000 114.2500 140.2500 Du        
  12522 ****       166.0000 114.2500 140.5000 Du        
  12523 ****       166.0000 114.5000 137.0000 Du        
  12524 ****       166.0000 114.5000 137.2500 Du        
  12525 ****       166.0000 114.5000 137.5000 Du        
  12526 ****       166.0000 114.5000 137.7500 Du        
  12527 ****       166.0000 114.5000 138.0000 Du        
  12528 ****       166.0000 114.5000 138.2500 Du        
  12529 ****       166.0000 114.5000 139.0000 Du        
  12530 ****       166.0000 114.5000 139.2500 Du        
  12531 ****       166.0000 114.5000 139.5000 Du        
  12532 ****       166.0000 114.5000 139.7500 Du        
  12533 ****       166.0000 114.5000 140.0000 Du        
  12534 ****       166.0000 114.5000 140.2500 Du        
  12535 ****       166.0000 114.5000 140.5000 Du        
  12536 ****       166.0000 114.7500 137.0000 Du        
  12537 ****       166.0000 114.7500 137.2500 Du        
  12538 ****       166.0000 114.7500 139.5000 Du        
  12539 ****       166.0000 114.7500 139.7500 Du        
  12540 ****       166.0000 114.7500 140.0000 Du        
  12541 ****       166.0000 114.7500 140.2500 Du        
  12542 ****       166.0000 114.7500 140.5000 Du        
  12543 ****       166.0000 115.0000 137.0000 Du        
  12544 ****       166.0000 115.0000 137.2500 Du        
  12545 ****       166.0000 115.0000 140.0000 Du        
  12546 ****       166.0000 115.0000 140.2500 Du        
  12547 ****       166.0000 115.0000 140.5000 Du        
  12548 ****       166.2500 114.0000 138.0000 Du        
  12549 ****       166.2500 114.2500 137.7500 Du        
  12550 ****       166.2500 114.2500 138.0000 Du        
  12551 ****       166.2500 114.2500 138.2500 Du        
  12552 ****       166.2500 114.2500 138.5000 Du        
  12553 ****       166.2500 114.2500 138.7500 Du        
  12554 ****       166.2500 114.2500 139.5000 Du        
  12555 ****       166.2500 114.2500 139.7500 Du        
  12556 ****       166.2500 114.2500 140.0000 Du        
  12557 ****       166.2500 114.2500 140.2500 Du        
  12558 ****       166.2500 114.5000 137.2500 Du        
  12559 ****       166.2500 114.5000 138.0000 Du        
  12560 ****       166.2500 114.5000 138.2500 Du        
  12561 ****       166.2500 114.5000 139.0000 Du        
  12562 ****       166.2500 114.5000 139.2500 Du        
  12563 ****       166.2500 114.5000 139.5000 Du        
  12564 ****       166.2500 114.5000 139.7500 Du        
  12565 ****       166.2500 114.5000 140.0000 Du        
  12566 ****       166.2500 114.5000 140.2500 Du        
  12567 ****       166.2500 114.5000 140.5000 Du        
  12568 ****       166.2500 114.7500 137.2500 Du        
  12569 ****       166.2500 114.7500 138.0000 Du        
  12570 ****       166.2500 114.7500 139.2500 Du        
  12571 ****       166.2500 114.7500 139.5000 Du        
  12572 ****       166.2500 114.7500 139.7500 Du        
  12573 ****       166.2500 114.7500 140.0000 Du        
  12574 ****       166.2500 114.7500 140.2500 Du        
  12575 ****       166.2500 114.7500 140.5000 Du        
  12576 ****       166.2500 115.0000 139.7500 Du        
  12577 ****       166.2500 115.0000 140.0000 Du        
  12578 ****       166.2500 115.0000 140.2500 Du        
  12579 ****       166.2500 115.0000 140.5000 Du        
  12580 ****       166.2500 115.2500 140.0000 Du        
  12581 ****       166.2500 115.2500 140.2500 Du        
  12582 ****       166.5000 114.2500 139.7500 Du        
  12583 ****       166.5000 114.2500 140.0000 Du        
  12584 ****       166.5000 114.2500 140.2500 Du        
  12585 ****       166.5000 114.5000 138.2500 Du        
  12586 ****       166.5000 114.5000 139.2500 Du        
  12587 ****       166.5000 114.5000 139.5000 Du        
  12588 ****       166.5000 114.5000 139.7500 Du        
  12589 ****       166.5000 114.5000 140.0000 Du        
  12590 ****       166.5000 114.5000 140.2500 Du        
  12591 ****       166.5000 114.5000 140.5000 Du        
  12592 ****       166.5000 114.7500 139.5000 Du        
  12593 ****       166.5000 114.7500 139.7500 Du        
  12594 ****       166.5000 114.7500 140.0000 Du        
  12595 ****       166.5000 114.7500 140.2500 Du        
  12596 ****       166.5000 114.7500 140.5000 Du        
  12597 ****       166.5000 115.0000 139.7500 Du        
  12598 ****       166.5000 115.0000 140.0000 Du        
  12599 ****       166.5000 115.0000 140.2500 Du        
  12600 ****       166.5000 115.0000 140.5000 Du        
  12601 ****       166.5000 115.2500 140.0000 Du        
  12602 ****       166.5000 115.2500 140.2500 Du        
  12603 ****       166.5000 115.2500 140.5000 Du        
  12604 ****       166.7500 114.2500 139.7500 Du        
  12605 ****       166.7500 114.2500 140.0000 Du        
  12606 ****       166.7500 114.5000 138.2500 Du        
  12607 ****       166.7500 114.5000 139.5000 Du        
  12608 ****       166.7500 114.5000 139.7500 Du        
  12609 ****       166.7500 114.5000 140.0000 Du        
  12610 ****       166.7500 114.5000 140.2500 Du        
  12611 ****       166.7500 114.7500 139.2500 Du        
  12612 ****       166.7500 114.7500 139.5000 Du        
  12613 ****       166.7500 114.7500 139.7500 Du        
  12614 ****       166.7500 114.7500 140.0000 Du        
  12615 ****       166.7500 114.7500 140.2500 Du        
  12616 ****       166.7500 115.0000 139.5000 Du        
  12617 ****       166.7500 115.0000 139.7500 Du        
  12618 ****       166.7500 115.0000 140.0000 Du        
  12619 ****       166.7500 115.0000 140.2500 Du        
  12620 ****       166.7500 115.0000 140.5000 Du        
  12621 ****       166.7500 115.2500 139.7500 Du        
  12622 ****       166.7500 115.2500 140.0000 Du        
  12623 ****       166.7500 115.2500 140.2500 Du        
  12624 ****       166.7500 115.5000 140.2500 Du        
  12625 ****       167.0000 114.5000 139.2500 Du        
  12626 ****       167.0000 114.5000 139.5000 Du        
  12627 ****       167.0000 114.5000 139.7500 Du        
  12628 ****       167.0000 114.5000 140.0000 Du        
  12629 ****       167.0000 114.5000 140.2500 Du        
  12630 ****       167.0000 114.7500 139.2500 Du        
  12631 ****       167.0000 114.7500 139.5000 Du        
  12632 ****       167.0000 114.7500 139.7500 Du        
  12633 ****       167.0000 114.7500 140.0000 Du        
  12634 ****       167.0000 114.7500 140.2500 Du        
  12635 ****       167.0000 115.0000 139.5000 Du        
  12636 ****       167.0000 115.0000 139.7500 Du        
  12637 ****       167.0000 115.0000 140.0000 Du        
  12638 ****       167.0000 115.0000 140.2500 Du        
  12639 ****       167.0000 115.2500 139.7500 Du        
  12640 ****       167.0000 115.2500 140.0000 Du        
  12641 ****       167.0000 115.2500 140.2500 Du        
  12642 ****       167.2500 114.5000 139.5000 Du        
  12643 ****       167.2500 114.5000 139.7500 Du        
  12644 ****       167.2500 114.5000 140.0000 Du        
  12645 ****       167.2500 114.7500 139.2500 Du        
  12646 ****       167.2500 114.7500 139.5000 Du        
  12647 ****       167.2500 114.7500 139.7500 Du        
  12648 ****       167.2500 114.7500 140.0000 Du        
  12649 ****       167.2500 114.7500 140.2500 Du        
  12650 ****       167.2500 115.0000 139.5000 Du        
  12651 ****       167.2500 115.0000 139.7500 Du        
  12652 ****       167.2500 115.0000 140.0000 Du        
  12653 ****       167.2500 115.0000 140.2500 Du        
  12654 ****       167.2500 115.2500 139.5000 Du        
  12655 ****       167.2500 115.2500 139.7500 Du        
  12656 ****       167.2500 115.2500 140.0000 Du        
  12657 ****       167.2500 115.2500 140.2500 Du        
  12658 ****       167.2500 115.5000 140.0000 Du        
  12659 ****       167.5000 114.5000 139.7500 Du        
  12660 ****       167.5000 114.7500 139.2500 Du        
  12661 ****       167.5000 114.7500 139.5000 Du        
  12662 ****       167.5000 114.7500 139.7500 Du        
  12663 ****       167.5000 114.7500 140.0000 Du        
  12664 ****       167.5000 115.0000 139.2500 Du        
  12665 ****       167.5000 115.0000 139.5000 Du        
  12666 ****       167.5000 115.0000 139.7500 Du        
  12667 ****       167.5000 115.0000 140.0000 Du        
  12668 ****       167.5000 115.2500 139.5000 Du        
  12669 ****       167.5000 115.2500 139.7500 Du        
  12670 ****       167.5000 115.2500 140.0000 Du        
  12671 ****       167.7500 114.7500 139.2500 Du        
  12672 ****       167.7500 114.7500 139.5000 Du        
  12673 ****       167.7500 114.7500 139.7500 Du        
  12674 ****       167.7500 114.7500 140.0000 Du        
  12675 ****       167.7500 115.0000 139.2500 Du        
  12676 ****       167.7500 115.0000 139.5000 Du        
  12677 ****       167.7500 115.0000 139.7500 Du        
  12678 ****       167.7500 115.0000 140.0000 Du        
  12679 ****       167.7500 115.2500 139.5000 Du        
  12680 ****       167.7500 115.2500 139.7500 Du        
  12681 ****       167.7500 115.2500 140.0000 Du        
  12682 ****       168.0000 115.0000 139.2500 Du        
  12683 ****       168.0000 115.0000 139.5000 Du        
  12684 ****       168.0000 115.0000 139.7500 Du        
  12685 ****       168.0000 115.2500 139.5000 Du        
  12686 ****       168.0000 115.2500 139.7500 Du        
  12687 ****       168.0000 117.5000 136.0000 Du        
  12688 ****       168.0000 117.7500 136.0000 Du        
  12689 ****       168.0000 118.0000 135.7500 Du        
  12690 ****       168.0000 118.0000 136.0000 Du        
  12691 ****       168.2500 117.2500 136.2500 Du        
  12692 ****       168.2500 117.5000 136.0000 Du        
  12693 ****       168.2500 117.5000 136.2500 Du        
  12694 ****       168.2500 117.7500 135.7500 Du        
  12695 ****       168.2500 117.7500 136.0000 Du        
  12696 ****       168.2500 117.7500 136.2500 Du        
  12697 ****       168.2500 118.0000 135.7500 Du        
  12698 ****       168.2500 118.0000 136.0000 Du        
