#       Name:                CT1002167954
#       Creating user name   hitesit
#       Creation time:       Sun Apr 16 02:22:05 2023


#       File generated by GOLD software.
#

@<TRIPOS>MOLECULE
CT1002167954|ligand_prepared|mol2|1|dock2
    29    30     1
SMALL
NO_CHARGES


@<TRIPOS>ATOM
      1 C1         156.5138 114.1658 146.5025 C.3            1 RES1               0.0000
      2 C2         157.7110 114.1776 147.4748 C.ar           1 RES1               0.0000
      3 C3         156.1822 112.6981 146.2490 C.2            1 RES1               0.0000
      4 C4         155.3984 114.9458 147.1898 C.2            1 RES1               0.0000
      5 C5         156.8052 114.8453 145.1443 C.3            1 RES1               0.0000
      6 C6         159.0087 114.3392 146.9989 C.ar           1 RES1               0.0000
      7 C7         157.5336 114.0310 148.8480 C.ar           1 RES1               0.0000
      8 N8         155.0616 112.1924 146.8392 N.am           1 RES1               0.0000
      9 O9         156.9143 111.9851 145.5736 O.2            1 RES1               0.0000
     10 N10        154.2655 114.2640 147.5494 N.am           1 RES1               0.0000
     11 O11        155.4973 116.1411 147.4380 O.2            1 RES1               0.0000
     12 C12        155.5597 115.1194 144.3161 C.3            1 RES1               0.0000
     13 C13        160.0898 114.3566 147.8646 C.ar           1 RES1               0.0000
     14 C14        158.6161 114.0485 149.7119 C.ar           1 RES1               0.0000
     15 C15        154.0591 112.9164 147.4329 C.2            1 RES1               0.0000
     16 C16        159.8942 114.2117 149.2215 C.ar           1 RES1               0.0000
     17 O17        153.0349 112.3678 147.8294 O.2            1 RES1               0.0000
     18 H18        157.3229 115.7948 145.3283 H              1 RES1               0.0000
     19 H19        157.4797 114.2024 144.5653 H              1 RES1               0.0000
     20 H20        159.1824 114.4522 145.9339 H              1 RES1               0.0000
     21 H21        156.5371 113.9002 149.2561 H              1 RES1               0.0000
     22 H22        154.9596 111.1825 146.8392 H              1 RES1               0.0000
     23 H23        153.5055 114.8118 147.9400 H              1 RES1               0.0000
     24 H24        155.8204 115.5966 143.3738 H              1 RES1               0.0000
     25 H25        155.0334 114.1937 144.0930 H              1 RES1               0.0000
     26 H26        154.8775 115.7766 144.8515 H              1 RES1               0.0000
     27 H27        161.0938 114.4839 147.4735 H              1 RES1               0.0000
     28 H28        158.4575 113.9335 150.7791 H              1 RES1               0.0000
     29 H29        160.7412 114.2257 149.8995 H              1 RES1               0.0000
@<TRIPOS>BOND
    1    1    2 1     
    2    1    3 1     
    3    1    4 1     
    4    1    5 1     
    5    2    6 ar    
    6    2    7 ar    
    7    3    8 1     
    8    3    9 2     
    9    4   10 1     
   10    4   11 2     
   11    5   12 1     
   12    5   18 1     
   13    5   19 1     
   14    6   13 ar    
   15    6   20 1     
   16    7   14 ar    
   17    7   21 1     
   18    8   15 1     
   19    8   22 1     
   20   10   15 1     
   21   10   23 1     
   22   12   24 1     
   23   12   25 1     
   24   12   26 1     
   25   13   16 ar    
   26   13   27 1     
   27   14   16 ar    
   28   14   28 1     
   29   15   17 2     
   30   16   29 1     
@<TRIPOS>SUBSTRUCTURE
      1 RES1           1
@<TRIPOS>SET
DONOR_HYDROGENS      STATIC     ATOMS    <user>   **** ""
2 22 23
ATOM$RED        STATIC     ATOMS    COLORGROUP SYSTEM
2 22 23
@<TRIPOS>COMMENT
> <Gold.Version>
2022.3.0

> <Gold.Id.Protein>
unknown|7xmr_clean|pdb

> <Gold.Protein.RotatedTorsions>
[ 2787 2778 2777 2775 ] final -148.85 input   60.01 | X-H torsion
[ 2586 2581 2580 2577 ] final -166.64 input   60.02 | X-H torsion
[ 4081 4070 4069 4066 ] final  154.40 input   60.03 | X-H torsion
[ 2565 2560 2559 2556 ] final -174.25 input   59.98 | X-H torsion
[ 4125 4108 4107 4104 ] final -116.28 input   60.01 | X-H torsion
[ 4210 4205 4204 4201 ] final   65.02 input   60.02 | X-H torsion
[ 4185 4180 4179 4176 ] final  -92.74 input   59.98 | X-H torsion
[ 4064 4059 4058 4055 ] final  -60.25 input   60.03 | X-H torsion
[ 4290 4279 4278 4277 ] final  122.10 input   59.98 | X-H torsion
[ 2901 2893 2892 2889 ] final   83.96 input   60.03 | X-H torsion
[ 3984 3975 3974 3972 ] final  105.15 input   59.97 | X-H torsion
[ 4508 4487 4486 4484 ] final   74.61 input   60.01 | X-H torsion
[  215  214  213  211 ] final  143.79 input   59.98 | X-H torsion
[ 4472 4467 4466 4463 ] final -135.02 input   60.02 | X-H torsion
[ 2798 2793 2792 2789 ] final  -15.07 input   60.00 | X-H torsion

> <Gold.Protein.ActiveResidues>
 ASP39   ASN43   TYR50   PHE92   GLY95   LEU96   LEU99   GLN102  VAL103  LEU105 
 VAL106  HIS107  TRP108  CYS115  VAL118  MET119  VAL121  ASP122  GLY123  ILE124 
 ASN125  GLN126  PHE127  ILE130  ILE174  PRO176  ILE177  TYR180  LEU183  ARG184 
 SER185  ASN186  GLN187  TRP188  ARG190  SER191  SER192  CYS193  THR194  ILE195 
 ASN196  TRP197  PRO198  GLY199  GLU200  SER201  GLY202  ALA203  TRP204  TYR205 
 THR206  GLY207  PHE208  ILE209  ILE210  TYR211  THR212  PHE213  LEU215  GLY216 
 PHE217  TRP269  PHE272  TYR273  PHE275  ASN276  VAL277  SER278  SER279  VAL280 
 SER281  MET282  ALA283  ILE284  SER285  PRO286  THR287  PRO288  ALA289  LEU290 
 LYS291  GLY292  MET293  PHE294  ASP295  VAL297  VAL298  VAL299  THR301  TYR302 

> <Gold.Protein.RotatedAtoms>
  147.4401  118.4101  147.5995 H   0  0  0  0  0  0  0  0  0  0  0  0  # atno 215  bound_to 214 
  153.0255  108.3689  141.4805 H   0  0  0  0  0  0  0  0  0  0  0  0  # atno 2565 bound_to 2560
  154.7321  111.8634  137.7012 H   0  0  0  0  0  0  0  0  0  0  0  0  # atno 2586 bound_to 2581
  159.7148  110.4991  134.2312 H   0  0  0  0  0  0  0  0  0  0  0  0  # atno 2787 bound_to 2778
  165.0914  121.9961  133.9475 H   0  0  0  0  0  0  0  0  0  0  0  0  # atno 2798 bound_to 2793
  152.8950  124.8432  132.9901 H   0  0  0  0  0  0  0  0  0  0  0  0  # atno 2901 bound_to 2893
  152.2740  126.1684  136.2569 H   0  0  0  0  0  0  0  0  0  0  0  0  # atno 3984 bound_to 3975
  161.9897  123.3748  144.3423 H   0  0  0  0  0  0  0  0  0  0  0  0  # atno 4064 bound_to 4059
  159.9308  117.4825  142.0772 H   0  0  0  0  0  0  0  0  0  0  0  0  # atno 4081 bound_to 4070
  165.9082  122.3189  140.9373 H   0  0  0  0  0  0  0  0  0  0  0  0  # atno 4125 bound_to 4108
  166.7333  113.7412  151.6697 H   0  0  0  0  0  0  0  0  0  0  0  0  # atno 4185 bound_to 4180
  162.1767  113.8222  152.5786 H   0  0  0  0  0  0  0  0  0  0  0  0  # atno 4210 bound_to 4205
  150.6964  110.7647  149.0349 H   0  0  0  0  0  0  0  0  0  0  0  0  # atno 4290 bound_to 4279
  150.2407  112.3437  149.2545 H   0  0  0  0  0  0  0  0  0  0  0  0  # atno 4291 bound_to 4279
  151.8286  111.9718  148.9577 H   0  0  0  0  0  0  0  0  0  0  0  0  # atno 4292 bound_to 4279
  149.3401  126.0211  142.8010 H   0  0  0  0  0  0  0  0  0  0  0  0  # atno 4472 bound_to 4467
  143.3977  118.9167  141.0221 H   0  0  0  0  0  0  0  0  0  0  0  0  # atno 4508 bound_to 4487
  161.0826  110.0003  134.9592 LP  0  0  0  0  0  0  0  0  0  0  0  0  # atno 12998 bound_to 2778
  160.9952  110.0552  133.3295 LP  0  0  0  0  0  0  0  0  0  0  0  0  # atno 12999 bound_to 2778
  153.2303  112.4886  137.6431 LP  0  0  0  0  0  0  0  0  0  0  0  0  # atno 13010 bound_to 2581
  153.9935  112.0611  136.2642 LP  0  0  0  0  0  0  0  0  0  0  0  0  # atno 13011 bound_to 2581
  161.3319  117.7863  141.3070 LP  0  0  0  0  0  0  0  0  0  0  0  0  # atno 13012 bound_to 4070
  160.3431  119.0170  141.7249 LP  0  0  0  0  0  0  0  0  0  0  0  0  # atno 13013 bound_to 4070
  151.4115  108.4431  141.2861 LP  0  0  0  0  0  0  0  0  0  0  0  0  # atno 13016 bound_to 2560
  152.3650  107.9697  140.0478 LP  0  0  0  0  0  0  0  0  0  0  0  0  # atno 13017 bound_to 2560
  167.2814  122.0596  141.7712 LP  0  0  0  0  0  0  0  0  0  0  0  0  # atno 13032 bound_to 4108
  166.2201  120.8402  141.5409 LP  0  0  0  0  0  0  0  0  0  0  0  0  # atno 13033 bound_to 4108
  162.5464  113.0005  153.9336 LP  0  0  0  0  0  0  0  0  0  0  0  0  # atno 13042 bound_to 4205
  162.7033  114.6254  153.8923 LP  0  0  0  0  0  0  0  0  0  0  0  0  # atno 13043 bound_to 4205
  165.9279  113.0399  152.8980 LP  0  0  0  0  0  0  0  0  0  0  0  0  # atno 13048 bound_to 4180
  165.1084  113.8212  151.7213 LP  0  0  0  0  0  0  0  0  0  0  0  0  # atno 13049 bound_to 4180
  162.4108  123.2566  145.9094 LP  0  0  0  0  0  0  0  0  0  0  0  0  # atno 13052 bound_to 4059
  162.1767  121.9074  145.0198 LP  0  0  0  0  0  0  0  0  0  0  0  0  # atno 13053 bound_to 4059
  153.8379  125.7759  133.9327 LP  0  0  0  0  0  0  0  0  0  0  0  0  # atno 13090 bound_to 2893
  153.4946  124.2429  134.3786 LP  0  0  0  0  0  0  0  0  0  0  0  0  # atno 13091 bound_to 2893
  153.4516  126.6297  135.2325 LP  0  0  0  0  0  0  0  0  0  0  0  0  # atno 13098 bound_to 3975
  152.4583  127.7442  135.8942 LP  0  0  0  0  0  0  0  0  0  0  0  0  # atno 13099 bound_to 3975
  144.3018  119.9576  140.1574 LP  0  0  0  0  0  0  0  0  0  0  0  0  # atno 13102 bound_to 4487
  142.6889  119.8764  139.9152 LP  0  0  0  0  0  0  0  0  0  0  0  0  # atno 13103 bound_to 4487
  146.7046  118.9351  146.2464 LP  0  0  0  0  0  0  0  0  0  0  0  0  # atno 13112 bound_to 214 
  147.0393  117.3478  146.4340 LP  0  0  0  0  0  0  0  0  0  0  0  0  # atno 13113 bound_to 214 
  149.1021  125.1570  144.1591 LP  0  0  0  0  0  0  0  0  0  0  0  0  # atno 13120 bound_to 4467
  148.8797  126.7748  144.1676 LP  0  0  0  0  0  0  0  0  0  0  0  0  # atno 13121 bound_to 4467

> <Gold.Score>
     Fitness  S(hb_ext) S(vdw_ext)  S(hb_int)    S(int)      intcor
     33.62       6.18      20.36       0.00      -0.56      -0.78

> <Gold.Goldscore.Fitness>
33.6203

> <Gold.Goldscore.Internal.Vdw>
-0.7037

> <Gold.Goldscore.Internal.Torsion>
-0.6329

> <Gold.Goldscore.External.Vdw>
20.3626

> <Gold.Goldscore.Internal.HBond>
0.0000

> <Gold.Goldscore.External.HBond>
6.1784

> <Gold.Goldscore.Internal.Correction>
-0.7799

> <Gold.Goldscore.Hbonds>
donor molecule, donor type, donor heavy atom, donor atom, acceptor molecule, acceptor atom, score
      P1  H  4279  4292       L1    17  1.00
      L1  H    10    23       P1  4350  0.03

> <Gold.Goldscore.Internal.Vdw.Weighted>
-0.7037

> <Gold.Goldscore.Internal.Torsion.Weighted>
-0.6329

> <Gold.Goldscore.External.Vdw.Weighted>
27.9986

> <Gold.Goldscore.Internal.HBond.Weighted>
0.0000

> <Gold.Goldscore.External.HBond.Weighted>
6.1784

> <Gold.Goldscore.Internal.Correction.Weighted>
-0.7799

> <Gold.Rescore>
     Score     S(PLP)   S(hbond)     S(cho)   S(metal)  DE(clash)   DE(tors)     intcor
     32.11     -29.16       1.00       0.00       0.00       0.00       0.03       ----

> <Gold.PLP.Fitness>
32.1079

> <Gold.PLP.PLP>
-29.1590

> <Gold.PLP.part.hbond>
-1.0000

> <Gold.PLP.part.metal>
0.0000

> <Gold.PLP.part.buried>
3.4593

> <Gold.PLP.part.nonpolar>
-34.0477

> <Gold.PLP.part.repulsive>
1.2012

> <Gold.PLP.ligand.clash>
0.0000

> <Gold.PLP.ligand.torsion>
0.0255

> <Gold.PLP.Chemscore.Hbond>
1.0000

> <Gold.PLP.Chemscore.CHOScore>
0.0000

> <Gold.PLP.Chemscore.Metal>
0.0000

> <Gold.Chemscore.Hbonds>
donor molecule, donor type, donor heavy atom, donor atom, acceptor molecule, acceptor atom, score
      P1  H  4279  4292       L1    17  1.00

> <Gold.PLP.Chemscore.Internal.Correction>
   9.000000E+99

