#       Name:                CT1002167954
#       Creating user name   hitesit
#       Creation time:       Sun Apr 16 02:22:12 2023


#       File generated by GOLD software.
#

@<TRIPOS>MOLECULE
CT1002167954|ligand_prepared|mol2|1|dock8
    29    30     1
SMALL
NO_CHARGES


@<TRIPOS>ATOM
      1 C1         158.2076 114.1958 147.3710 C.3            1 RES1               0.0000
      2 C2         157.6771 115.0060 146.1706 C.ar           1 RES1               0.0000
      3 C3         158.6364 112.8402 146.8170 C.2            1 RES1               0.0000
      4 C4         159.3482 115.0134 147.9669 C.2            1 RES1               0.0000
      5 C5         157.1563 113.9625 148.4810 C.3            1 RES1               0.0000
      6 C6         156.3281 114.9681 145.8308 C.ar           1 RES1               0.0000
      7 C7         158.5225 115.7966 145.3968 C.ar           1 RES1               0.0000
      8 N8         159.9738 112.5973 146.7065 N.am           1 RES1               0.0000
      9 O9         157.8135 112.0124 146.4458 O.2            1 RES1               0.0000
     10 N10        160.6140 114.4926 147.9014 N.am           1 RES1               0.0000
     11 O11        159.1646 116.1114 148.4777 O.2            1 RES1               0.0000
     12 C12        157.7389 113.4037 149.7696 C.3            1 RES1               0.0000
     13 C13        155.8413 115.6965 144.7580 C.ar           1 RES1               0.0000
     14 C14        158.0336 116.5240 144.3242 C.ar           1 RES1               0.0000
     15 C15        160.9828 113.3356 147.2708 C.2            1 RES1               0.0000
     16 C16        156.6935 116.4751 144.0044 C.ar           1 RES1               0.0000
     17 O17        162.1500 112.9604 147.2076 O.2            1 RES1               0.0000
     18 H18        156.6590 114.9149 148.7021 H              1 RES1               0.0000
     19 H19        156.3958 113.2663 148.1063 H              1 RES1               0.0000
     20 H20        155.6427 114.3590 146.4108 H              1 RES1               0.0000
     21 H21        159.5807 115.8494 145.6293 H              1 RES1               0.0000
     22 H22        160.2492 111.7922 146.1531 H              1 RES1               0.0000
     23 H23        161.3494 115.0158 148.3658 H              1 RES1               0.0000
     24 H24        156.9592 113.2590 150.5144 H              1 RES1               0.0000
     25 H25        158.2196 112.4440 149.5913 H              1 RES1               0.0000
     26 H26        158.4813 114.0829 150.1836 H              1 RES1               0.0000
     27 H27        154.7859 115.6535 144.5096 H              1 RES1               0.0000
     28 H28        158.7081 117.1350 143.7335 H              1 RES1               0.0000
     29 H29        156.3118 117.0459 143.1643 H              1 RES1               0.0000
@<TRIPOS>BOND
    1    1    2 1     
    2    1    3 1     
    3    1    4 1     
    4    1    5 1     
    5    2    6 ar    
    6    2    7 ar    
    7    3    8 1     
    8    3    9 2     
    9    4   10 1     
   10    4   11 2     
   11    5   12 1     
   12    5   18 1     
   13    5   19 1     
   14    6   13 ar    
   15    6   20 1     
   16    7   14 ar    
   17    7   21 1     
   18    8   15 1     
   19    8   22 1     
   20   10   15 1     
   21   10   23 1     
   22   12   24 1     
   23   12   25 1     
   24   12   26 1     
   25   13   16 ar    
   26   13   27 1     
   27   14   16 ar    
   28   14   28 1     
   29   15   17 2     
   30   16   29 1     
@<TRIPOS>SUBSTRUCTURE
      1 RES1           1
@<TRIPOS>SET
DONOR_HYDROGENS      STATIC     ATOMS    <user>   **** ""
2 22 23
ATOM$RED        STATIC     ATOMS    COLORGROUP SYSTEM
2 22 23
@<TRIPOS>COMMENT
> <Gold.Version>
2022.3.0

> <Gold.Id.Protein>
unknown|7xmr_clean|pdb

> <Gold.Protein.RotatedTorsions>
[ 2787 2778 2777 2775 ] final -128.75 input   60.01 | X-H torsion
[ 2586 2581 2580 2577 ] final   61.16 input   60.02 | X-H torsion
[ 4081 4070 4069 4066 ] final   51.50 input   60.03 | X-H torsion
[ 2565 2560 2559 2556 ] final -135.79 input   59.98 | X-H torsion
[ 4125 4108 4107 4104 ] final   81.49 input   60.01 | X-H torsion
[ 4210 4205 4204 4201 ] final -117.45 input   60.02 | X-H torsion
[ 4185 4180 4179 4176 ] final  130.45 input   59.98 | X-H torsion
[ 4064 4059 4058 4055 ] final  -39.92 input   60.03 | X-H torsion
[ 4290 4279 4278 4277 ] final -141.63 input   59.98 | X-H torsion
[ 2901 2893 2892 2889 ] final  111.73 input   60.03 | X-H torsion
[ 3984 3975 3974 3972 ] final  164.94 input   59.97 | X-H torsion
[ 4508 4487 4486 4484 ] final -162.57 input   60.01 | X-H torsion
[  215  214  213  211 ] final  -92.48 input   59.98 | X-H torsion
[ 4472 4467 4466 4463 ] final  123.40 input   60.02 | X-H torsion
[ 2798 2793 2792 2789 ] final   41.83 input   60.00 | X-H torsion

> <Gold.Protein.ActiveResidues>
 ASP39   ASN43   TYR50   PHE92   GLY95   LEU96   LEU99   GLN102  VAL103  LEU105 
 VAL106  HIS107  TRP108  CYS115  VAL118  MET119  VAL121  ASP122  GLY123  ILE124 
 ASN125  GLN126  PHE127  ILE130  ILE174  PRO176  ILE177  TYR180  LEU183  ARG184 
 SER185  ASN186  GLN187  TRP188  ARG190  SER191  SER192  CYS193  THR194  ILE195 
 ASN196  TRP197  PRO198  GLY199  GLU200  SER201  GLY202  ALA203  TRP204  TYR205 
 THR206  GLY207  PHE208  ILE209  ILE210  TYR211  THR212  PHE213  LEU215  GLY216 
 PHE217  TRP269  PHE272  TYR273  PHE275  ASN276  VAL277  SER278  SER279  VAL280 
 SER281  MET282  ALA283  ILE284  SER285  PRO286  THR287  PRO288  ALA289  LEU290 
 LYS291  GLY292  MET293  PHE294  ASP295  VAL297  VAL298  VAL299  THR301  TYR302 

> <Gold.Protein.RotatedAtoms>
  147.0096  117.3752  146.3875 H   0  0  0  0  0  0  0  0  0  0  0  0  # atno 215  bound_to 214 
  153.2014  108.1763  140.9215 H   0  0  0  0  0  0  0  0  0  0  0  0  # atno 2565 bound_to 2560
  153.1610  112.5003  137.4561 H   0  0  0  0  0  0  0  0  0  0  0  0  # atno 2586 bound_to 2581
  159.7512  110.4910  133.9065 H   0  0  0  0  0  0  0  0  0  0  0  0  # atno 2787 bound_to 2778
  165.1710  121.7088  134.7876 H   0  0  0  0  0  0  0  0  0  0  0  0  # atno 2798 bound_to 2793
  152.8625  124.4464  133.1984 H   0  0  0  0  0  0  0  0  0  0  0  0  # atno 2901 bound_to 2893
  152.0073  127.0574  136.3563 H   0  0  0  0  0  0  0  0  0  0  0  0  # atno 3984 bound_to 3975
  161.9558  123.0734  144.2116 H   0  0  0  0  0  0  0  0  0  0  0  0  # atno 4064 bound_to 4059
  161.2221  117.5427  141.3887 H   0  0  0  0  0  0  0  0  0  0  0  0  # atno 4081 bound_to 4070
  167.1896  121.4031  141.9081 H   0  0  0  0  0  0  0  0  0  0  0  0  # atno 4125 bound_to 4108
  165.6572  113.0751  152.8664 H   0  0  0  0  0  0  0  0  0  0  0  0  # atno 4185 bound_to 4180
  162.7729  113.8503  154.3530 H   0  0  0  0  0  0  0  0  0  0  0  0  # atno 4210 bound_to 4205
  150.0353  112.0076  149.2579 H   0  0  0  0  0  0  0  0  0  0  0  0  # atno 4290 bound_to 4279
  151.6469  112.3156  149.0194 H   0  0  0  0  0  0  0  0  0  0  0  0  # atno 4291 bound_to 4279
  151.0837  110.7574  148.9697 H   0  0  0  0  0  0  0  0  0  0  0  0  # atno 4292 bound_to 4279
  149.1845  125.0684  143.8837 H   0  0  0  0  0  0  0  0  0  0  0  0  # atno 4472 bound_to 4467
  142.7201  119.9056  139.8963 H   0  0  0  0  0  0  0  0  0  0  0  0  # atno 4508 bound_to 4487
  160.7977  110.0996  135.0903 LP  0  0  0  0  0  0  0  0  0  0  0  0  # atno 12998 bound_to 2778
  161.2434  109.9641  133.5252 LP  0  0  0  0  0  0  0  0  0  0  0  0  # atno 12999 bound_to 2778
  154.1772  111.9866  136.2928 LP  0  0  0  0  0  0  0  0  0  0  0  0  # atno 13010 bound_to 2581
  154.6277  111.9220  137.8611 LP  0  0  0  0  0  0  0  0  0  0  0  0  # atno 13011 bound_to 2581
  160.5902  119.0285  141.5931 LP  0  0  0  0  0  0  0  0  0  0  0  0  # atno 13012 bound_to 4070
  159.7846  117.7143  142.1321 LP  0  0  0  0  0  0  0  0  0  0  0  0  # atno 13013 bound_to 4070
  151.8368  108.5483  141.7263 LP  0  0  0  0  0  0  0  0  0  0  0  0  # atno 13016 bound_to 2560
  151.7626  108.0585  140.1703 LP  0  0  0  0  0  0  0  0  0  0  0  0  # atno 13017 bound_to 2560
  165.7497  121.1764  141.1845 LP  0  0  0  0  0  0  0  0  0  0  0  0  # atno 13032 bound_to 4108
  166.4616  122.6456  141.1501 LP  0  0  0  0  0  0  0  0  0  0  0  0  # atno 13033 bound_to 4108
  162.3919  114.6107  152.9657 LP  0  0  0  0  0  0  0  0  0  0  0  0  # atno 13042 bound_to 4205
  162.2575  112.9869  153.0736 LP  0  0  0  0  0  0  0  0  0  0  0  0  # atno 13043 bound_to 4205
  165.2788  113.9267  151.5319 LP  0  0  0  0  0  0  0  0  0  0  0  0  # atno 13048 bound_to 4180
  166.8408  113.6050  151.8828 LP  0  0  0  0  0  0  0  0  0  0  0  0  # atno 13049 bound_to 4180
  162.3589  123.5262  145.7215 LP  0  0  0  0  0  0  0  0  0  0  0  0  # atno 13052 bound_to 4059
  162.2628  121.9415  145.3394 LP  0  0  0  0  0  0  0  0  0  0  0  0  # atno 13053 bound_to 4059
  153.6257  125.8427  133.5387 LP  0  0  0  0  0  0  0  0  0  0  0  0  # atno 13090 bound_to 2893
  153.7397  124.5759  134.5628 LP  0  0  0  0  0  0  0  0  0  0  0  0  # atno 13091 bound_to 2893
  152.9971  125.9484  135.6936 LP  0  0  0  0  0  0  0  0  0  0  0  0  # atno 13098 bound_to 3975
  153.1813  127.5305  135.3332 LP  0  0  0  0  0  0  0  0  0  0  0  0  # atno 13099 bound_to 3975
  143.3520  118.9087  141.0168 LP  0  0  0  0  0  0  0  0  0  0  0  0  # atno 13102 bound_to 4487
  144.3208  119.9299  140.1890 LP  0  0  0  0  0  0  0  0  0  0  0  0  # atno 13103 bound_to 4487
  147.4569  118.3517  147.6097 LP  0  0  0  0  0  0  0  0  0  0  0  0  # atno 13112 bound_to 214 
  146.7206  118.9736  146.2914 LP  0  0  0  0  0  0  0  0  0  0  0  0  # atno 13113 bound_to 214 
  148.8473  126.5767  144.3928 LP  0  0  0  0  0  0  0  0  0  0  0  0  # atno 13120 bound_to 4467
  149.2912  126.3149  142.8432 LP  0  0  0  0  0  0  0  0  0  0  0  0  # atno 13121 bound_to 4467

> <Gold.Score>
     Fitness  S(hb_ext) S(vdw_ext)  S(hb_int)    S(int)      intcor
     29.08       0.00      21.61       0.00      -0.62      -0.76

> <Gold.Goldscore.Fitness>
29.0833

> <Gold.Goldscore.Internal.Vdw>
-0.8282

> <Gold.Goldscore.Internal.Torsion>
-0.5545

> <Gold.Goldscore.External.Vdw>
21.6054

> <Gold.Goldscore.Internal.HBond>
0.0000

> <Gold.Goldscore.External.HBond>
0.0000

> <Gold.Goldscore.Internal.Correction>
-0.7585

> <Gold.Goldscore.Internal.Vdw.Weighted>
-0.8282

> <Gold.Goldscore.Internal.Torsion.Weighted>
-0.5545

> <Gold.Goldscore.External.Vdw.Weighted>
29.7074

> <Gold.Goldscore.Internal.HBond.Weighted>
0.0000

> <Gold.Goldscore.External.HBond.Weighted>
0.0000

> <Gold.Goldscore.Internal.Correction.Weighted>
-0.7585

> <Gold.Rescore>
     Score     S(PLP)   S(hbond)     S(cho)   S(metal)  DE(clash)   DE(tors)     intcor
     30.37     -32.17       0.00       0.00       0.00       1.41       0.19       ----

> <Gold.PLP.Fitness>
30.3730

> <Gold.PLP.PLP>
-32.1666

> <Gold.PLP.part.hbond>
0.0000

> <Gold.PLP.part.metal>
0.0000

> <Gold.PLP.part.buried>
-2.1790

> <Gold.PLP.part.nonpolar>
-30.7614

> <Gold.PLP.part.repulsive>
0.1577

> <Gold.PLP.ligand.clash>
1.4114

> <Gold.PLP.ligand.torsion>
0.1911

> <Gold.PLP.Chemscore.Hbond>
0.0000

> <Gold.PLP.Chemscore.CHOScore>
0.0000

> <Gold.PLP.Chemscore.Metal>
0.0000

> <Gold.PLP.Chemscore.Internal.Correction>
   9.000000E+99

