#       Name:                CT1002167954
#       Creating user name   hitesit
#       Creation time:       Sun Apr 16 02:22:06 2023


#       File generated by GOLD software.
#

@<TRIPOS>MOLECULE
CT1002167954|ligand_prepared|mol2|1|dock3
    29    30     1
SMALL
NO_CHARGES


@<TRIPOS>ATOM
      1 C1         156.7084 116.0112 137.3202 C.3            1 RES1               0.0000
      2 C2         156.7130 116.5427 138.7681 C.ar           1 RES1               0.0000
      3 C3         158.0838 115.3935 137.0862 C.2            1 RES1               0.0000
      4 C4         155.5567 115.0157 137.2349 C.2            1 RES1               0.0000
      5 C5         156.4736 117.1060 136.2535 C.3            1 RES1               0.0000
      6 C6         157.2710 117.7823 139.0661 C.ar           1 RES1               0.0000
      7 C7         156.1617 115.8074 139.8140 C.ar           1 RES1               0.0000
      8 N8         158.1677 114.0327 137.0510 N.am           1 RES1               0.0000
      9 O9         159.0859 116.0888 136.9737 O.2            1 RES1               0.0000
     10 N10        155.8619 113.6978 137.0168 N.am           1 RES1               0.0000
     11 O11        154.3886 115.3583 137.3711 O.2            1 RES1               0.0000
     12 C12        156.2275 116.5581 134.8566 C.3            1 RES1               0.0000
     13 C13        157.2751 118.2705 140.3622 C.ar           1 RES1               0.0000
     14 C14        156.1671 116.2974 141.1095 C.ar           1 RES1               0.0000
     15 C15        157.1169 113.1565 136.9517 C.2            1 RES1               0.0000
     16 C16        156.7228 117.5287 141.3846 C.ar           1 RES1               0.0000
     17 O17        157.3110 111.9528 136.8078 O.2            1 RES1               0.0000
     18 H18        155.6090 117.7111 136.5529 H              1 RES1               0.0000
     19 H19        157.3503 117.7649 136.2249 H              1 RES1               0.0000
     20 H20        157.7124 118.3792 138.2749 H              1 RES1               0.0000
     21 H21        155.7200 114.8356 139.6212 H              1 RES1               0.0000
     22 H22        159.0976 113.6293 137.1036 H              1 RES1               0.0000
     23 H23        155.0813 113.0612 136.8913 H              1 RES1               0.0000
     24 H24        156.0689 117.3677 134.1472 H              1 RES1               0.0000
     25 H25        157.0786 115.9716 134.5167 H              1 RES1               0.0000
     26 H26        155.3477 115.9182 134.8427 H              1 RES1               0.0000
     27 H27        157.7149 119.2396 140.5737 H              1 RES1               0.0000
     28 H28        155.7318 115.7099 141.9112 H              1 RES1               0.0000
     29 H29        156.7258 117.9116 142.3998 H              1 RES1               0.0000
@<TRIPOS>BOND
    1    1    2 1     
    2    1    3 1     
    3    1    4 1     
    4    1    5 1     
    5    2    6 ar    
    6    2    7 ar    
    7    3    8 1     
    8    3    9 2     
    9    4   10 1     
   10    4   11 2     
   11    5   12 1     
   12    5   18 1     
   13    5   19 1     
   14    6   13 ar    
   15    6   20 1     
   16    7   14 ar    
   17    7   21 1     
   18    8   15 1     
   19    8   22 1     
   20   10   15 1     
   21   10   23 1     
   22   12   24 1     
   23   12   25 1     
   24   12   26 1     
   25   13   16 ar    
   26   13   27 1     
   27   14   16 ar    
   28   14   28 1     
   29   15   17 2     
   30   16   29 1     
@<TRIPOS>SUBSTRUCTURE
      1 RES1           1
@<TRIPOS>SET
DONOR_HYDROGENS      STATIC     ATOMS    <user>   **** ""
2 22 23
ATOM$RED        STATIC     ATOMS    COLORGROUP SYSTEM
2 22 23
@<TRIPOS>COMMENT
> <Gold.Version>
2022.3.0

> <Gold.Id.Protein>
unknown|7xmr_clean|pdb

> <Gold.Protein.RotatedTorsions>
[ 2787 2778 2777 2775 ] final -163.36 input   60.01 | X-H torsion
[ 2586 2581 2580 2577 ] final   83.05 input   60.02 | X-H torsion
[ 4081 4070 4069 4066 ] final -154.93 input   60.03 | X-H torsion
[ 2565 2560 2559 2556 ] final  -91.73 input   59.98 | X-H torsion
[ 4125 4108 4107 4104 ] final  -18.63 input   60.01 | X-H torsion
[ 4210 4205 4204 4201 ] final  127.59 input   60.02 | X-H torsion
[ 4185 4180 4179 4176 ] final  -20.11 input   59.98 | X-H torsion
[ 4064 4059 4058 4055 ] final -107.29 input   60.03 | X-H torsion
[ 4290 4279 4278 4277 ] final  144.31 input   59.98 | X-H torsion
[ 2901 2893 2892 2889 ] final  -82.05 input   60.03 | X-H torsion
[ 3984 3975 3974 3972 ] final  -25.97 input   59.97 | X-H torsion
[ 4508 4487 4486 4484 ] final   78.72 input   60.01 | X-H torsion
[  215  214  213  211 ] final -121.64 input   59.98 | X-H torsion
[ 4472 4467 4466 4463 ] final   34.55 input   60.02 | X-H torsion
[ 2798 2793 2792 2789 ] final -103.33 input   60.00 | X-H torsion

> <Gold.Protein.ActiveResidues>
 ASP39   ASN43   TYR50   PHE92   GLY95   LEU96   LEU99   GLN102  VAL103  LEU105 
 VAL106  HIS107  TRP108  CYS115  VAL118  MET119  VAL121  ASP122  GLY123  ILE124 
 ASN125  GLN126  PHE127  ILE130  ILE174  PRO176  ILE177  TYR180  LEU183  ARG184 
 SER185  ASN186  GLN187  TRP188  ARG190  SER191  SER192  CYS193  THR194  ILE195 
 ASN196  TRP197  PRO198  GLY199  GLU200  SER201  GLY202  ALA203  TRP204  TYR205 
 THR206  GLY207  PHE208  ILE209  ILE210  TYR211  THR212  PHE213  LEU215  GLY216 
 PHE217  TRP269  PHE272  TYR273  PHE275  ASN276  VAL277  SER278  SER279  VAL280 
 SER281  MET282  ALA283  ILE284  SER285  PRO286  THR287  PRO288  ALA289  LEU290 
 LYS291  GLY292  MET293  PHE294  ASP295  VAL297  VAL298  VAL299  THR301  TYR302 

> <Gold.Protein.RotatedAtoms>
  147.2218  117.3100  146.8033 H   0  0  0  0  0  0  0  0  0  0  0  0  # atno 215  bound_to 214 
  152.9095  108.0043  140.3063 H   0  0  0  0  0  0  0  0  0  0  0  0  # atno 2565 bound_to 2560
  153.3168  112.4603  137.7732 H   0  0  0  0  0  0  0  0  0  0  0  0  # atno 2586 bound_to 2581
  159.7555  110.4813  134.4636 H   0  0  0  0  0  0  0  0  0  0  0  0  # atno 2787 bound_to 2778
  166.2661  121.9055  133.3914 H   0  0  0  0  0  0  0  0  0  0  0  0  # atno 2798 bound_to 2793
  153.9551  125.2726  134.4544 H   0  0  0  0  0  0  0  0  0  0  0  0  # atno 2901 bound_to 2893
  153.4556  126.8102  135.2083 H   0  0  0  0  0  0  0  0  0  0  0  0  # atno 3984 bound_to 3975
  162.1527  123.7728  144.9531 H   0  0  0  0  0  0  0  0  0  0  0  0  # atno 4064 bound_to 4059
  159.7133  118.2523  142.1264 H   0  0  0  0  0  0  0  0  0  0  0  0  # atno 4081 bound_to 4070
  165.9410  120.9705  141.3465 H   0  0  0  0  0  0  0  0  0  0  0  0  # atno 4125 bound_to 4108
  165.7176  114.0231  151.3236 H   0  0  0  0  0  0  0  0  0  0  0  0  # atno 4185 bound_to 4180
  162.4163  114.6459  153.0366 H   0  0  0  0  0  0  0  0  0  0  0  0  # atno 4210 bound_to 4205
  150.3666  110.9145  149.1031 H   0  0  0  0  0  0  0  0  0  0  0  0  # atno 4290 bound_to 4279
  150.5386  112.5590  149.2249 H   0  0  0  0  0  0  0  0  0  0  0  0  # atno 4291 bound_to 4279
  151.8605  111.6068  148.9190 H   0  0  0  0  0  0  0  0  0  0  0  0  # atno 4292 bound_to 4279
  148.8537  126.1158  144.5982 H   0  0  0  0  0  0  0  0  0  0  0  0  # atno 4472 bound_to 4467
  143.3317  118.9151  141.0105 H   0  0  0  0  0  0  0  0  0  0  0  0  # atno 4508 bound_to 4487
  161.2532  109.9419  134.8036 LP  0  0  0  0  0  0  0  0  0  0  0  0  # atno 12998 bound_to 2778
  160.7837  110.1316  133.2511 LP  0  0  0  0  0  0  0  0  0  0  0  0  # atno 12999 bound_to 2778
  153.8470  112.1229  136.2716 LP  0  0  0  0  0  0  0  0  0  0  0  0  # atno 13010 bound_to 2581
  154.8012  111.8261  137.5631 LP  0  0  0  0  0  0  0  0  0  0  0  0  # atno 13011 bound_to 2581
  160.8530  117.2118  141.6097 LP  0  0  0  0  0  0  0  0  0  0  0  0  # atno 13012 bound_to 4070
  161.0409  118.8165  141.3728 LP  0  0  0  0  0  0  0  0  0  0  0  0  # atno 13013 bound_to 4070
  152.5387  108.5158  141.8060 LP  0  0  0  0  0  0  0  0  0  0  0  0  # atno 13016 bound_to 2560
  151.3546  108.2641  140.7100 LP  0  0  0  0  0  0  0  0  0  0  0  0  # atno 13017 bound_to 2560
  166.1786  122.5475  141.0228 LP  0  0  0  0  0  0  0  0  0  0  0  0  # atno 13032 bound_to 4108
  167.2899  121.7100  141.8773 LP  0  0  0  0  0  0  0  0  0  0  0  0  # atno 13033 bound_to 4108
  162.2387  113.0287  153.0044 LP  0  0  0  0  0  0  0  0  0  0  0  0  # atno 13042 bound_to 4205
  162.7697  113.7678  154.3603 LP  0  0  0  0  0  0  0  0  0  0  0  0  # atno 13043 bound_to 4205
  166.8243  113.3451  152.3059 LP  0  0  0  0  0  0  0  0  0  0  0  0  # atno 13048 bound_to 4180
  165.2345  113.2324  152.6618 LP  0  0  0  0  0  0  0  0  0  0  0  0  # atno 13049 bound_to 4180
  162.4213  122.5046  145.9363 LP  0  0  0  0  0  0  0  0  0  0  0  0  # atno 13052 bound_to 4059
  162.0019  122.2585  144.3774 LP  0  0  0  0  0  0  0  0  0  0  0  0  # atno 13053 bound_to 4059
  153.0741  124.0726  133.7977 LP  0  0  0  0  0  0  0  0  0  0  0  0  # atno 13090 bound_to 2893
  153.1905  125.5136  133.0384 LP  0  0  0  0  0  0  0  0  0  0  0  0  # atno 13091 bound_to 2893
  152.3317  127.6755  136.0066 LP  0  0  0  0  0  0  0  0  0  0  0  0  # atno 13098 bound_to 3975
  152.3887  126.0523  136.1758 LP  0  0  0  0  0  0  0  0  0  0  0  0  # atno 13099 bound_to 3975
  144.3289  119.9167  140.2038 LP  0  0  0  0  0  0  0  0  0  0  0  0  # atno 13102 bound_to 4487
  142.7283  119.9189  139.8805 LP  0  0  0  0  0  0  0  0  0  0  0  0  # atno 13103 bound_to 4487
  147.3251  118.7878  147.4763 LP  0  0  0  0  0  0  0  0  0  0  0  0  # atno 13112 bound_to 214 
  146.6387  118.6031  146.0061 LP  0  0  0  0  0  0  0  0  0  0  0  0  # atno 13113 bound_to 214 
  149.1634  126.7195  143.1193 LP  0  0  0  0  0  0  0  0  0  0  0  0  # atno 13120 bound_to 4467
  149.3083  125.1169  143.3969 LP  0  0  0  0  0  0  0  0  0  0  0  0  # atno 13121 bound_to 4467

> <Gold.Score>
     Fitness  S(hb_ext) S(vdw_ext)  S(hb_int)    S(int)      intcor
     21.49       1.10      15.46       0.00      -0.87      -0.76

> <Gold.Goldscore.Fitness>
21.4902

> <Gold.Goldscore.Internal.Vdw>
-1.1122

> <Gold.Goldscore.Internal.Torsion>
-0.5225

> <Gold.Goldscore.External.Vdw>
15.4640

> <Gold.Goldscore.Internal.HBond>
0.0000

> <Gold.Goldscore.External.HBond>
1.0970

> <Gold.Goldscore.Internal.Correction>
-0.7650

> <Gold.Goldscore.Hbonds>
donor molecule, donor type, donor heavy atom, donor atom, acceptor molecule, acceptor atom, score
      L1  H    10    23       P1  2581  0.55

> <Gold.Goldscore.Internal.Vdw.Weighted>
-1.1122

> <Gold.Goldscore.Internal.Torsion.Weighted>
-0.5225

> <Gold.Goldscore.External.Vdw.Weighted>
21.2630

> <Gold.Goldscore.Internal.HBond.Weighted>
0.0000

> <Gold.Goldscore.External.HBond.Weighted>
1.0970

> <Gold.Goldscore.Internal.Correction.Weighted>
-0.7650

> <Gold.Rescore>
     Score     S(PLP)   S(hbond)     S(cho)   S(metal)  DE(clash)   DE(tors)     intcor
     24.08     -24.34       0.53       0.00       0.00       1.22       0.32       ----

> <Gold.PLP.Fitness>
24.0836

> <Gold.PLP.PLP>
-24.3434

> <Gold.PLP.part.hbond>
-1.7385

> <Gold.PLP.part.metal>
0.0000

> <Gold.PLP.part.buried>
-3.7551

> <Gold.PLP.part.nonpolar>
-18.9248

> <Gold.PLP.part.repulsive>
0.1186

> <Gold.PLP.ligand.clash>
1.2237

> <Gold.PLP.ligand.torsion>
0.3163

> <Gold.PLP.Chemscore.Hbond>
0.5322

> <Gold.PLP.Chemscore.CHOScore>
0.0000

> <Gold.PLP.Chemscore.Metal>
0.0000

> <Gold.Chemscore.Hbonds>
donor molecule, donor type, donor heavy atom, donor atom, acceptor molecule, acceptor atom, score
      L1  H    10    23       P1  2581  0.60

> <Gold.PLP.Chemscore.Internal.Correction>
   9.000000E+99

