#       Name:                CT1002167954
#       Creating user name   hitesit
#       Creation time:       Sun Apr 16 02:22:09 2023


#       File generated by GOLD software.
#

@<TRIPOS>MOLECULE
CT1002167954|ligand_prepared|mol2|1|dock5
    29    30     1
SMALL
NO_CHARGES


@<TRIPOS>ATOM
      1 C1         156.9879 114.7870 147.0025 C.3            1 RES1               0.0000
      2 C2         156.9953 115.6055 145.6953 C.ar           1 RES1               0.0000
      3 C3         155.7955 115.2858 147.8135 C.2            1 RES1               0.0000
      4 C4         156.8900 113.3229 146.5886 C.2            1 RES1               0.0000
      5 C5         158.2673 114.9583 147.8542 C.3            1 RES1               0.0000
      6 C6         158.0666 116.4386 145.3869 C.ar           1 RES1               0.0000
      7 C7         155.9412 115.5360 144.7883 C.ar           1 RES1               0.0000
      8 N8         154.7013 114.4755 147.8919 N.am           1 RES1               0.0000
      9 O9         155.8000 116.3902 148.3433 O.2            1 RES1               0.0000
     10 N10        155.7547 112.6344 146.9274 N.am           1 RES1               0.0000
     11 O11        157.7787 112.7639 145.9577 O.2            1 RES1               0.0000
     12 C12        158.2687 114.1330 149.1314 C.3            1 RES1               0.0000
     13 C13        158.0849 117.1733 144.2130 C.ar           1 RES1               0.0000
     14 C14        155.9615 116.2718 143.6149 C.ar           1 RES1               0.0000
     15 C15        154.6429 113.1527 147.5334 C.2            1 RES1               0.0000
     16 C16        157.0328 117.0901 143.3261 C.ar           1 RES1               0.0000
     17 O17        153.6386 112.4828 147.7563 O.2            1 RES1               0.0000
     18 H18        159.1358 114.6724 147.2481 H              1 RES1               0.0000
     19 H19        158.3767 116.0174 148.1182 H              1 RES1               0.0000
     20 H20        158.9025 116.5188 146.0739 H              1 RES1               0.0000
     21 H21        155.0875 114.8997 144.9952 H              1 RES1               0.0000
     22 H22        153.8476 114.8916 148.2501 H              1 RES1               0.0000
     23 H23        155.7369 111.6436 146.7075 H              1 RES1               0.0000
     24 H24        159.1883 114.2901 149.6911 H              1 RES1               0.0000
     25 H25        157.4321 114.4090 149.7699 H              1 RES1               0.0000
     26 H26        158.1867 113.0720 148.9050 H              1 RES1               0.0000
     27 H27        158.9298 117.8168 143.9909 H              1 RES1               0.0000
     28 H28        155.1309 116.2037 142.9201 H              1 RES1               0.0000
     29 H29        157.0475 117.6654 142.4063 H              1 RES1               0.0000
@<TRIPOS>BOND
    1    1    2 1     
    2    1    3 1     
    3    1    4 1     
    4    1    5 1     
    5    2    6 ar    
    6    2    7 ar    
    7    3    8 1     
    8    3    9 2     
    9    4   10 1     
   10    4   11 2     
   11    5   12 1     
   12    5   18 1     
   13    5   19 1     
   14    6   13 ar    
   15    6   20 1     
   16    7   14 ar    
   17    7   21 1     
   18    8   15 1     
   19    8   22 1     
   20   10   15 1     
   21   10   23 1     
   22   12   24 1     
   23   12   25 1     
   24   12   26 1     
   25   13   16 ar    
   26   13   27 1     
   27   14   16 ar    
   28   14   28 1     
   29   15   17 2     
   30   16   29 1     
@<TRIPOS>SUBSTRUCTURE
      1 RES1           1
@<TRIPOS>SET
DONOR_HYDROGENS      STATIC     ATOMS    <user>   **** ""
2 22 23
ATOM$RED        STATIC     ATOMS    COLORGROUP SYSTEM
2 22 23
@<TRIPOS>COMMENT
> <Gold.Version>
2022.3.0

> <Gold.Id.Protein>
unknown|7xmr_clean|pdb

> <Gold.Protein.RotatedTorsions>
[ 2787 2778 2777 2775 ] final  -42.70 input   60.01 | X-H torsion
[ 2586 2581 2580 2577 ] final   41.72 input   60.02 | X-H torsion
[ 4081 4070 4069 4066 ] final   56.55 input   60.03 | X-H torsion
[ 2565 2560 2559 2556 ] final   37.95 input   59.98 | X-H torsion
[ 4125 4108 4107 4104 ] final   34.75 input   60.01 | X-H torsion
[ 4210 4205 4204 4201 ] final  148.34 input   60.02 | X-H torsion
[ 4185 4180 4179 4176 ] final  -14.91 input   59.98 | X-H torsion
[ 4064 4059 4058 4055 ] final  166.79 input   60.03 | X-H torsion
[ 4290 4279 4278 4277 ] final  124.45 input   59.98 | X-H torsion
[ 2901 2893 2892 2889 ] final   63.58 input   60.03 | X-H torsion
[ 3984 3975 3974 3972 ] final -121.21 input   59.97 | X-H torsion
[ 4508 4487 4486 4484 ] final  -22.81 input   60.01 | X-H torsion
[  215  214  213  211 ] final -120.23 input   59.98 | X-H torsion
[ 4472 4467 4466 4463 ] final  111.11 input   60.02 | X-H torsion
[ 2798 2793 2792 2789 ] final   89.70 input   60.00 | X-H torsion

> <Gold.Protein.ActiveResidues>
 ASP39   ASN43   TYR50   PHE92   GLY95   LEU96   LEU99   GLN102  VAL103  LEU105 
 VAL106  HIS107  TRP108  CYS115  VAL118  MET119  VAL121  ASP122  GLY123  ILE124 
 ASN125  GLN126  PHE127  ILE130  ILE174  PRO176  ILE177  TYR180  LEU183  ARG184 
 SER185  ASN186  GLN187  TRP188  ARG190  SER191  SER192  CYS193  THR194  ILE195 
 ASN196  TRP197  PRO198  GLY199  GLU200  SER201  GLY202  ALA203  TRP204  TYR205 
 THR206  GLY207  PHE208  ILE209  ILE210  TYR211  THR212  PHE213  LEU215  GLY216 
 PHE217  TRP269  PHE272  TYR273  PHE275  ASN276  VAL277  SER278  SER279  VAL280 
 SER281  MET282  ALA283  ILE284  SER285  PRO286  THR287  PRO288  ALA289  LEU290 
 LYS291  GLY292  MET293  PHE294  ASP295  VAL297  VAL298  VAL299  THR301  TYR302 

> <Gold.Protein.RotatedAtoms>
  147.2120  117.3077  146.7825 H   0  0  0  0  0  0  0  0  0  0  0  0  # atno 215  bound_to 214 
  151.3373  108.3107  140.8608 H   0  0  0  0  0  0  0  0  0  0  0  0  # atno 2565 bound_to 2560
  153.1220  112.4919  137.1421 H   0  0  0  0  0  0  0  0  0  0  0  0  # atno 2586 bound_to 2581
  160.7930  110.1302  133.2594 H   0  0  0  0  0  0  0  0  0  0  0  0  # atno 2787 bound_to 2778
  165.7974  121.4549  135.1330 H   0  0  0  0  0  0  0  0  0  0  0  0  # atno 2798 bound_to 2793
  152.9957  125.1559  132.9496 H   0  0  0  0  0  0  0  0  0  0  0  0  # atno 2901 bound_to 2893
  152.6290  127.7764  135.7538 H   0  0  0  0  0  0  0  0  0  0  0  0  # atno 3984 bound_to 3975
  162.4301  123.0542  145.9698 H   0  0  0  0  0  0  0  0  0  0  0  0  # atno 4064 bound_to 4059
  161.1788  117.4785  141.4171 H   0  0  0  0  0  0  0  0  0  0  0  0  # atno 4081 bound_to 4070
  166.6656  120.8958  141.7670 H   0  0  0  0  0  0  0  0  0  0  0  0  # atno 4125 bound_to 4108
  165.6358  114.0152  151.3453 H   0  0  0  0  0  0  0  0  0  0  0  0  # atno 4185 bound_to 4180
  162.5279  114.7423  153.3398 H   0  0  0  0  0  0  0  0  0  0  0  0  # atno 4210 bound_to 4205
  150.6589  110.7743  149.0420 H   0  0  0  0  0  0  0  0  0  0  0  0  # atno 4290 bound_to 4279
  150.2681  112.3717  149.2525 H   0  0  0  0  0  0  0  0  0  0  0  0  # atno 4291 bound_to 4279
  151.8386  111.9342  148.9526 H   0  0  0  0  0  0  0  0  0  0  0  0  # atno 4292 bound_to 4279
  149.1286  125.1213  144.0687 H   0  0  0  0  0  0  0  0  0  0  0  0  # atno 4472 bound_to 4467
  144.3880  119.7158  140.4209 H   0  0  0  0  0  0  0  0  0  0  0  0  # atno 4508 bound_to 4487
  159.7463  110.4826  134.4552 LP  0  0  0  0  0  0  0  0  0  0  0  0  # atno 12998 bound_to 2778
  161.2462  109.9443  134.8117 LP  0  0  0  0  0  0  0  0  0  0  0  0  # atno 12999 bound_to 2778
  154.4491  111.8832  136.4224 LP  0  0  0  0  0  0  0  0  0  0  0  0  # atno 13010 bound_to 2581
  154.3950  112.0340  138.0475 LP  0  0  0  0  0  0  0  0  0  0  0  0  # atno 13011 bound_to 2581
  160.6633  119.0159  141.5555 LP  0  0  0  0  0  0  0  0  0  0  0  0  # atno 13012 bound_to 4070
  159.7552  117.7915  142.1410 LP  0  0  0  0  0  0  0  0  0  0  0  0  # atno 13013 bound_to 4070
  152.7899  107.9844  140.2037 LP  0  0  0  0  0  0  0  0  0  0  0  0  # atno 13016 bound_to 2560
  152.6862  108.4871  141.7540 LP  0  0  0  0  0  0  0  0  0  0  0  0  # atno 13017 bound_to 2560
  165.6681  121.8772  140.9363 LP  0  0  0  0  0  0  0  0  0  0  0  0  # atno 13032 bound_to 4108
  167.0707  122.4555  141.5404 LP  0  0  0  0  0  0  0  0  0  0  0  0  # atno 13033 bound_to 4108
  162.1823  113.2605  152.7628 LP  0  0  0  0  0  0  0  0  0  0  0  0  # atno 13042 bound_to 4205
  162.7138  113.4391  154.2965 LP  0  0  0  0  0  0  0  0  0  0  0  0  # atno 13043 bound_to 4205
  166.8458  113.3875  152.2348 LP  0  0  0  0  0  0  0  0  0  0  0  0  # atno 13048 bound_to 4180
  165.2953  113.1979  152.7110 LP  0  0  0  0  0  0  0  0  0  0  0  0  # atno 13049 bound_to 4180
  162.1221  121.9472  144.8179 LP  0  0  0  0  0  0  0  0  0  0  0  0  # atno 13052 bound_to 4059
  162.0217  123.5399  144.4716 LP  0  0  0  0  0  0  0  0  0  0  0  0  # atno 13053 bound_to 4059
  153.9326  125.6039  134.2023 LP  0  0  0  0  0  0  0  0  0  0  0  0  # atno 13090 bound_to 2893
  153.2986  124.0999  134.1498 LP  0  0  0  0  0  0  0  0  0  0  0  0  # atno 13091 bound_to 2893
  152.1471  126.3346  136.3353 LP  0  0  0  0  0  0  0  0  0  0  0  0  # atno 13098 bound_to 3975
  153.4054  126.4205  135.2980 LP  0  0  0  0  0  0  0  0  0  0  0  0  # atno 13099 bound_to 3975
  142.9488  120.0860  139.7574 LP  0  0  0  0  0  0  0  0  0  0  0  0  # atno 13102 bound_to 4487
  143.0452  118.9436  140.9203 LP  0  0  0  0  0  0  0  0  0  0  0  0  # atno 13103 bound_to 4487
  147.3334  118.7691  147.4874 LP  0  0  0  0  0  0  0  0  0  0  0  0  # atno 13112 bound_to 214 
  146.6403  118.6241  146.0159 LP  0  0  0  0  0  0  0  0  0  0  0  0  # atno 13113 bound_to 214 
  148.8661  126.7170  144.2490 LP  0  0  0  0  0  0  0  0  0  0  0  0  # atno 13120 bound_to 4467
  149.3288  126.1212  142.8007 LP  0  0  0  0  0  0  0  0  0  0  0  0  # atno 13121 bound_to 4467

> <Gold.Score>
     Fitness  S(hb_ext) S(vdw_ext)  S(hb_int)    S(int)      intcor
     36.33       6.00      22.63       0.00      -0.79      -0.76

> <Gold.Goldscore.Fitness>
36.3343

> <Gold.Goldscore.Internal.Vdw>
-1.1849

> <Gold.Goldscore.Internal.Torsion>
-0.3681

> <Gold.Goldscore.External.Vdw>
22.6345

> <Gold.Goldscore.Internal.HBond>
0.0000

> <Gold.Goldscore.External.HBond>
6.0000

> <Gold.Goldscore.Internal.Correction>
-0.7650

> <Gold.Goldscore.Hbonds>
donor molecule, donor type, donor heavy atom, donor atom, acceptor molecule, acceptor atom, score
      P1  H  4279  4292       L1    17  1.00

> <Gold.Goldscore.Internal.Vdw.Weighted>
-1.1849

> <Gold.Goldscore.Internal.Torsion.Weighted>
-0.3681

> <Gold.Goldscore.External.Vdw.Weighted>
31.1224

> <Gold.Goldscore.Internal.HBond.Weighted>
0.0000

> <Gold.Goldscore.External.HBond.Weighted>
6.0000

> <Gold.Goldscore.Internal.Correction.Weighted>
-0.7650

> <Gold.Rescore>
     Score     S(PLP)   S(hbond)     S(cho)   S(metal)  DE(clash)   DE(tors)     intcor
     30.38     -27.70       1.00       0.00       0.00       0.00       0.16       ----

> <Gold.PLP.Fitness>
30.3809

> <Gold.PLP.PLP>
-27.7038

> <Gold.PLP.part.hbond>
-1.0000

> <Gold.PLP.part.metal>
0.0000

> <Gold.PLP.part.buried>
3.2839

> <Gold.PLP.part.nonpolar>
-32.4149

> <Gold.PLP.part.repulsive>
2.5649

> <Gold.PLP.ligand.clash>
0.0000

> <Gold.PLP.ligand.torsion>
0.1614

> <Gold.PLP.Chemscore.Hbond>
1.0000

> <Gold.PLP.Chemscore.CHOScore>
0.0000

> <Gold.PLP.Chemscore.Metal>
0.0000

> <Gold.Chemscore.Hbonds>
donor molecule, donor type, donor heavy atom, donor atom, acceptor molecule, acceptor atom, score
      P1  H  4279  4292       L1    17  0.68

> <Gold.PLP.Chemscore.Internal.Correction>
   9.000000E+99

