#       Name:                CT1002167954
#       Creating user name   hitesit
#       Creation time:       Sun Apr 16 02:22:13 2023


#       File generated by GOLD software.
#

@<TRIPOS>MOLECULE
CT1002167954|ligand_prepared|mol2|1|dock9
    29    30     1
SMALL
NO_CHARGES


@<TRIPOS>ATOM
      1 C1         157.5302 115.8989 144.2407 C.3            1 RES1               0.0000
      2 C2         157.6956 115.4890 145.7183 C.ar           1 RES1               0.0000
      3 C3         158.7311 115.3200 143.4984 C.2            1 RES1               0.0000
      4 C4         156.1881 115.3339 143.7889 C.2            1 RES1               0.0000
      5 C5         157.5047 117.4287 144.0158 C.3            1 RES1               0.0000
      6 C6         156.9379 116.1007 146.7125 C.ar           1 RES1               0.0000
      7 C7         158.5983 114.5006 146.1017 C.ar           1 RES1               0.0000
      8 N8         158.5170 114.2366 142.6982 N.am           1 RES1               0.0000
      9 O9         159.8559 115.7825 143.6439 O.2            1 RES1               0.0000
     10 N10        156.1936 114.3551 142.8299 N.am           1 RES1               0.0000
     11 O11        155.1269 115.7158 144.2666 O.2            1 RES1               0.0000
     12 C12        157.4864 117.8328 142.5500 C.3            1 RES1               0.0000
     13 C13        157.0754 115.7356 148.0414 C.ar           1 RES1               0.0000
     14 C14        158.7344 114.1372 147.4313 C.ar           1 RES1               0.0000
     15 C15        157.2988 113.7592 142.2862 C.2            1 RES1               0.0000
     16 C16        157.9733 114.7535 148.4017 C.ar           1 RES1               0.0000
     17 O17        157.2229 112.8468 141.4683 O.2            1 RES1               0.0000
     18 H18        156.6158 117.8431 144.5074 H              1 RES1               0.0000
     19 H19        158.3882 117.8706 144.4928 H              1 RES1               0.0000
     20 H20        156.2280 116.8774 146.4483 H              1 RES1               0.0000
     21 H21        159.2083 114.0029 145.3555 H              1 RES1               0.0000
     22 H22        159.3387 113.7350 142.3763 H              1 RES1               0.0000
     23 H23        155.2900 114.0417 142.4897 H              1 RES1               0.0000
     24 H24        157.4688 118.9159 142.4486 H              1 RES1               0.0000
     25 H25        158.3692 117.4586 142.0357 H              1 RES1               0.0000
     26 H26        156.6073 117.4313 142.0502 H              1 RES1               0.0000
     27 H27        156.4751 116.2247 148.8015 H              1 RES1               0.0000
     28 H28        159.4427 113.3641 147.7103 H              1 RES1               0.0000
     29 H29        158.0805 114.4674 149.4428 H              1 RES1               0.0000
@<TRIPOS>BOND
    1    1    2 1     
    2    1    3 1     
    3    1    4 1     
    4    1    5 1     
    5    2    6 ar    
    6    2    7 ar    
    7    3    8 1     
    8    3    9 2     
    9    4   10 1     
   10    4   11 2     
   11    5   12 1     
   12    5   18 1     
   13    5   19 1     
   14    6   13 ar    
   15    6   20 1     
   16    7   14 ar    
   17    7   21 1     
   18    8   15 1     
   19    8   22 1     
   20   10   15 1     
   21   10   23 1     
   22   12   24 1     
   23   12   25 1     
   24   12   26 1     
   25   13   16 ar    
   26   13   27 1     
   27   14   16 ar    
   28   14   28 1     
   29   15   17 2     
   30   16   29 1     
@<TRIPOS>SUBSTRUCTURE
      1 RES1           1
@<TRIPOS>SET
DONOR_HYDROGENS      STATIC     ATOMS    <user>   **** ""
2 22 23
ATOM$RED        STATIC     ATOMS    COLORGROUP SYSTEM
2 22 23
@<TRIPOS>COMMENT
> <Gold.Version>
2022.3.0

> <Gold.Id.Protein>
unknown|7xmr_clean|pdb

> <Gold.Protein.RotatedTorsions>
[ 2787 2778 2777 2775 ] final    8.80 input   60.01 | X-H torsion
[ 2586 2581 2580 2577 ] final   28.59 input   60.02 | X-H torsion
[ 4081 4070 4069 4066 ] final   75.06 input   60.03 | X-H torsion
[ 2565 2560 2559 2556 ] final  -98.10 input   59.98 | X-H torsion
[ 4125 4108 4107 4104 ] final    3.76 input   60.01 | X-H torsion
[ 4210 4205 4204 4201 ] final   81.08 input   60.02 | X-H torsion
[ 4185 4180 4179 4176 ] final  148.43 input   59.98 | X-H torsion
[ 4064 4059 4058 4055 ] final  103.98 input   60.03 | X-H torsion
[ 4290 4279 4278 4277 ] final  112.84 input   59.98 | X-H torsion
[ 2901 2893 2892 2889 ] final   93.23 input   60.03 | X-H torsion
[ 3984 3975 3974 3972 ] final   27.07 input   59.97 | X-H torsion
[ 4508 4487 4486 4484 ] final  -66.74 input   60.01 | X-H torsion
[  215  214  213  211 ] final -137.00 input   59.98 | X-H torsion
[ 4472 4467 4466 4463 ] final  171.54 input   60.02 | X-H torsion
[ 2798 2793 2792 2789 ] final   36.62 input   60.00 | X-H torsion

> <Gold.Protein.ActiveResidues>
 ASP39   ASN43   TYR50   PHE92   GLY95   LEU96   LEU99   GLN102  VAL103  LEU105 
 VAL106  HIS107  TRP108  CYS115  VAL118  MET119  VAL121  ASP122  GLY123  ILE124 
 ASN125  GLN126  PHE127  ILE130  ILE174  PRO176  ILE177  TYR180  LEU183  ARG184 
 SER185  ASN186  GLN187  TRP188  ARG190  SER191  SER192  CYS193  THR194  ILE195 
 ASN196  TRP197  PRO198  GLY199  GLU200  SER201  GLY202  ALA203  TRP204  TYR205 
 THR206  GLY207  PHE208  ILE209  ILE210  TYR211  THR212  PHE213  LEU215  GLY216 
 PHE217  TRP269  PHE272  TYR273  PHE275  ASN276  VAL277  SER278  SER279  VAL280 
 SER281  MET282  ALA283  ILE284  SER285  PRO286  THR287  PRO288  ALA289  LEU290 
 LYS291  GLY292  MET293  PHE294  ASP295  VAL297  VAL298  VAL299  THR301  TYR302 

> <Gold.Protein.RotatedAtoms>
  147.3202  117.3710  147.0251 H   0  0  0  0  0  0  0  0  0  0  0  0  # atno 215  bound_to 214 
  152.9809  108.0218  140.3799 H   0  0  0  0  0  0  0  0  0  0  0  0  # atno 2565 bound_to 2560
  153.1517  112.4629  136.9320 H   0  0  0  0  0  0  0  0  0  0  0  0  # atno 2586 bound_to 2581
  161.3919  109.9099  133.7644 H   0  0  0  0  0  0  0  0  0  0  0  0  # atno 2787 bound_to 2778
  165.1281  121.7400  134.7210 H   0  0  0  0  0  0  0  0  0  0  0  0  # atno 2798 bound_to 2793
  152.8700  124.7030  133.0414 H   0  0  0  0  0  0  0  0  0  0  0  0  # atno 2901 bound_to 2893
  153.1915  126.0807  135.5206 H   0  0  0  0  0  0  0  0  0  0  0  0  # atno 3984 bound_to 3975
  162.3527  122.1301  145.6676 H   0  0  0  0  0  0  0  0  0  0  0  0  # atno 4064 bound_to 4059
  160.9802  117.2874  141.5386 H   0  0  0  0  0  0  0  0  0  0  0  0  # atno 4081 bound_to 4070
  166.2235  120.8457  141.5382 H   0  0  0  0  0  0  0  0  0  0  0  0  # atno 4125 bound_to 4108
  165.9469  113.0405  152.8908 H   0  0  0  0  0  0  0  0  0  0  0  0  # atno 4185 bound_to 4180
  162.2131  114.0797  152.6066 H   0  0  0  0  0  0  0  0  0  0  0  0  # atno 4210 bound_to 4205
  150.8469  110.7424  149.0080 H   0  0  0  0  0  0  0  0  0  0  0  0  # atno 4290 bound_to 4279
  150.1442  112.2229  149.2593 H   0  0  0  0  0  0  0  0  0  0  0  0  # atno 4291 bound_to 4279
  151.7746  112.1149  148.9798 H   0  0  0  0  0  0  0  0  0  0  0  0  # atno 4292 bound_to 4279
  149.3480  125.2613  143.1633 H   0  0  0  0  0  0  0  0  0  0  0  0  # atno 4472 bound_to 4467
  144.0906  120.1332  139.9433 H   0  0  0  0  0  0  0  0  0  0  0  0  # atno 4508 bound_to 4487
  159.8622  110.4533  133.6448 LP  0  0  0  0  0  0  0  0  0  0  0  0  # atno 12998 bound_to 2778
  160.5274  110.1954  135.1137 LP  0  0  0  0  0  0  0  0  0  0  0  0  # atno 12999 bound_to 2778
  154.6046  111.8292  136.5616 LP  0  0  0  0  0  0  0  0  0  0  0  0  # atno 13010 bound_to 2581
  154.2097  112.1171  138.1197 LP  0  0  0  0  0  0  0  0  0  0  0  0  # atno 13011 bound_to 2581
  160.9180  118.9101  141.4298 LP  0  0  0  0  0  0  0  0  0  0  0  0  # atno 13012 bound_to 4070
  159.7004  118.0896  142.1445 LP  0  0  0  0  0  0  0  0  0  0  0  0  # atno 13013 bound_to 4070
  152.4372  108.5308  141.8268 LP  0  0  0  0  0  0  0  0  0  0  0  0  # atno 13016 bound_to 2560
  151.3843  108.2314  140.6151 LP  0  0  0  0  0  0  0  0  0  0  0  0  # atno 13017 bound_to 2560
  165.9028  122.3231  140.9361 LP  0  0  0  0  0  0  0  0  0  0  0  0  # atno 13032 bound_to 4108
  167.2813  122.0602  141.7710 LP  0  0  0  0  0  0  0  0  0  0  0  0  # atno 13033 bound_to 4108
  162.4597  112.9040  153.7044 LP  0  0  0  0  0  0  0  0  0  0  0  0  # atno 13042 bound_to 4205
  162.7533  114.4626  154.0931 LP  0  0  0  0  0  0  0  0  0  0  0  0  # atno 13043 bound_to 4205
  165.0991  113.8129  151.7359 LP  0  0  0  0  0  0  0  0  0  0  0  0  # atno 13048 bound_to 4180
  166.7289  113.7536  151.6542 LP  0  0  0  0  0  0  0  0  0  0  0  0  # atno 13049 bound_to 4180
  161.9500  122.6848  144.1920 LP  0  0  0  0  0  0  0  0  0  0  0  0  # atno 13052 bound_to 4059
  162.2718  123.7333  145.4019 LP  0  0  0  0  0  0  0  0  0  0  0  0  # atno 13053 bound_to 4059
  153.7761  125.8210  133.8010 LP  0  0  0  0  0  0  0  0  0  0  0  0  # atno 13090 bound_to 2893
  153.5817  124.3390  134.4587 LP  0  0  0  0  0  0  0  0  0  0  0  0  # atno 13091 bound_to 2893
  152.9830  127.6941  135.4731 LP  0  0  0  0  0  0  0  0  0  0  0  0  # atno 13098 bound_to 3975
  152.0033  126.7682  136.3949 LP  0  0  0  0  0  0  0  0  0  0  0  0  # atno 13099 bound_to 3975
  142.5521  119.6360  140.1283 LP  0  0  0  0  0  0  0  0  0  0  0  0  # atno 13102 bound_to 4487
  143.7412  118.9734  141.0302 LP  0  0  0  0  0  0  0  0  0  0  0  0  # atno 13103 bound_to 4487
  147.2260  118.9667  147.3289 LP  0  0  0  0  0  0  0  0  0  0  0  0  # atno 13112 bound_to 214 
  146.6386  118.3628  145.9300 LP  0  0  0  0  0  0  0  0  0  0  0  0  # atno 13113 bound_to 214 
  148.8894  125.8410  144.6129 LP  0  0  0  0  0  0  0  0  0  0  0  0  # atno 13120 bound_to 4467
  149.0843  126.8562  143.3488 LP  0  0  0  0  0  0  0  0  0  0  0  0  # atno 13121 bound_to 4467

> <Gold.Score>
     Fitness  S(hb_ext) S(vdw_ext)  S(hb_int)    S(int)      intcor
     25.38       0.00      19.41       0.00      -1.31      -0.76

> <Gold.Goldscore.Fitness>
25.3796

> <Gold.Goldscore.Internal.Vdw>
-1.6374

> <Gold.Goldscore.Internal.Torsion>
-0.4278

> <Gold.Goldscore.External.Vdw>
19.4082

> <Gold.Goldscore.Internal.HBond>
0.0000

> <Gold.Goldscore.External.HBond>
0.0000

> <Gold.Goldscore.Internal.Correction>
-0.7585

> <Gold.Goldscore.Internal.Vdw.Weighted>
-1.6374

> <Gold.Goldscore.Internal.Torsion.Weighted>
-0.4278

> <Gold.Goldscore.External.Vdw.Weighted>
26.6863

> <Gold.Goldscore.Internal.HBond.Weighted>
0.0000

> <Gold.Goldscore.External.HBond.Weighted>
0.0000

> <Gold.Goldscore.Internal.Correction.Weighted>
-0.7585

> <Gold.Rescore>
     Score     S(PLP)   S(hbond)     S(cho)   S(metal)  DE(clash)   DE(tors)     intcor
     30.51     -32.30       0.00       0.00       0.00       0.00       0.90       ----

> <Gold.PLP.Fitness>
30.5069

> <Gold.PLP.PLP>
-32.3023

> <Gold.PLP.part.hbond>
-1.0000

> <Gold.PLP.part.metal>
0.0000

> <Gold.PLP.part.buried>
1.6871

> <Gold.PLP.part.nonpolar>
-32.2286

> <Gold.PLP.part.repulsive>
0.0136

> <Gold.PLP.ligand.clash>
0.0000

> <Gold.PLP.ligand.torsion>
0.8977

> <Gold.PLP.Chemscore.Hbond>
0.0000

> <Gold.PLP.Chemscore.CHOScore>
0.0000

> <Gold.PLP.Chemscore.Metal>
0.0000

> <Gold.PLP.Chemscore.Internal.Correction>
   9.000000E+99

