#       Name:                CT1002167954
#       Creating user name   hitesit
#       Creation time:       Sun Apr 16 02:22:07 2023


#       File generated by GOLD software.
#

@<TRIPOS>MOLECULE
CT1002167954|ligand_prepared|mol2|1|dock4
    29    30     1
SMALL
NO_CHARGES


@<TRIPOS>ATOM
      1 C1         156.9146 114.7557 146.9041 C.3            1 RES1               0.0000
      2 C2         156.9654 115.6087 145.6201 C.ar           1 RES1               0.0000
      3 C3         155.7657 115.3099 147.7415 C.2            1 RES1               0.0000
      4 C4         156.7148 113.3137 146.4507 C.2            1 RES1               0.0000
      5 C5         158.2102 114.8165 147.7463 C.3            1 RES1               0.0000
      6 C6         158.0117 116.5002 145.4026 C.ar           1 RES1               0.0000
      7 C7         155.9765 115.5134 144.6446 C.ar           1 RES1               0.0000
      8 N8         154.6203 114.5728 147.8091 N.am           1 RES1               0.0000
      9 O9         155.8492 116.3959 148.3017 O.2            1 RES1               0.0000
     10 N10        155.5388 112.6934 146.7824 N.am           1 RES1               0.0000
     11 O11        157.5582 112.7146 145.7949 O.2            1 RES1               0.0000
     12 C12        158.1956 113.9014 148.9607 C.3            1 RES1               0.0000
     13 C13        158.0689 117.2665 144.2503 C.ar           1 RES1               0.0000
     14 C14        156.0356 116.2808 143.4931 C.ar           1 RES1               0.0000
     15 C15        154.4698 113.2676 147.4146 C.2            1 RES1               0.0000
     16 C16        157.0813 117.1570 143.2947 C.ar           1 RES1               0.0000
     17 O17        153.4247 112.6604 147.6296 O.2            1 RES1               0.0000
     18 H18        159.0594 114.5428 147.1081 H              1 RES1               0.0000
     19 H19        158.3636 115.8489 148.0841 H              1 RES1               0.0000
     20 H20        158.7967 116.6017 146.1446 H              1 RES1               0.0000
     21 H21        155.1438 114.8315 144.7799 H              1 RES1               0.0000
     22 H22        153.7996 115.0348 148.1879 H              1 RES1               0.0000
     23 H23        155.4524 111.7127 146.5353 H              1 RES1               0.0000
     24 H24        159.1275 113.9828 149.5162 H              1 RES1               0.0000
     25 H25        157.3782 114.1617 149.6300 H              1 RES1               0.0000
     26 H26        158.0698 112.8633 148.6599 H              1 RES1               0.0000
     27 H27        158.8933 117.9556 144.0996 H              1 RES1               0.0000
     28 H28        155.2558 116.1919 142.7440 H              1 RES1               0.0000
     29 H29        157.1266 117.7572 142.3919 H              1 RES1               0.0000
@<TRIPOS>BOND
    1    1    2 1     
    2    1    3 1     
    3    1    4 1     
    4    1    5 1     
    5    2    6 ar    
    6    2    7 ar    
    7    3    8 1     
    8    3    9 2     
    9    4   10 1     
   10    4   11 2     
   11    5   12 1     
   12    5   18 1     
   13    5   19 1     
   14    6   13 ar    
   15    6   20 1     
   16    7   14 ar    
   17    7   21 1     
   18    8   15 1     
   19    8   22 1     
   20   10   15 1     
   21   10   23 1     
   22   12   24 1     
   23   12   25 1     
   24   12   26 1     
   25   13   16 ar    
   26   13   27 1     
   27   14   16 ar    
   28   14   28 1     
   29   15   17 2     
   30   16   29 1     
@<TRIPOS>SUBSTRUCTURE
      1 RES1           1
@<TRIPOS>SET
DONOR_HYDROGENS      STATIC     ATOMS    <user>   **** ""
2 22 23
ATOM$RED        STATIC     ATOMS    COLORGROUP SYSTEM
2 22 23
@<TRIPOS>COMMENT
> <Gold.Version>
2022.3.0

> <Gold.Id.Protein>
unknown|7xmr_clean|pdb

> <Gold.Protein.RotatedTorsions>
[ 2787 2778 2777 2775 ] final  -87.37 input   60.01 | X-H torsion
[ 2586 2581 2580 2577 ] final   89.09 input   60.02 | X-H torsion
[ 4081 4070 4069 4066 ] final  134.97 input   60.03 | X-H torsion
[ 2565 2560 2559 2556 ] final  -15.09 input   59.98 | X-H torsion
[ 4125 4108 4107 4104 ] final -133.48 input   60.01 | X-H torsion
[ 4210 4205 4204 4201 ] final  -93.56 input   60.02 | X-H torsion
[ 4185 4180 4179 4176 ] final -165.20 input   59.98 | X-H torsion
[ 4064 4059 4058 4055 ] final -115.05 input   60.03 | X-H torsion
[ 4290 4279 4278 4277 ] final   -1.96 input   59.98 | X-H torsion
[ 2901 2893 2892 2889 ] final  -83.71 input   60.03 | X-H torsion
[ 3984 3975 3974 3972 ] final -146.72 input   59.97 | X-H torsion
[ 4508 4487 4486 4484 ] final   37.22 input   60.01 | X-H torsion
[  215  214  213  211 ] final -119.16 input   59.98 | X-H torsion
[ 4472 4467 4466 4463 ] final   94.60 input   60.02 | X-H torsion
[ 2798 2793 2792 2789 ] final  -48.75 input   60.00 | X-H torsion

> <Gold.Protein.ActiveResidues>
 ASP39   ASN43   TYR50   PHE92   GLY95   LEU96   LEU99   GLN102  VAL103  LEU105 
 VAL106  HIS107  TRP108  CYS115  VAL118  MET119  VAL121  ASP122  GLY123  ILE124 
 ASN125  GLN126  PHE127  ILE130  ILE174  PRO176  ILE177  TYR180  LEU183  ARG184 
 SER185  ASN186  GLN187  TRP188  ARG190  SER191  SER192  CYS193  THR194  ILE195 
 ASN196  TRP197  PRO198  GLY199  GLU200  SER201  GLY202  ALA203  TRP204  TYR205 
 THR206  GLY207  PHE208  ILE209  ILE210  TYR211  THR212  PHE213  LEU215  GLY216 
 PHE217  TRP269  PHE272  TYR273  PHE275  ASN276  VAL277  SER278  SER279  VAL280 
 SER281  MET282  ALA283  ILE284  SER285  PRO286  THR287  PRO288  ALA289  LEU290 
 LYS291  GLY292  MET293  PHE294  ASP295  VAL297  VAL298  VAL299  THR301  TYR302 

> <Gold.Protein.RotatedAtoms>
  147.2046  117.3063  146.7668 H   0  0  0  0  0  0  0  0  0  0  0  0  # atno 215  bound_to 214 
  151.7563  108.0598  140.1821 H   0  0  0  0  0  0  0  0  0  0  0  0  # atno 2565 bound_to 2560
  153.3781  112.4405  137.8480 H   0  0  0  0  0  0  0  0  0  0  0  0  # atno 2586 bound_to 2581
  160.1313  110.3636  133.3796 H   0  0  0  0  0  0  0  0  0  0  0  0  # atno 2787 bound_to 2778
  165.4322  122.0520  133.5297 H   0  0  0  0  0  0  0  0  0  0  0  0  # atno 2798 bound_to 2793
  153.9530  125.2486  134.4667 H   0  0  0  0  0  0  0  0  0  0  0  0  # atno 2901 bound_to 2893
  152.3279  127.6645  136.0142 H   0  0  0  0  0  0  0  0  0  0  0  0  # atno 3984 bound_to 3975
  162.1855  123.7834  145.0749 H   0  0  0  0  0  0  0  0  0  0  0  0  # atno 4064 bound_to 4059
  160.1539  117.2826  141.9763 H   0  0  0  0  0  0  0  0  0  0  0  0  # atno 4081 bound_to 4070
  166.1133  122.4998  140.9977 H   0  0  0  0  0  0  0  0  0  0  0  0  # atno 4125 bound_to 4108
  166.6168  113.1687  152.6101 H   0  0  0  0  0  0  0  0  0  0  0  0  # atno 4185 bound_to 4180
  162.7160  113.4704  154.3021 H   0  0  0  0  0  0  0  0  0  0  0  0  # atno 4210 bound_to 4205
  151.8080  112.0362  148.9675 H   0  0  0  0  0  0  0  0  0  0  0  0  # atno 4290 bound_to 4279
  150.7614  110.7515  149.0227 H   0  0  0  0  0  0  0  0  0  0  0  0  # atno 4291 bound_to 4279
  150.1969  112.2924  149.2568 H   0  0  0  0  0  0  0  0  0  0  0  0  # atno 4292 bound_to 4279
  149.0523  125.2540  144.2897 H   0  0  0  0  0  0  0  0  0  0  0  0  # atno 4472 bound_to 4467
  143.9728  119.0821  140.9720 H   0  0  0  0  0  0  0  0  0  0  0  0  # atno 4508 bound_to 4487
  160.1753  110.3221  135.0062 LP  0  0  0  0  0  0  0  0  0  0  0  0  # atno 12998 bound_to 2778
  161.4833  109.8699  134.1396 LP  0  0  0  0  0  0  0  0  0  0  0  0  # atno 12999 bound_to 2778
  153.7573  112.1617  136.2898 LP  0  0  0  0  0  0  0  0  0  0  0  0  # atno 13010 bound_to 2581
  154.8291  111.8071  137.4697 LP  0  0  0  0  0  0  0  0  0  0  0  0  # atno 13011 bound_to 2581
  161.3666  118.0995  141.2618 LP  0  0  0  0  0  0  0  0  0  0  0  0  # atno 13012 bound_to 4070
  160.0838  118.9051  141.8717 LP  0  0  0  0  0  0  0  0  0  0  0  0  # atno 13013 bound_to 4070
  153.2074  108.1749  140.9096 LP  0  0  0  0  0  0  0  0  0  0  0  0  # atno 13016 bound_to 2560
  151.8469  108.5491  141.7315 LP  0  0  0  0  0  0  0  0  0  0  0  0  # atno 13017 bound_to 2560
  167.2992  121.7921  141.8585 LP  0  0  0  0  0  0  0  0  0  0  0  0  # atno 13032 bound_to 4108
  165.9958  120.9256  141.3927 LP  0  0  0  0  0  0  0  0  0  0  0  0  # atno 13033 bound_to 4108
  162.5207  114.7445  153.3089 LP  0  0  0  0  0  0  0  0  0  0  0  0  # atno 13042 bound_to 4205
  162.1860  113.2357  152.7816 LP  0  0  0  0  0  0  0  0  0  0  0  0  # atno 13043 bound_to 4205
  165.0284  113.4282  152.3669 LP  0  0  0  0  0  0  0  0  0  0  0  0  # atno 13048 bound_to 4180
  166.1252  114.0093  151.3058 LP  0  0  0  0  0  0  0  0  0  0  0  0  # atno 13049 bound_to 4180
  162.4077  122.3892  145.8838 LP  0  0  0  0  0  0  0  0  0  0  0  0  # atno 13052 bound_to 4059
  161.9826  122.3632  144.3073 LP  0  0  0  0  0  0  0  0  0  0  0  0  # atno 13053 bound_to 4059
  153.0614  124.0769  133.7739 LP  0  0  0  0  0  0  0  0  0  0  0  0  # atno 13090 bound_to 2893
  153.2053  125.5334  133.0498 LP  0  0  0  0  0  0  0  0  0  0  0  0  # atno 13091 bound_to 2893
  152.3971  126.0459  136.1698 LP  0  0  0  0  0  0  0  0  0  0  0  0  # atno 13098 bound_to 3975
  153.4585  126.8219  135.2013 LP  0  0  0  0  0  0  0  0  0  0  0  0  # atno 13099 bound_to 3975
  143.8809  120.2191  139.8112 LP  0  0  0  0  0  0  0  0  0  0  0  0  # atno 13102 bound_to 4487
  142.5310  119.4484  140.3119 LP  0  0  0  0  0  0  0  0  0  0  0  0  # atno 13103 bound_to 4487
  147.3395  118.7549  147.4955 LP  0  0  0  0  0  0  0  0  0  0  0  0  # atno 13112 bound_to 214 
  146.6416  118.6398  146.0236 LP  0  0  0  0  0  0  0  0  0  0  0  0  # atno 13113 bound_to 214 
  148.9086  126.8519  144.0180 LP  0  0  0  0  0  0  0  0  0  0  0  0  # atno 13120 bound_to 4467
  149.3631  125.8527  142.8090 LP  0  0  0  0  0  0  0  0  0  0  0  0  # atno 13121 bound_to 4467

> <Gold.Score>
     Fitness  S(hb_ext) S(vdw_ext)  S(hb_int)    S(int)      intcor
     36.54       6.00      22.79       0.00      -0.79      -0.76

> <Gold.Goldscore.Fitness>
36.5401

> <Gold.Goldscore.Internal.Vdw>
-1.1686

> <Gold.Goldscore.Internal.Torsion>
-0.3905

> <Gold.Goldscore.External.Vdw>
22.7885

> <Gold.Goldscore.Internal.HBond>
0.0000

> <Gold.Goldscore.External.HBond>
6.0000

> <Gold.Goldscore.Internal.Correction>
-0.7650

> <Gold.Goldscore.Hbonds>
donor molecule, donor type, donor heavy atom, donor atom, acceptor molecule, acceptor atom, score
      P1  H  4279  4290       L1    17  1.00

> <Gold.Goldscore.Internal.Vdw.Weighted>
-1.1686

> <Gold.Goldscore.Internal.Torsion.Weighted>
-0.3905

> <Gold.Goldscore.External.Vdw.Weighted>
31.3343

> <Gold.Goldscore.Internal.HBond.Weighted>
0.0000

> <Gold.Goldscore.External.HBond.Weighted>
6.0000

> <Gold.Goldscore.Internal.Correction.Weighted>
-0.7650

> <Gold.Rescore>
     Score     S(PLP)   S(hbond)     S(cho)   S(metal)  DE(clash)   DE(tors)     intcor
     30.38     -27.91       0.99       0.00       0.00       0.00       0.25       ----

> <Gold.PLP.Fitness>
30.3773

> <Gold.PLP.PLP>
-27.9063

> <Gold.PLP.part.hbond>
-1.0000

> <Gold.PLP.part.metal>
0.0000

> <Gold.PLP.part.buried>
2.6725

> <Gold.PLP.part.nonpolar>
-32.1364

> <Gold.PLP.part.repulsive>
2.6713

> <Gold.PLP.ligand.clash>
0.0000

> <Gold.PLP.ligand.torsion>
0.2514

> <Gold.PLP.Chemscore.Hbond>
0.9913

> <Gold.PLP.Chemscore.CHOScore>
0.0000

> <Gold.PLP.Chemscore.Metal>
0.0000

> <Gold.Chemscore.Hbonds>
donor molecule, donor type, donor heavy atom, donor atom, acceptor molecule, acceptor atom, score
      P1  H  4279  4290       L1    17  0.78

> <Gold.PLP.Chemscore.Internal.Correction>
   9.000000E+99

