#       Name:                CT1002167954
#       Creating user name   hitesit
#       Creation time:       Sun Apr 16 02:22:10 2023


#       File generated by GOLD software.
#

@<TRIPOS>MOLECULE
CT1002167954|ligand_prepared|mol2|1|dock6
    29    30     1
SMALL
NO_CHARGES


@<TRIPOS>ATOM
      1 C1         151.5275 110.0355 146.0157 C.3            1 RES1               0.0000
      2 C2         151.3953 111.5569 145.7997 C.ar           1 RES1               0.0000
      3 C3         150.2999 109.6079 146.8145 C.2            1 RES1               0.0000
      4 C4         151.6135 109.4133 144.6264 C.2            1 RES1               0.0000
      5 C5         152.7935 109.6239 146.8027 C.3            1 RES1               0.0000
      6 C6         150.3674 112.0749 145.0175 C.ar           1 RES1               0.0000
      7 C7         152.2905 112.4535 146.3771 C.ar           1 RES1               0.0000
      8 N8         149.3242 108.9208 146.1543 N.am           1 RES1               0.0000
      9 O9         150.1717 109.9035 147.9963 O.2            1 RES1               0.0000
     10 N10        150.5874 108.5998 144.2226 N.am           1 RES1               0.0000
     11 O11        152.5525 109.6334 143.8713 O.2            1 RES1               0.0000
     12 C12        152.9854 108.1194 146.9119 C.3            1 RES1               0.0000
     13 C13        150.2371 113.4399 144.8222 C.ar           1 RES1               0.0000
     14 C14        152.1586 113.8182 146.1803 C.ar           1 RES1               0.0000
     15 C15        149.4319 108.3499 144.9116 C.2            1 RES1               0.0000
     16 C16        151.1322 114.3124 145.4037 C.ar           1 RES1               0.0000
     17 O17        148.5304 107.6504 144.4588 O.2            1 RES1               0.0000
     18 H18        153.6724 110.0571 146.3094 H              1 RES1               0.0000
     19 H19        152.7340 110.0464 147.8133 H              1 RES1               0.0000
     20 H20        149.6549 111.4036 144.5499 H              1 RES1               0.0000
     21 H21        153.1063 112.0873 146.9911 H              1 RES1               0.0000
     22 H22        148.4321 108.8225 146.6282 H              1 RES1               0.0000
     23 H23        150.6949 108.1375 143.3254 H              1 RES1               0.0000
     24 H24        153.8876 107.8854 147.4731 H              1 RES1               0.0000
     25 H25        152.1410 107.6587 147.4202 H              1 RES1               0.0000
     26 H26        153.0738 107.6693 145.9252 H              1 RES1               0.0000
     27 H27        149.4285 113.8237 144.2090 H              1 RES1               0.0000
     28 H28        152.8657 114.5011 146.6394 H              1 RES1               0.0000
     29 H29        151.0298 115.3817 145.2508 H              1 RES1               0.0000
@<TRIPOS>BOND
    1    1    2 1     
    2    1    3 1     
    3    1    4 1     
    4    1    5 1     
    5    2    6 ar    
    6    2    7 ar    
    7    3    8 1     
    8    3    9 2     
    9    4   10 1     
   10    4   11 2     
   11    5   12 1     
   12    5   18 1     
   13    5   19 1     
   14    6   13 ar    
   15    6   20 1     
   16    7   14 ar    
   17    7   21 1     
   18    8   15 1     
   19    8   22 1     
   20   10   15 1     
   21   10   23 1     
   22   12   24 1     
   23   12   25 1     
   24   12   26 1     
   25   13   16 ar    
   26   13   27 1     
   27   14   16 ar    
   28   14   28 1     
   29   15   17 2     
   30   16   29 1     
@<TRIPOS>SUBSTRUCTURE
      1 RES1           1
@<TRIPOS>SET
DONOR_HYDROGENS      STATIC     ATOMS    <user>   **** ""
2 22 23
ATOM$RED        STATIC     ATOMS    COLORGROUP SYSTEM
2 22 23
@<TRIPOS>COMMENT
> <Gold.Version>
2022.3.0

> <Gold.Id.Protein>
unknown|7xmr_clean|pdb

> <Gold.Protein.RotatedTorsions>
[ 2787 2778 2777 2775 ] final  144.31 input   60.01 | X-H torsion
[ 2586 2581 2580 2577 ] final -172.76 input   60.02 | X-H torsion
[ 4081 4070 4069 4066 ] final -140.01 input   60.03 | X-H torsion
[ 2565 2560 2559 2556 ] final   63.84 input   59.98 | X-H torsion
[ 4125 4108 4107 4104 ] final  -69.28 input   60.01 | X-H torsion
[ 4210 4205 4204 4201 ] final -123.07 input   60.02 | X-H torsion
[ 4185 4180 4179 4176 ] final   71.96 input   59.98 | X-H torsion
[ 4064 4059 4058 4055 ] final    6.26 input   60.03 | X-H torsion
[ 4290 4279 4278 4277 ] final -110.62 input   59.98 | X-H torsion
[ 2901 2893 2892 2889 ] final  129.74 input   60.03 | X-H torsion
[ 3984 3975 3974 3972 ] final   90.89 input   59.97 | X-H torsion
[ 4508 4487 4486 4484 ] final  128.79 input   60.01 | X-H torsion
[  215  214  213  211 ] final   58.50 input   59.98 | X-H torsion
[ 4472 4467 4466 4463 ] final  166.64 input   60.02 | X-H torsion
[ 2798 2793 2792 2789 ] final   17.63 input   60.00 | X-H torsion

> <Gold.Protein.ActiveResidues>
 ASP39   ASN43   TYR50   PHE92   GLY95   LEU96   LEU99   GLN102  VAL103  LEU105 
 VAL106  HIS107  TRP108  CYS115  VAL118  MET119  VAL121  ASP122  GLY123  ILE124 
 ASN125  GLN126  PHE127  ILE130  ILE174  PRO176  ILE177  TYR180  LEU183  ARG184 
 SER185  ASN186  GLN187  TRP188  ARG190  SER191  SER192  CYS193  THR194  ILE195 
 ASN196  TRP197  PRO198  GLY199  GLU200  SER201  GLY202  ALA203  TRP204  TYR205 
 THR206  GLY207  PHE208  ILE209  ILE210  TYR211  THR212  PHE213  LEU215  GLY216 
 PHE217  TRP269  PHE272  TYR273  PHE275  ASN276  VAL277  SER278  SER279  VAL280 
 SER281  MET282  ALA283  ILE284  SER285  PRO286  THR287  PRO288  ALA289  LEU290 
 LYS291  GLY292  MET293  PHE294  ASP295  VAL297  VAL298  VAL299  THR301  TYR302 

> <Gold.Protein.RotatedAtoms>
  146.9008  119.1526  146.7242 H   0  0  0  0  0  0  0  0  0  0  0  0  # atno 215  bound_to 214 
  151.4048  108.4313  141.2568 H   0  0  0  0  0  0  0  0  0  0  0  0  # atno 2565 bound_to 2560
  154.6811  111.8911  137.7827 H   0  0  0  0  0  0  0  0  0  0  0  0  # atno 2586 bound_to 2581
  160.2956  110.2806  135.0557 H   0  0  0  0  0  0  0  0  0  0  0  0  # atno 2787 bound_to 2778
  165.0300  121.8494  134.4495 H   0  0  0  0  0  0  0  0  0  0  0  0  # atno 2798 bound_to 2793
  152.9095  124.2467  133.4076 H   0  0  0  0  0  0  0  0  0  0  0  0  # atno 2901 bound_to 2893
  152.4283  126.0318  136.1493 H   0  0  0  0  0  0  0  0  0  0  0  0  # atno 3984 bound_to 3975
  161.9891  122.3486  144.3232 H   0  0  0  0  0  0  0  0  0  0  0  0  # atno 4064 bound_to 4059
  159.7687  118.4839  142.0772 H   0  0  0  0  0  0  0  0  0  0  0  0  # atno 4081 bound_to 4070
  165.6416  121.6236  140.9923 H   0  0  0  0  0  0  0  0  0  0  0  0  # atno 4125 bound_to 4108
  165.0212  113.4511  152.3265 H   0  0  0  0  0  0  0  0  0  0  0  0  # atno 4185 bound_to 4180
  162.7790  113.9414  154.3426 H   0  0  0  0  0  0  0  0  0  0  0  0  # atno 4210 bound_to 4205
  150.3292  112.4262  149.2477 H   0  0  0  0  0  0  0  0  0  0  0  0  # atno 4290 bound_to 4279
  151.8554  111.8545  148.9428 H   0  0  0  0  0  0  0  0  0  0  0  0  # atno 4291 bound_to 4279
  150.5815  110.7999  149.0566 H   0  0  0  0  0  0  0  0  0  0  0  0  # atno 4292 bound_to 4279
  149.3376  125.2143  143.2272 H   0  0  0  0  0  0  0  0  0  0  0  0  # atno 4472 bound_to 4467
  142.6746  119.1554  140.6381 H   0  0  0  0  0  0  0  0  0  0  0  0  # atno 4508 bound_to 4487
  161.4700  109.8766  134.0035 LP  0  0  0  0  0  0  0  0  0  0  0  0  # atno 12998 bound_to 2778
  160.0232  110.3989  133.4553 LP  0  0  0  0  0  0  0  0  0  0  0  0  # atno 12999 bound_to 2778
  153.1888  112.4988  137.5519 LP  0  0  0  0  0  0  0  0  0  0  0  0  # atno 13010 bound_to 2581
  154.0863  112.0230  136.2733 LP  0  0  0  0  0  0  0  0  0  0  0  0  # atno 13011 bound_to 2581
  160.6440  117.1578  141.7249 LP  0  0  0  0  0  0  0  0  0  0  0  0  # atno 13012 bound_to 4070
  161.1942  118.6374  141.3070 LP  0  0  0  0  0  0  0  0  0  0  0  0  # atno 13013 bound_to 4070
  152.3961  107.9685  140.0521 LP  0  0  0  0  0  0  0  0  0  0  0  0  # atno 13016 bound_to 2560
  153.0121  108.3814  141.5070 LP  0  0  0  0  0  0  0  0  0  0  0  0  # atno 13017 bound_to 2560
  166.8890  122.5847  141.4029 LP  0  0  0  0  0  0  0  0  0  0  0  0  # atno 13032 bound_to 4108
  166.8810  121.0152  141.8538 LP  0  0  0  0  0  0  0  0  0  0  0  0  # atno 13033 bound_to 4108
  162.3629  114.5580  152.8953 LP  0  0  0  0  0  0  0  0  0  0  0  0  # atno 13042 bound_to 4205
  162.2804  112.9478  153.1543 LP  0  0  0  0  0  0  0  0  0  0  0  0  # atno 13043 bound_to 4205
  166.1706  114.0012  151.3138 LP  0  0  0  0  0  0  0  0  0  0  0  0  # atno 13048 bound_to 4180
  166.5892  113.1520  152.6443 LP  0  0  0  0  0  0  0  0  0  0  0  0  # atno 13049 bound_to 4180
  162.1779  123.7897  145.0547 LP  0  0  0  0  0  0  0  0  0  0  0  0  # atno 13052 bound_to 4059
  162.4103  122.4082  145.8937 LP  0  0  0  0  0  0  0  0  0  0  0  0  # atno 13053 bound_to 4059
  153.4574  125.7755  133.3056 LP  0  0  0  0  0  0  0  0  0  0  0  0  # atno 13090 bound_to 2893
  153.8606  124.8442  134.5850 LP  0  0  0  0  0  0  0  0  0  0  0  0  # atno 13091 bound_to 2893
  153.4561  126.8611  135.1981 LP  0  0  0  0  0  0  0  0  0  0  0  0  # atno 13098 bound_to 3975
  152.2985  127.6503  136.0370 LP  0  0  0  0  0  0  0  0  0  0  0  0  # atno 13099 bound_to 3975
  144.2856  119.3493  140.7631 LP  0  0  0  0  0  0  0  0  0  0  0  0  # atno 13102 bound_to 4487
  143.4331  120.2444  139.6960 LP  0  0  0  0  0  0  0  0  0  0  0  0  # atno 13103 bound_to 4487
  146.8000  117.6771  146.0458 LP  0  0  0  0  0  0  0  0  0  0  0  0  # atno 13112 bound_to 214 
  147.4871  117.8578  147.5162 LP  0  0  0  0  0  0  0  0  0  0  0  0  # atno 13113 bound_to 214 
  148.8771  125.9204  144.6189 LP  0  0  0  0  0  0  0  0  0  0  0  0  # atno 13120 bound_to 4467
  149.1072  126.8242  143.2785 LP  0  0  0  0  0  0  0  0  0  0  0  0  # atno 13121 bound_to 4467

> <Gold.Score>
     Fitness  S(hb_ext) S(vdw_ext)  S(hb_int)    S(int)      intcor
     30.41       2.98      20.00       0.00      -0.07      -0.76

> <Gold.Goldscore.Fitness>
30.4099

> <Gold.Goldscore.Internal.Vdw>
-0.4286

> <Gold.Goldscore.Internal.Torsion>
-0.4051

> <Gold.Goldscore.External.Vdw>
20.0015

> <Gold.Goldscore.Internal.HBond>
0.0000

> <Gold.Goldscore.External.HBond>
2.9765

> <Gold.Goldscore.Internal.Correction>
-0.7650

> <Gold.Goldscore.Hbonds>
donor molecule, donor type, donor heavy atom, donor atom, acceptor molecule, acceptor atom, score
      P1  H  4279  4292       L1     9  0.47
      L1  H     8    22       P1  1068  0.02
      L1  H    10    23       P1  2560  0.06

> <Gold.Goldscore.Internal.Vdw.Weighted>
-0.4286

> <Gold.Goldscore.Internal.Torsion.Weighted>
-0.4051

> <Gold.Goldscore.External.Vdw.Weighted>
27.5021

> <Gold.Goldscore.Internal.HBond.Weighted>
0.0000

> <Gold.Goldscore.External.HBond.Weighted>
2.9765

> <Gold.Goldscore.Internal.Correction.Weighted>
-0.7650

> <Gold.Rescore>
     Score     S(PLP)   S(hbond)     S(cho)   S(metal)  DE(clash)   DE(tors)     intcor
     30.86     -22.87       2.70       0.00       0.00       0.00       0.06       ----

> <Gold.PLP.Fitness>
30.8622

> <Gold.PLP.PLP>
-22.8712

> <Gold.PLP.part.hbond>
-4.0000

> <Gold.PLP.part.metal>
0.0000

> <Gold.PLP.part.buried>
0.2025

> <Gold.PLP.part.nonpolar>
-20.1671

> <Gold.PLP.part.repulsive>
0.5596

> <Gold.PLP.ligand.clash>
0.0000

> <Gold.PLP.ligand.torsion>
0.0606

> <Gold.PLP.Chemscore.Hbond>
2.7040

> <Gold.PLP.Chemscore.CHOScore>
0.0000

> <Gold.PLP.Chemscore.Metal>
0.0000

> <Gold.Chemscore.Hbonds>
donor molecule, donor type, donor heavy atom, donor atom, acceptor molecule, acceptor atom, score
      L1  H     8    22       P1  1068  0.43
      P1  H  4279  4292       L1     9  0.62

> <Gold.PLP.Chemscore.Internal.Correction>
   9.000000E+99

