#       Name:                CT1002167954
#       Creating user name   hitesit
#       Creation time:       Sun Apr 16 02:32:19 2023


#       File generated by GOLD software.
#

@<TRIPOS>MOLECULE
CT1002167954|ligand_prepared|mol2|1|dock3
    29    30     1
SMALL
NO_CHARGES


@<TRIPOS>ATOM
      1 C1         226.0596 357.0991 -93.2616 C.3            1 RES1               0.0000
      2 C2         227.3895 357.4391 -93.9647 C.ar           1 RES1               0.0000
      3 C3         225.9127 355.5820 -93.3332 C.2            1 RES1               0.0000
      4 C4         226.1746 357.6468 -91.8434 C.2            1 RES1               0.0000
      5 C5         224.8200 357.7443 -93.9239 C.3            1 RES1               0.0000
      6 C6         227.8122 358.7599 -94.0808 C.ar           1 RES1               0.0000
      7 C7         228.2043 356.4444 -94.4988 C.ar           1 RES1               0.0000
      8 N8         226.1184 354.8725 -92.1868 N.am           1 RES1               0.0000
      9 O9         225.6593 355.0136 -94.3882 O.2            1 RES1               0.0000
     10 N10        226.1884 356.7495 -90.8077 N.am           1 RES1               0.0000
     11 O11        226.2701 358.8462 -91.6143 O.2            1 RES1               0.0000
     12 C12        223.4984 357.2911 -93.3235 C.3            1 RES1               0.0000
     13 C13        229.0076 359.0748 -94.7055 C.ar           1 RES1               0.0000
     14 C14        229.3992 356.7615 -95.1234 C.ar           1 RES1               0.0000
     15 C15        226.1965 355.3856 -90.9170 C.2            1 RES1               0.0000
     16 C16        229.8020 358.0760 -95.2268 C.ar           1 RES1               0.0000
     17 O17        226.2651 354.6447 -89.9406 O.2            1 RES1               0.0000
     18 H18        224.8958 358.8345 -93.8283 H              1 RES1               0.0000
     19 H19        224.8239 357.5005 -94.9934 H              1 RES1               0.0000
     20 H20        227.1991 359.5596 -93.6788 H              1 RES1               0.0000
     21 H21        227.9070 355.4035 -94.4300 H              1 RES1               0.0000
     22 H22        226.2240 353.8675 -92.2824 H              1 RES1               0.0000
     23 H23        226.1930 357.1340 -89.8683 H              1 RES1               0.0000
     24 H24        222.6617 357.7736 -93.8243 H              1 RES1               0.0000
     25 H25        223.3783 356.2144 -93.4238 H              1 RES1               0.0000
     26 H26        223.4498 357.5406 -92.2656 H              1 RES1               0.0000
     27 H27        229.3194 360.1110 -94.7855 H              1 RES1               0.0000
     28 H28        230.0210 355.9722 -95.5328 H              1 RES1               0.0000
     29 H29        230.7385 358.3229 -95.7159 H              1 RES1               0.0000
@<TRIPOS>BOND
    1    1    2 1     
    2    1    3 1     
    3    1    4 1     
    4    1    5 1     
    5    2    6 ar    
    6    2    7 ar    
    7    3    8 1     
    8    3    9 2     
    9    4   10 1     
   10    4   11 2     
   11    5   12 1     
   12    5   18 1     
   13    5   19 1     
   14    6   13 ar    
   15    6   20 1     
   16    7   14 ar    
   17    7   21 1     
   18    8   15 1     
   19    8   22 1     
   20   10   15 1     
   21   10   23 1     
   22   12   24 1     
   23   12   25 1     
   24   12   26 1     
   25   13   16 ar    
   26   13   27 1     
   27   14   16 ar    
   28   14   28 1     
   29   15   17 2     
   30   16   29 1     
@<TRIPOS>SUBSTRUCTURE
      1 RES1           1
@<TRIPOS>SET
DONOR_HYDROGENS      STATIC     ATOMS    <user>   **** ""
2 22 23
ATOM$RED        STATIC     ATOMS    COLORGROUP SYSTEM
2 22 23
@<TRIPOS>COMMENT
> <Gold.Version>
2022.3.0

> <Gold.Id.Protein>
unknown|7ts3_clean|pdb

> <Gold.Protein.RotatedTorsions>
[ 1457 1425 1424 1423 ] final -148.61 input   59.98 | X-H torsion
[ 3981 3955 3956 3957 ] final   -4.24 input  120.40 | X-H torsion
[ 4062 4029 4030 4031 ] final   61.27 input  117.34 | X-H torsion
[ 6581 6560 6559 6557 ] final -171.87 input   59.98 | X-H torsion
[ 25706 25673 25674 25675 ] final   99.08 input   60.60 | X-H torsion
[ 4242 4229 4230 4231 ] final  141.68 input  128.17 | X-H torsion
[ 1447 1417 1418 1419 ] final  114.47 input   90.13 | X-H torsion
[ 1519 1499 1500 1501 ] final   32.18 input  110.10 | X-H torsion
[ 25633 25595 25596 25597 ] final  178.86 input   68.08 | X-H torsion
[ 1222 1195 1196 1197 ] final -168.18 input  124.45 | X-H torsion
[ 1302 1275 1276 1277 ] final  123.06 input  121.39 | X-H torsion
[ 1365 1339 1340 1341 ] final  135.69 input  109.22 | X-H torsion
[ 1573 1545 1546 1547 ] final   31.37 input   73.55 | X-H torsion
[ 1579 1551 1549 1546 ] final   -3.77 input   59.99 | X-H torsion
[ 25712 25679 25677 25674 ] final -174.99 input   60.00 | X-H torsion
[ 1523 1504 1503 1500 ] final   89.21 input   60.00 | X-H torsion
[ 1641 1603 1604 1605 ] final   43.14 input   84.06 | X-H torsion
[ 27271 1198 1197 1196 ] final  178.44 input   -0.00 | X-H torsion
[ 27273 1420 1419 1418 ] final   26.33 input    0.00 | X-H torsion
[ 27280 3958 3957 3956 ] final -121.34 input   -0.00 | X-H torsion
[ 27285 6788 6787 6786 ] final  -29.90 input   -0.00 | X-H torsion
[ 27288 23664 23663 23662 ] final   23.23 input    0.00 | X-H torsion
[ 27291 25676 25675 25674 ] final  128.29 input    0.00 | X-H torsion
[ 27297 3694 3693 3692 ] final   16.27 input    0.00 | X-H torsion
[ 27300 25598 25597 25596 ] final  172.72 input   -0.00 | X-H torsion
[ 27305 1342 1341 1340 ] final   63.59 input    0.00 | X-H torsion
[ 27310 25508 25507 25506 ] final -156.82 input   -0.00 | X-H torsion
[ 27314 25737 25736 25735 ] final  117.51 input    0.00 | X-H torsion
[ 27316 1502 1501 1500 ] final  152.56 input    0.00 | X-H torsion

> <Gold.Protein.ActiveResidues>
 LEU321  HIS322  LEU323  LYS324  SER325  THR326  LEU327  ARG348  GLU365  PHE366 
 GLN369  TYR370  SER372  SER373  TYR408  HIS412  ARG415  ASN416  ARG674  PRO678 
 TYR703  ARG704  LEU705  THR706  PRO707 

> <Gold.Protein.RotatedAtoms>
  223.3133  364.6115  -94.4388 H   0  0  0  0  0  0  0  0  0  0  0  0  # atno 1222 bound_to 1195
  226.4583  365.5863  -95.3206 H   0  0  0  0  0  0  0  0  0  0  0  0  # atno 1302 bound_to 1275
  227.2405  365.5891  -92.5595 H   0  0  0  0  0  0  0  0  0  0  0  0  # atno 1365 bound_to 1339
  228.0301  362.7547  -92.0571 H   0  0  0  0  0  0  0  0  0  0  0  0  # atno 1447 bound_to 1417
  225.8359  358.0545  -87.8699 H   0  0  0  0  0  0  0  0  0  0  0  0  # atno 1457 bound_to 1425
  225.7271  357.8501  -89.5114 H   0  0  0  0  0  0  0  0  0  0  0  0  # atno 1458 bound_to 1425
  226.4374  356.6807  -88.5754 H   0  0  0  0  0  0  0  0  0  0  0  0  # atno 1459 bound_to 1425
  231.4197  362.5520  -91.6620 H   0  0  0  0  0  0  0  0  0  0  0  0  # atno 1519 bound_to 1499
  233.6993  363.2907  -95.8335 H   0  0  0  0  0  0  0  0  0  0  0  0  # atno 1523 bound_to 1504
  234.8150  361.3522  -94.0915 H   0  0  0  0  0  0  0  0  0  0  0  0  # atno 1573 bound_to 1545
  234.8108  359.4522  -94.4146 H   0  0  0  0  0  0  0  0  0  0  0  0  # atno 1579 bound_to 1551
  236.6986  361.2119  -94.5911 H   0  0  0  0  0  0  0  0  0  0  0  0  # atno 1641 bound_to 1603
  227.3453  349.2997  -89.3945 H   0  0  0  0  0  0  0  0  0  0  0  0  # atno 3981 bound_to 3955
  226.9792  348.4396  -90.9522 H   0  0  0  0  0  0  0  0  0  0  0  0  # atno 4062 bound_to 4029
  223.0619  350.0180  -91.7426 H   0  0  0  0  0  0  0  0  0  0  0  0  # atno 4242 bound_to 4229
  226.5314  351.2320  -94.9949 H   0  0  0  0  0  0  0  0  0  0  0  0  # atno 6581 bound_to 6560
  232.9888  360.5798  -98.0471 H   0  0  0  0  0  0  0  0  0  0  0  0  # atno 25633 bound_to 25595
  233.0143  356.8451  -95.6616 H   0  0  0  0  0  0  0  0  0  0  0  0  # atno 25706 bound_to 25673
  235.8799  353.2747  -95.4403 H   0  0  0  0  0  0  0  0  0  0  0  0  # atno 25712 bound_to 25679
  228.3008  362.9842  -93.9443 LP  0  0  0  0  0  0  0  0  0  0  0  0  # atno 27271 bound_to 1198
  226.9132  361.9637  -93.7625 LP  0  0  0  0  0  0  0  0  0  0  0  0  # atno 27272 bound_to 1198
  230.7066  359.2688  -92.4359 LP  0  0  0  0  0  0  0  0  0  0  0  0  # atno 27273 bound_to 1420
  232.2834  359.9822  -92.5036 LP  0  0  0  0  0  0  0  0  0  0  0  0  # atno 27274 bound_to 1420
  228.1981  350.7956  -89.0947 LP  0  0  0  0  0  0  0  0  0  0  0  0  # atno 27279 bound_to 3955
  224.0980  349.5033  -91.4183 LP  0  0  0  0  0  0  0  0  0  0  0  0  # atno 27280 bound_to 3958
  224.5842  350.9015  -92.3174 LP  0  0  0  0  0  0  0  0  0  0  0  0  # atno 27281 bound_to 3958
  226.6820  349.6183  -92.2041 LP  0  0  0  0  0  0  0  0  0  0  0  0  # atno 27282 bound_to 4029
  224.9863  350.8739  -94.6320 LP  0  0  0  0  0  0  0  0  0  0  0  0  # atno 27283 bound_to 6560
  225.3362  351.7132  -95.9884 LP  0  0  0  0  0  0  0  0  0  0  0  0  # atno 27284 bound_to 6560
  228.6520  354.3486 -101.9609 LP  0  0  0  0  0  0  0  0  0  0  0  0  # atno 27285 bound_to 6788
  230.3258  354.2866 -101.5197 LP  0  0  0  0  0  0  0  0  0  0  0  0  # atno 27286 bound_to 6788
  222.1567  360.3556  -95.8111 LP  0  0  0  0  0  0  0  0  0  0  0  0  # atno 27288 bound_to 23664
  221.6125  361.8276  -95.0782 LP  0  0  0  0  0  0  0  0  0  0  0  0  # atno 27289 bound_to 23664
  232.4673  356.8446  -97.3160 LP  0  0  0  0  0  0  0  0  0  0  0  0  # atno 27290 bound_to 25673
  230.3558  354.2307  -96.2082 LP  0  0  0  0  0  0  0  0  0  0  0  0  # atno 27291 bound_to 25676
  231.4544  354.5637  -94.9112 LP  0  0  0  0  0  0  0  0  0  0  0  0  # atno 27292 bound_to 25676
  221.5106  349.7990  -90.9716 LP  0  0  0  0  0  0  0  0  0  0  0  0  # atno 27294 bound_to 4229
  229.3592  363.4289  -91.1307 LP  0  0  0  0  0  0  0  0  0  0  0  0  # atno 27295 bound_to 1417
  230.4818  362.1056  -93.0657 LP  0  0  0  0  0  0  0  0  0  0  0  0  # atno 27296 bound_to 1499
  229.8606  351.5391  -88.8393 LP  0  0  0  0  0  0  0  0  0  0  0  0  # atno 27297 bound_to 3694
  229.6960  350.2750  -90.0118 LP  0  0  0  0  0  0  0  0  0  0  0  0  # atno 27298 bound_to 3694
  234.0367  359.3113  -98.6492 LP  0  0  0  0  0  0  0  0  0  0  0  0  # atno 27299 bound_to 25595
  234.0378  356.0537  -98.7247 LP  0  0  0  0  0  0  0  0  0  0  0  0  # atno 27300 bound_to 25598
  233.5533  357.5767  -99.3921 LP  0  0  0  0  0  0  0  0  0  0  0  0  # atno 27301 bound_to 25598
  224.7689  365.5819  -94.4463 LP  0  0  0  0  0  0  0  0  0  0  0  0  # atno 27302 bound_to 1195
  226.7453  364.0189  -94.5981 LP  0  0  0  0  0  0  0  0  0  0  0  0  # atno 27303 bound_to 1275
  228.6688  364.7561  -93.1116 LP  0  0  0  0  0  0  0  0  0  0  0  0  # atno 27304 bound_to 1339
  229.3708  363.5851  -88.7568 LP  0  0  0  0  0  0  0  0  0  0  0  0  # atno 27305 bound_to 1342
  230.7644  363.1843  -89.7041 LP  0  0  0  0  0  0  0  0  0  0  0  0  # atno 27306 bound_to 1342
  233.7052  361.0407  -92.7753 LP  0  0  0  0  0  0  0  0  0  0  0  0  # atno 27307 bound_to 1545
  234.3314  357.9679  -93.9506 LP  0  0  0  0  0  0  0  0  0  0  0  0  # atno 27308 bound_to 1551
  235.8032  358.1799  -94.6254 LP  0  0  0  0  0  0  0  0  0  0  0  0  # atno 27309 bound_to 1551
  233.9543  359.9181  -95.6922 LP  0  0  0  0  0  0  0  0  0  0  0  0  # atno 27310 bound_to 25508
  234.4595  361.5553  -95.9458 LP  0  0  0  0  0  0  0  0  0  0  0  0  # atno 27311 bound_to 25508
  235.7029  353.7239  -96.9944 LP  0  0  0  0  0  0  0  0  0  0  0  0  # atno 27312 bound_to 25679
  234.5823  352.7719  -96.2839 LP  0  0  0  0  0  0  0  0  0  0  0  0  # atno 27313 bound_to 25679
  232.8957  355.1145  -99.7849 LP  0  0  0  0  0  0  0  0  0  0  0  0  # atno 27314 bound_to 25737
  231.7493  353.8650 -100.1377 LP  0  0  0  0  0  0  0  0  0  0  0  0  # atno 27315 bound_to 25737
  234.3787  361.6264  -90.7555 LP  0  0  0  0  0  0  0  0  0  0  0  0  # atno 27316 bound_to 1502
  233.5167  363.0768  -91.1471 LP  0  0  0  0  0  0  0  0  0  0  0  0  # atno 27317 bound_to 1502
  234.6233  362.8549  -94.5670 LP  0  0  0  0  0  0  0  0  0  0  0  0  # atno 27318 bound_to 1504
  234.4349  364.4338  -94.9390 LP  0  0  0  0  0  0  0  0  0  0  0  0  # atno 27319 bound_to 1504

> <Gold.Score>
     Fitness  S(hb_ext) S(vdw_ext)  S(hb_int)    S(int)      intcor
     34.47       3.72      24.58       0.00      -3.05      -0.77

> <Gold.Goldscore.Fitness>
34.4741

> <Gold.Goldscore.Internal.Vdw>
-3.3844

> <Gold.Goldscore.Internal.Torsion>
-0.4314

> <Gold.Goldscore.External.Vdw>
24.5816

> <Gold.Goldscore.Internal.HBond>
0.0000

> <Gold.Goldscore.External.HBond>
3.7216

> <Gold.Goldscore.Internal.Correction>
-0.7686

> <Gold.Goldscore.Hbonds>
donor molecule, donor type, donor heavy atom, donor atom, acceptor molecule, acceptor atom, score
      P1  H 23668 23717       L1     9  0.51
      P1  H 23671 23721       L1     9  0.11

> <Gold.Goldscore.Internal.Vdw.Weighted>
-3.3844

> <Gold.Goldscore.Internal.Torsion.Weighted>
-0.4314

> <Gold.Goldscore.External.Vdw.Weighted>
33.7997

> <Gold.Goldscore.Internal.HBond.Weighted>
0.0000

> <Gold.Goldscore.External.HBond.Weighted>
3.7216

> <Gold.Goldscore.Internal.Correction.Weighted>
-0.7686

> <Gold.Rescore>
     Score     S(PLP)   S(hbond)     S(cho)   S(metal)  DE(clash)   DE(tors)     intcor
     39.54     -37.22       1.42       0.00       0.00       0.03       0.96       ----

> <Gold.PLP.Fitness>
39.5388

> <Gold.PLP.PLP>
-37.2170

> <Gold.PLP.part.hbond>
-3.1096

> <Gold.PLP.part.metal>
0.0000

> <Gold.PLP.part.buried>
-5.7927

> <Gold.PLP.part.nonpolar>
-29.9295

> <Gold.PLP.part.repulsive>
0.2215

> <Gold.PLP.ligand.clash>
0.0304

> <Gold.PLP.ligand.torsion>
0.9557

> <Gold.PLP.Chemscore.Hbond>
1.4212

> <Gold.PLP.Chemscore.CHOScore>
0.0000

> <Gold.PLP.Chemscore.Metal>
0.0000

> <Gold.Chemscore.Hbonds>
donor molecule, donor type, donor heavy atom, donor atom, acceptor molecule, acceptor atom, score
      P1  H  1425  1459       L1    17  0.03

> <Gold.PLP.Chemscore.Internal.Correction>
   9.000000E+99

