#       Name:                CT1002167954
#       Creating user name   hitesit
#       Creation time:       Sun Apr 16 02:32:20 2023


#       File generated by GOLD software.
#

@<TRIPOS>MOLECULE
CT1002167954|ligand_prepared|mol2|1|dock5
    29    30     1
SMALL
NO_CHARGES


@<TRIPOS>ATOM
      1 C1         224.4204 354.6198 -92.0974 C.3            1 RES1               0.0000
      2 C2         225.4763 354.4630 -90.9843 C.ar           1 RES1               0.0000
      3 C3         223.9240 353.2131 -92.4183 C.2            1 RES1               0.0000
      4 C4         223.3460 355.5463 -91.5388 C.2            1 RES1               0.0000
      5 C5         224.9707 355.2546 -93.3958 C.3            1 RES1               0.0000
      6 C6         225.1624 353.8087 -89.7968 C.ar           1 RES1               0.0000
      7 C7         226.7671 354.9641 -91.1311 C.ar           1 RES1               0.0000
      8 N8         222.6792 352.8673 -91.9814 N.am           1 RES1               0.0000
      9 O9         224.6295 352.4063 -93.0114 O.2            1 RES1               0.0000
     10 N10        222.0938 355.0283 -91.3355 N.am           1 RES1               0.0000
     11 O11        223.5769 356.7158 -91.2572 O.2            1 RES1               0.0000
     12 C12        223.9504 355.3325 -94.5205 C.3            1 RES1               0.0000
     13 C13        226.1054 353.6581 -88.7936 C.ar           1 RES1               0.0000
     14 C14        227.7085 354.8126 -90.1265 C.ar           1 RES1               0.0000
     15 C15        221.7197 353.7228 -91.5026 C.2            1 RES1               0.0000
     16 C16        227.3791 354.1595 -88.9579 C.ar           1 RES1               0.0000
     17 O17        220.5881 353.3215 -91.2467 O.2            1 RES1               0.0000
     18 H18        225.3259 356.2678 -93.1704 H              1 RES1               0.0000
     19 H19        225.8307 354.6666 -93.7394 H              1 RES1               0.0000
     20 H20        224.1645 353.4097 -89.6486 H              1 RES1               0.0000
     21 H21        227.0483 355.4824 -92.0415 H              1 RES1               0.0000
     22 H22        222.4397 351.8815 -92.0134 H              1 RES1               0.0000
     23 H23        221.3737 355.6760 -91.0316 H              1 RES1               0.0000
     24 H24        224.3880 355.7856 -95.4076 H              1 RES1               0.0000
     25 H25        223.5942 354.3397 -94.7877 H              1 RES1               0.0000
     26 H26        223.0924 355.9314 -94.2221 H              1 RES1               0.0000
     27 H27        225.8407 353.1445 -87.8753 H              1 RES1               0.0000
     28 H28        228.7096 355.2093 -90.2599 H              1 RES1               0.0000
     29 H29        228.1177 354.0410 -88.1721 H              1 RES1               0.0000
@<TRIPOS>BOND
    1    1    2 1     
    2    1    3 1     
    3    1    4 1     
    4    1    5 1     
    5    2    6 ar    
    6    2    7 ar    
    7    3    8 1     
    8    3    9 2     
    9    4   10 1     
   10    4   11 2     
   11    5   12 1     
   12    5   18 1     
   13    5   19 1     
   14    6   13 ar    
   15    6   20 1     
   16    7   14 ar    
   17    7   21 1     
   18    8   15 1     
   19    8   22 1     
   20   10   15 1     
   21   10   23 1     
   22   12   24 1     
   23   12   25 1     
   24   12   26 1     
   25   13   16 ar    
   26   13   27 1     
   27   14   16 ar    
   28   14   28 1     
   29   15   17 2     
   30   16   29 1     
@<TRIPOS>SUBSTRUCTURE
      1 RES1           1
@<TRIPOS>SET
DONOR_HYDROGENS      STATIC     ATOMS    <user>   **** ""
2 22 23
ATOM$RED        STATIC     ATOMS    COLORGROUP SYSTEM
2 22 23
@<TRIPOS>COMMENT
> <Gold.Version>
2022.3.0

> <Gold.Id.Protein>
unknown|7ts3_clean|pdb

> <Gold.Protein.RotatedTorsions>
[ 1457 1425 1424 1423 ] final   47.40 input   59.98 | X-H torsion
[ 3981 3955 3956 3957 ] final  149.09 input  120.40 | X-H torsion
[ 4062 4029 4030 4031 ] final  173.55 input  117.34 | X-H torsion
[ 6581 6560 6559 6557 ] final   29.45 input   59.98 | X-H torsion
[ 25706 25673 25674 25675 ] final -156.82 input   60.60 | X-H torsion
[ 4242 4229 4230 4231 ] final   35.98 input  128.17 | X-H torsion
[ 1447 1417 1418 1419 ] final  101.96 input   90.13 | X-H torsion
[ 1519 1499 1500 1501 ] final  103.75 input  110.10 | X-H torsion
[ 25633 25595 25596 25597 ] final  -89.88 input   68.08 | X-H torsion
[ 1222 1195 1196 1197 ] final  129.34 input  124.45 | X-H torsion
[ 1302 1275 1276 1277 ] final  164.26 input  121.39 | X-H torsion
[ 1365 1339 1340 1341 ] final  141.13 input  109.22 | X-H torsion
[ 1573 1545 1546 1547 ] final  115.53 input   73.55 | X-H torsion
[ 1579 1551 1549 1546 ] final  127.16 input   59.99 | X-H torsion
[ 25712 25679 25677 25674 ] final -148.39 input   60.00 | X-H torsion
[ 1523 1504 1503 1500 ] final  159.59 input   60.00 | X-H torsion
[ 1641 1603 1604 1605 ] final  -51.24 input   84.06 | X-H torsion
[ 27271 1198 1197 1196 ] final -146.61 input   -0.00 | X-H torsion
[ 27273 1420 1419 1418 ] final   34.84 input    0.00 | X-H torsion
[ 27280 3958 3957 3956 ] final    6.89 input   -0.00 | X-H torsion
[ 27285 6788 6787 6786 ] final  160.57 input   -0.00 | X-H torsion
[ 27288 23664 23663 23662 ] final   -8.54 input    0.00 | X-H torsion
[ 27291 25676 25675 25674 ] final  166.18 input    0.00 | X-H torsion
[ 27297 3694 3693 3692 ] final   35.15 input    0.00 | X-H torsion
[ 27300 25598 25597 25596 ] final  103.87 input   -0.00 | X-H torsion
[ 27305 1342 1341 1340 ] final   14.98 input    0.00 | X-H torsion
[ 27310 25508 25507 25506 ] final  123.66 input   -0.00 | X-H torsion
[ 27314 25737 25736 25735 ] final  123.03 input    0.00 | X-H torsion
[ 27316 1502 1501 1500 ] final  -35.76 input    0.00 | X-H torsion

> <Gold.Protein.ActiveResidues>
 LEU321  HIS322  LEU323  LYS324  SER325  THR326  LEU327  ARG348  GLU365  PHE366 
 GLN369  TYR370  SER372  SER373  TYR408  HIS412  ARG415  ASN416  ARG674  PRO678 
 TYR703  ARG704  LEU705  THR706  PRO707 

> <Gold.Protein.RotatedAtoms>
  223.6473  364.9657  -95.2209 H   0  0  0  0  0  0  0  0  0  0  0  0  # atno 1222 bound_to 1195
  226.5950  365.1634  -95.7599 H   0  0  0  0  0  0  0  0  0  0  0  0  # atno 1302 bound_to 1275
  227.2831  365.6597  -92.5684 H   0  0  0  0  0  0  0  0  0  0  0  0  # atno 1365 bound_to 1339
  228.1451  362.7942  -92.2104 H   0  0  0  0  0  0  0  0  0  0  0  0  # atno 1447 bound_to 1417
  226.2715  356.8371  -89.2554 H   0  0  0  0  0  0  0  0  0  0  0  0  # atno 1457 bound_to 1425
  226.1672  357.4386  -87.7142 H   0  0  0  0  0  0  0  0  0  0  0  0  # atno 1458 bound_to 1425
  225.5613  358.3104  -88.9874 H   0  0  0  0  0  0  0  0  0  0  0  0  # atno 1459 bound_to 1425
  231.0055  363.2053  -92.3424 H   0  0  0  0  0  0  0  0  0  0  0  0  # atno 1519 bound_to 1499
  233.9634  364.2995  -95.5566 H   0  0  0  0  0  0  0  0  0  0  0  0  # atno 1523 bound_to 1504
  234.0988  360.4314  -93.8526 H   0  0  0  0  0  0  0  0  0  0  0  0  # atno 1573 bound_to 1545
  235.7314  358.0272  -94.5657 H   0  0  0  0  0  0  0  0  0  0  0  0  # atno 1579 bound_to 1551
  236.9641  361.4888  -93.3454 H   0  0  0  0  0  0  0  0  0  0  0  0  # atno 1641 bound_to 1603
  228.4534  350.6171  -89.3515 H   0  0  0  0  0  0  0  0  0  0  0  0  # atno 3981 bound_to 3955
  227.4568  349.0310  -92.1985 H   0  0  0  0  0  0  0  0  0  0  0  0  # atno 4062 bound_to 4029
  222.1461  349.0373  -91.3293 H   0  0  0  0  0  0  0  0  0  0  0  0  # atno 4242 bound_to 4229
  224.6988  351.1339  -95.1188 H   0  0  0  0  0  0  0  0  0  0  0  0  # atno 6581 bound_to 6560
  234.0720  360.0283  -97.6558 H   0  0  0  0  0  0  0  0  0  0  0  0  # atno 25633 bound_to 25595
  233.4196  357.1611  -96.9397 H   0  0  0  0  0  0  0  0  0  0  0  0  # atno 25706 bound_to 25673
  235.5401  353.0286  -95.3423 H   0  0  0  0  0  0  0  0  0  0  0  0  # atno 25712 bound_to 25679
  228.0985  363.0777  -93.4742 LP  0  0  0  0  0  0  0  0  0  0  0  0  # atno 27271 bound_to 1198
  227.1154  361.8701  -94.2326 LP  0  0  0  0  0  0  0  0  0  0  0  0  # atno 27272 bound_to 1198
  230.7028  359.2884  -92.5629 LP  0  0  0  0  0  0  0  0  0  0  0  0  # atno 27273 bound_to 1420
  232.2873  359.9626  -92.3766 LP  0  0  0  0  0  0  0  0  0  0  0  0  # atno 27274 bound_to 1420
  227.1174  349.5108  -89.1367 LP  0  0  0  0  0  0  0  0  0  0  0  0  # atno 27279 bound_to 3955
  224.4495  351.0126  -91.5817 LP  0  0  0  0  0  0  0  0  0  0  0  0  # atno 27280 bound_to 3958
  224.2327  349.3922  -92.1539 LP  0  0  0  0  0  0  0  0  0  0  0  0  # atno 27281 bound_to 3958
  226.2115  349.0357  -90.9762 LP  0  0  0  0  0  0  0  0  0  0  0  0  # atno 27282 bound_to 4029
  225.9586  351.7465  -95.9463 LP  0  0  0  0  0  0  0  0  0  0  0  0  # atno 27283 bound_to 6560
  226.2104  350.9394  -94.5493 LP  0  0  0  0  0  0  0  0  0  0  0  0  # atno 27284 bound_to 6560
  230.3521  354.2901 -101.6756 LP  0  0  0  0  0  0  0  0  0  0  0  0  # atno 27285 bound_to 6788
  228.6257  354.3451 -101.8050 LP  0  0  0  0  0  0  0  0  0  0  0  0  # atno 27286 bound_to 6788
  221.8365  360.2279  -95.4856 LP  0  0  0  0  0  0  0  0  0  0  0  0  # atno 27288 bound_to 23664
  221.9327  361.9553  -95.4037 LP  0  0  0  0  0  0  0  0  0  0  0  0  # atno 27289 bound_to 23664
  232.0641  356.5302  -96.0446 LP  0  0  0  0  0  0  0  0  0  0  0  0  # atno 27290 bound_to 25673
  230.4474  353.7565  -95.9202 LP  0  0  0  0  0  0  0  0  0  0  0  0  # atno 27291 bound_to 25676
  231.3628  355.0379  -95.1991 LP  0  0  0  0  0  0  0  0  0  0  0  0  # atno 27292 bound_to 25676
  222.4104  350.7626  -91.3777 LP  0  0  0  0  0  0  0  0  0  0  0  0  # atno 27294 bound_to 4229
  229.2495  363.3913  -90.9845 LP  0  0  0  0  0  0  0  0  0  0  0  0  # atno 27295 bound_to 1417
  230.8887  361.4638  -92.3973 LP  0  0  0  0  0  0  0  0  0  0  0  0  # atno 27296 bound_to 1499
  229.9119  351.6880  -89.0758 LP  0  0  0  0  0  0  0  0  0  0  0  0  # atno 27297 bound_to 3694
  229.6447  350.1261  -89.7753 LP  0  0  0  0  0  0  0  0  0  0  0  0  # atno 27298 bound_to 3694
  232.9954  359.8414  -99.0254 LP  0  0  0  0  0  0  0  0  0  0  0  0  # atno 27299 bound_to 25595
  234.5758  356.8710  -98.6868 LP  0  0  0  0  0  0  0  0  0  0  0  0  # atno 27300 bound_to 25598
  233.0153  356.7594  -99.4300 LP  0  0  0  0  0  0  0  0  0  0  0  0  # atno 27301 bound_to 25598
  224.4450  365.2384  -93.6879 LP  0  0  0  0  0  0  0  0  0  0  0  0  # atno 27302 bound_to 1195
  226.6127  364.4292  -94.1719 LP  0  0  0  0  0  0  0  0  0  0  0  0  # atno 27303 bound_to 1275
  228.6266  364.6860  -93.1028 LP  0  0  0  0  0  0  0  0  0  0  0  0  # atno 27304 bound_to 1339
  229.7820  364.1428  -88.9244 LP  0  0  0  0  0  0  0  0  0  0  0  0  # atno 27305 bound_to 1342
  230.3532  362.6266  -89.5365 LP  0  0  0  0  0  0  0  0  0  0  0  0  # atno 27306 bound_to 1342
  234.3995  361.9333  -93.0070 LP  0  0  0  0  0  0  0  0  0  0  0  0  # atno 27307 bound_to 1545
  234.9730  359.4649  -94.4891 LP  0  0  0  0  0  0  0  0  0  0  0  0  # atno 27308 bound_to 1551
  234.2342  358.1183  -93.9346 LP  0  0  0  0  0  0  0  0  0  0  0  0  # atno 27309 bound_to 1551
  233.3500  360.8444  -95.7548 LP  0  0  0  0  0  0  0  0  0  0  0  0  # atno 27310 bound_to 25508
  235.0638  360.6289  -95.8831 LP  0  0  0  0  0  0  0  0  0  0  0  0  # atno 27311 bound_to 25508
  236.0065  353.8038  -96.6949 LP  0  0  0  0  0  0  0  0  0  0  0  0  # atno 27312 bound_to 25679
  234.6208  352.9399  -96.6821 LP  0  0  0  0  0  0  0  0  0  0  0  0  # atno 27313 bound_to 25679
  232.9205  355.1086  -99.8642 LP  0  0  0  0  0  0  0  0  0  0  0  0  # atno 27314 bound_to 25737
  231.7245  353.8709 -100.0584 LP  0  0  0  0  0  0  0  0  0  0  0  0  # atno 27315 bound_to 25737
  233.6291  363.1248  -91.1765 LP  0  0  0  0  0  0  0  0  0  0  0  0  # atno 27316 bound_to 1502
  234.2663  361.5784  -90.7262 LP  0  0  0  0  0  0  0  0  0  0  0  0  # atno 27317 bound_to 1502
  233.9751  362.6779  -95.4210 LP  0  0  0  0  0  0  0  0  0  0  0  0  # atno 27318 bound_to 1504
  234.8171  363.5946  -94.3639 LP  0  0  0  0  0  0  0  0  0  0  0  0  # atno 27319 bound_to 1504

> <Gold.Score>
     Fitness  S(hb_ext) S(vdw_ext)  S(hb_int)    S(int)      intcor
     36.41       5.40      22.59       0.00      -0.05      -0.77

> <Gold.Goldscore.Fitness>
36.4074

> <Gold.Goldscore.Internal.Vdw>
-0.4288

> <Gold.Goldscore.Internal.Torsion>
-0.3877

> <Gold.Goldscore.External.Vdw>
22.5869

> <Gold.Goldscore.Internal.HBond>
0.0000

> <Gold.Goldscore.External.HBond>
5.3982

> <Gold.Goldscore.Internal.Correction>
-0.7686

> <Gold.Goldscore.Hbonds>
donor molecule, donor type, donor heavy atom, donor atom, acceptor molecule, acceptor atom, score
      L1  H     8    22       P1  4229  0.90

> <Gold.Goldscore.Internal.Vdw.Weighted>
-0.4288

> <Gold.Goldscore.Internal.Torsion.Weighted>
-0.3877

> <Gold.Goldscore.External.Vdw.Weighted>
31.0570

> <Gold.Goldscore.Internal.HBond.Weighted>
0.0000

> <Gold.Goldscore.External.HBond.Weighted>
5.3982

> <Gold.Goldscore.Internal.Correction.Weighted>
-0.7686

> <Gold.Rescore>
     Score     S(PLP)   S(hbond)     S(cho)   S(metal)  DE(clash)   DE(tors)     intcor
     29.39     -29.10       0.14       0.00       0.00       0.00       0.06       ----

> <Gold.PLP.Fitness>
29.3876

> <Gold.PLP.PLP>
-29.1027

> <Gold.PLP.part.hbond>
-1.5026

> <Gold.PLP.part.metal>
0.0000

> <Gold.PLP.part.buried>
-4.5593

> <Gold.PLP.part.nonpolar>
-24.1865

> <Gold.PLP.part.repulsive>
0.4068

> <Gold.PLP.ligand.clash>
0.0000

> <Gold.PLP.ligand.torsion>
0.0639

> <Gold.PLP.Chemscore.Hbond>
0.1375

> <Gold.PLP.Chemscore.CHOScore>
0.0000

> <Gold.PLP.Chemscore.Metal>
0.0000

> <Gold.Chemscore.Hbonds>
donor molecule, donor type, donor heavy atom, donor atom, acceptor molecule, acceptor atom, score
      L1  H     8    22       P1  4229  0.35
      P1  H  6560  6581       L1     9  0.02

> <Gold.PLP.Chemscore.Internal.Correction>
   9.000000E+99

