#       Name:                CT1002167954
#       Creating user name   hitesit
#       Creation time:       Sun Apr 16 02:32:23 2023


#       File generated by GOLD software.
#

@<TRIPOS>MOLECULE
CT1002167954|ligand_prepared|mol2|1|dock10
    29    30     1
SMALL
NO_CHARGES


@<TRIPOS>ATOM
      1 C1         226.3832 356.1241 -93.2399 C.3            1 RES1               0.0000
      2 C2         225.4290 354.9652 -93.5938 C.ar           1 RES1               0.0000
      3 C3         227.2712 355.6174 -92.1073 C.2            1 RES1               0.0000
      4 C4         227.1394 356.4603 -94.5205 C.2            1 RES1               0.0000
      5 C5         225.6603 357.4049 -92.7618 C.3            1 RES1               0.0000
      6 C6         225.5191 354.3242 -94.8257 C.ar           1 RES1               0.0000
      7 C7         224.4572 354.5250 -92.6992 C.ar           1 RES1               0.0000
      8 N8         228.5657 355.3110 -92.4080 N.am           1 RES1               0.0000
      9 O9         226.8317 355.4514 -90.9761 O.2            1 RES1               0.0000
     10 N10        228.4903 356.2319 -94.5472 N.am           1 RES1               0.0000
     11 O11        226.5749 356.9053 -95.5122 O.2            1 RES1               0.0000
     12 C12        224.3798 357.7070 -93.5241 C.3            1 RES1               0.0000
     13 C13        224.6703 353.2790 -95.1505 C.ar           1 RES1               0.0000
     14 C14        223.6092 353.4797 -93.0261 C.ar           1 RES1               0.0000
     15 C15        229.2326 355.6438 -93.5596 C.2            1 RES1               0.0000
     16 C16        223.7153 352.8558 -94.2509 C.ar           1 RES1               0.0000
     17 O17        230.4341 355.4220 -93.6791 O.2            1 RES1               0.0000
     18 H18        225.4203 357.2982 -91.6967 H              1 RES1               0.0000
     19 H19        226.3436 358.2565 -92.8678 H              1 RES1               0.0000
     20 H20        226.2629 354.6451 -95.5474 H              1 RES1               0.0000
     21 H21        224.3548 355.0018 -91.7302 H              1 RES1               0.0000
     22 H22        229.0859 354.7860 -91.7124 H              1 RES1               0.0000
     23 H23        228.9887 356.5278 -95.3805 H              1 RES1               0.0000
     24 H24        223.9128 358.6153 -93.1490 H              1 RES1               0.0000
     25 H25        224.5849 357.8442 -94.5838 H              1 RES1               0.0000
     26 H26        223.6671 356.8915 -93.4196 H              1 RES1               0.0000
     27 H27        224.7570 352.7922 -96.1163 H              1 RES1               0.0000
     28 H28        222.8586 353.1504 -92.3152 H              1 RES1               0.0000
     29 H29        223.0508 352.0367 -94.5054 H              1 RES1               0.0000
@<TRIPOS>BOND
    1    1    2 1     
    2    1    3 1     
    3    1    4 1     
    4    1    5 1     
    5    2    6 ar    
    6    2    7 ar    
    7    3    8 1     
    8    3    9 2     
    9    4   10 1     
   10    4   11 2     
   11    5   12 1     
   12    5   18 1     
   13    5   19 1     
   14    6   13 ar    
   15    6   20 1     
   16    7   14 ar    
   17    7   21 1     
   18    8   15 1     
   19    8   22 1     
   20   10   15 1     
   21   10   23 1     
   22   12   24 1     
   23   12   25 1     
   24   12   26 1     
   25   13   16 ar    
   26   13   27 1     
   27   14   16 ar    
   28   14   28 1     
   29   15   17 2     
   30   16   29 1     
@<TRIPOS>SUBSTRUCTURE
      1 RES1           1
@<TRIPOS>SET
DONOR_HYDROGENS      STATIC     ATOMS    <user>   **** ""
2 22 23
ATOM$RED        STATIC     ATOMS    COLORGROUP SYSTEM
2 22 23
@<TRIPOS>COMMENT
> <Gold.Version>
2022.3.0

> <Gold.Id.Protein>
unknown|7ts3_clean|pdb

> <Gold.Protein.RotatedTorsions>
[ 1457 1425 1424 1423 ] final   67.05 input   59.98 | X-H torsion
[ 3981 3955 3956 3957 ] final   12.83 input  120.40 | X-H torsion
[ 4062 4029 4030 4031 ] final -176.79 input  117.34 | X-H torsion
[ 6581 6560 6559 6557 ] final -125.07 input   59.98 | X-H torsion
[ 25706 25673 25674 25675 ] final  105.68 input   60.60 | X-H torsion
[ 4242 4229 4230 4231 ] final -174.11 input  128.17 | X-H torsion
[ 1447 1417 1418 1419 ] final  -22.24 input   90.13 | X-H torsion
[ 1519 1499 1500 1501 ] final -101.13 input  110.10 | X-H torsion
[ 25633 25595 25596 25597 ] final -161.52 input   68.08 | X-H torsion
[ 1222 1195 1196 1197 ] final  -35.58 input  124.45 | X-H torsion
[ 1302 1275 1276 1277 ] final  121.19 input  121.39 | X-H torsion
[ 1365 1339 1340 1341 ] final  -56.04 input  109.22 | X-H torsion
[ 1573 1545 1546 1547 ] final  -91.48 input   73.55 | X-H torsion
[ 1579 1551 1549 1546 ] final   91.36 input   59.99 | X-H torsion
[ 25712 25679 25677 25674 ] final  155.13 input   60.00 | X-H torsion
[ 1523 1504 1503 1500 ] final  139.02 input   60.00 | X-H torsion
[ 1641 1603 1604 1605 ] final  -48.48 input   84.06 | X-H torsion
[ 27271 1198 1197 1196 ] final  124.80 input   -0.00 | X-H torsion
[ 27273 1420 1419 1418 ] final  -12.86 input    0.00 | X-H torsion
[ 27280 3958 3957 3956 ] final   24.38 input   -0.00 | X-H torsion
[ 27285 6788 6787 6786 ] final   50.18 input   -0.00 | X-H torsion
[ 27288 23664 23663 23662 ] final    8.68 input    0.00 | X-H torsion
[ 27291 25676 25675 25674 ] final  -86.70 input    0.00 | X-H torsion
[ 27297 3694 3693 3692 ] final    7.62 input    0.00 | X-H torsion
[ 27300 25598 25597 25596 ] final   56.11 input   -0.00 | X-H torsion
[ 27305 1342 1341 1340 ] final  151.22 input    0.00 | X-H torsion
[ 27310 25508 25507 25506 ] final   44.74 input   -0.00 | X-H torsion
[ 27314 25737 25736 25735 ] final  -14.38 input    0.00 | X-H torsion
[ 27316 1502 1501 1500 ] final  141.17 input    0.00 | X-H torsion

> <Gold.Protein.ActiveResidues>
 LEU321  HIS322  LEU323  LYS324  SER325  THR326  LEU327  ARG348  GLU365  PHE366 
 GLN369  TYR370  SER372  SER373  TYR408  HIS412  ARG415  ASN416  ARG674  PRO678 
 TYR703  ARG704  LEU705  THR706  PRO707 

> <Gold.Protein.RotatedAtoms>
  224.6154  365.3480  -93.8005 H   0  0  0  0  0  0  0  0  0  0  0  0  # atno 1222 bound_to 1195
  226.4535  365.5971  -95.2942 H   0  0  0  0  0  0  0  0  0  0  0  0  # atno 1302 bound_to 1275
  228.7380  364.9187  -93.1415 H   0  0  0  0  0  0  0  0  0  0  0  0  # atno 1365 bound_to 1339
  229.5327  363.4167  -91.7567 H   0  0  0  0  0  0  0  0  0  0  0  0  # atno 1447 bound_to 1417
  226.3731  356.7080  -88.9733 H   0  0  0  0  0  0  0  0  0  0  0  0  # atno 1457 bound_to 1425
  226.0197  357.7300  -87.7168 H   0  0  0  0  0  0  0  0  0  0  0  0  # atno 1458 bound_to 1425
  225.6072  358.1480  -89.2670 H   0  0  0  0  0  0  0  0  0  0  0  0  # atno 1459 bound_to 1425
  230.6874  361.5533  -92.7026 H   0  0  0  0  0  0  0  0  0  0  0  0  # atno 1519 bound_to 1499
  233.8122  364.0656  -95.7413 H   0  0  0  0  0  0  0  0  0  0  0  0  # atno 1523 bound_to 1504
  234.1388  361.7564  -92.7448 H   0  0  0  0  0  0  0  0  0  0  0  0  # atno 1573 bound_to 1545
  235.8376  358.5748  -94.7070 H   0  0  0  0  0  0  0  0  0  0  0  0  # atno 1579 bound_to 1551
  236.9482  361.5112  -93.3783 H   0  0  0  0  0  0  0  0  0  0  0  0  # atno 1641 bound_to 1603
  227.5568  349.2545  -89.5435 H   0  0  0  0  0  0  0  0  0  0  0  0  # atno 3981 bound_to 3955
  227.3781  349.1395  -92.2613 H   0  0  0  0  0  0  0  0  0  0  0  0  # atno 4062 bound_to 4029
  222.7846  350.5953  -91.5718 H   0  0  0  0  0  0  0  0  0  0  0  0  # atno 4242 bound_to 4229
  226.3902  351.5951  -95.6278 H   0  0  0  0  0  0  0  0  0  0  0  0  # atno 6581 bound_to 6560
  233.2026  360.5820  -97.8306 H   0  0  0  0  0  0  0  0  0  0  0  0  # atno 25633 bound_to 25595
  233.1014  356.8811  -95.6965 H   0  0  0  0  0  0  0  0  0  0  0  0  # atno 25706 bound_to 25673
  236.1347  353.5445  -95.7491 H   0  0  0  0  0  0  0  0  0  0  0  0  # atno 25712 bound_to 25679
  228.1267  362.5156  -94.5449 LP  0  0  0  0  0  0  0  0  0  0  0  0  # atno 27271 bound_to 1198
  227.0873  362.4323  -93.1619 LP  0  0  0  0  0  0  0  0  0  0  0  0  # atno 27272 bound_to 1198
  230.9374  359.2821  -91.9031 LP  0  0  0  0  0  0  0  0  0  0  0  0  # atno 27273 bound_to 1420
  232.0527  359.9689  -93.0364 LP  0  0  0  0  0  0  0  0  0  0  0  0  # atno 27274 bound_to 1420
  227.9919  350.8396  -88.9494 LP  0  0  0  0  0  0  0  0  0  0  0  0  # atno 27279 bound_to 3955
  224.5118  351.0508  -91.8347 LP  0  0  0  0  0  0  0  0  0  0  0  0  # atno 27280 bound_to 3958
  224.1704  349.3540  -91.9010 LP  0  0  0  0  0  0  0  0  0  0  0  0  # atno 27281 bound_to 3958
  226.2890  348.9287  -90.9144 LP  0  0  0  0  0  0  0  0  0  0  0  0  # atno 27282 bound_to 4029
  225.6920  350.7981  -94.3932 LP  0  0  0  0  0  0  0  0  0  0  0  0  # atno 27283 bound_to 6560
  224.7728  351.4232  -95.5895 LP  0  0  0  0  0  0  0  0  0  0  0  0  # atno 27284 bound_to 6560
  229.1269  354.3068 -100.9537 LP  0  0  0  0  0  0  0  0  0  0  0  0  # atno 27285 bound_to 6788
  229.8509  354.3283 -102.5270 LP  0  0  0  0  0  0  0  0  0  0  0  0  # atno 27286 bound_to 6788
  222.0146  360.2656  -95.6702 LP  0  0  0  0  0  0  0  0  0  0  0  0  # atno 27288 bound_to 23664
  221.7546  361.9175  -95.2191 LP  0  0  0  0  0  0  0  0  0  0  0  0  # atno 27289 bound_to 23664
  232.3806  356.8088  -97.2813 LP  0  0  0  0  0  0  0  0  0  0  0  0  # atno 27290 bound_to 25673
  231.3325  354.0580  -94.8872 LP  0  0  0  0  0  0  0  0  0  0  0  0  # atno 27291 bound_to 25676
  230.4777  354.7364  -96.2322 LP  0  0  0  0  0  0  0  0  0  0  0  0  # atno 27292 bound_to 25676
  221.7830  349.2319  -91.1395 LP  0  0  0  0  0  0  0  0  0  0  0  0  # atno 27294 bound_to 4229
  227.9262  362.7977  -91.4172 LP  0  0  0  0  0  0  0  0  0  0  0  0  # atno 27295 bound_to 1417
  231.2011  363.0866  -92.0434 LP  0  0  0  0  0  0  0  0  0  0  0  0  # atno 27296 bound_to 1499
  229.8338  351.4470  -88.7507 LP  0  0  0  0  0  0  0  0  0  0  0  0  # atno 27297 bound_to 3694
  229.7228  350.3671  -90.1004 LP  0  0  0  0  0  0  0  0  0  0  0  0  # atno 27298 bound_to 3694
  233.8312  359.3091  -98.8574 LP  0  0  0  0  0  0  0  0  0  0  0  0  # atno 27299 bound_to 25595
  234.3513  357.4731  -98.9671 LP  0  0  0  0  0  0  0  0  0  0  0  0  # atno 27300 bound_to 25598
  233.2398  356.1573  -99.1497 LP  0  0  0  0  0  0  0  0  0  0  0  0  # atno 27301 bound_to 25598
  223.5062  364.8677  -95.0653 LP  0  0  0  0  0  0  0  0  0  0  0  0  # atno 27302 bound_to 1195
  226.7500  364.0085  -94.6238 LP  0  0  0  0  0  0  0  0  0  0  0  0  # atno 27303 bound_to 1275
  227.1831  365.4211  -92.5342 LP  0  0  0  0  0  0  0  0  0  0  0  0  # atno 27304 bound_to 1339
  229.8055  362.5598  -89.2013 LP  0  0  0  0  0  0  0  0  0  0  0  0  # atno 27305 bound_to 1342
  230.3296  364.2096  -89.2595 LP  0  0  0  0  0  0  0  0  0  0  0  0  # atno 27306 bound_to 1342
  234.3607  360.6488  -94.0808 LP  0  0  0  0  0  0  0  0  0  0  0  0  # atno 27307 bound_to 1545
  234.4674  359.3214  -94.2450 LP  0  0  0  0  0  0  0  0  0  0  0  0  # atno 27308 bound_to 1551
  234.6330  357.7102  -94.0365 LP  0  0  0  0  0  0  0  0  0  0  0  0  # atno 27309 bound_to 1551
  234.1388  361.5939  -95.9215 LP  0  0  0  0  0  0  0  0  0  0  0  0  # atno 27310 bound_to 25508
  234.2750  359.8794  -95.7164 LP  0  0  0  0  0  0  0  0  0  0  0  0  # atno 27311 bound_to 25508
  235.2868  353.5177  -97.1379 LP  0  0  0  0  0  0  0  0  0  0  0  0  # atno 27312 bound_to 25679
  234.7420  352.7065  -95.8295 LP  0  0  0  0  0  0  0  0  0  0  0  0  # atno 27313 bound_to 25679
  231.7269  354.0962  -99.4711 LP  0  0  0  0  0  0  0  0  0  0  0  0  # atno 27314 bound_to 25737
  232.9182  354.8833 -100.4515 LP  0  0  0  0  0  0  0  0  0  0  0  0  # atno 27315 bound_to 25737
  234.2230  361.5648  -90.7165 LP  0  0  0  0  0  0  0  0  0  0  0  0  # atno 27316 bound_to 1502
  233.6724  363.1384  -91.1861 LP  0  0  0  0  0  0  0  0  0  0  0  0  # atno 27317 bound_to 1502
  234.1660  362.5879  -95.1587 LP  0  0  0  0  0  0  0  0  0  0  0  0  # atno 27318 bound_to 1504
  234.7786  363.9202  -94.4402 LP  0  0  0  0  0  0  0  0  0  0  0  0  # atno 27319 bound_to 1504

> <Gold.Score>
     Fitness  S(hb_ext) S(vdw_ext)  S(hb_int)    S(int)      intcor
     35.70       6.77      24.52       0.00      -4.78      -0.76

> <Gold.Goldscore.Fitness>
35.7025

> <Gold.Goldscore.Internal.Vdw>
-4.5373

> <Gold.Goldscore.Internal.Torsion>
-0.9985

> <Gold.Goldscore.External.Vdw>
24.5180

> <Gold.Goldscore.Internal.HBond>
0.0000

> <Gold.Goldscore.External.HBond>
6.7698

> <Gold.Goldscore.Internal.Correction>
-0.7562

> <Gold.Goldscore.Hbonds>
donor molecule, donor type, donor heavy atom, donor atom, acceptor molecule, acceptor atom, score
      P1  H 23671 23721       L1    11  0.57
      L1  H     8    22       P1  3698  0.56

> <Gold.Goldscore.Internal.Vdw.Weighted>
-4.5373

> <Gold.Goldscore.Internal.Torsion.Weighted>
-0.9985

> <Gold.Goldscore.External.Vdw.Weighted>
33.7123

> <Gold.Goldscore.Internal.HBond.Weighted>
0.0000

> <Gold.Goldscore.External.HBond.Weighted>
6.7698

> <Gold.Goldscore.Internal.Correction.Weighted>
-0.7562

> <Gold.Rescore>
     Score     S(PLP)   S(hbond)     S(cho)   S(metal)  DE(clash)   DE(tors)     intcor
     34.74     -30.28       2.40       0.00       0.00       1.87       0.43       ----

> <Gold.PLP.Fitness>
34.7379

> <Gold.PLP.PLP>
-30.2825

> <Gold.PLP.part.hbond>
-3.0000

> <Gold.PLP.part.metal>
0.0000

> <Gold.PLP.part.buried>
-6.4121

> <Gold.PLP.part.nonpolar>
-22.9351

> <Gold.PLP.part.repulsive>
0.7316

> <Gold.PLP.ligand.clash>
1.8702

> <Gold.PLP.ligand.torsion>
0.4330

> <Gold.PLP.Chemscore.Hbond>
2.3972

> <Gold.PLP.Chemscore.CHOScore>
0.0000

> <Gold.PLP.Chemscore.Metal>
0.0000

> <Gold.Chemscore.Hbonds>
donor molecule, donor type, donor heavy atom, donor atom, acceptor molecule, acceptor atom, score
      P1  H  1425  1457       L1     9  0.17
      P1  H 23671 23721       L1    11  1.00

> <Gold.PLP.Chemscore.Internal.Correction>
   9.000000E+99

