#       Name:                CT1002167954
#       Creating user name   hitesit
#       Creation time:       Sun Apr 16 02:32:20 2023


#       File generated by GOLD software.
#

@<TRIPOS>MOLECULE
CT1002167954|ligand_prepared|mol2|1|dock4
    29    30     1
SMALL
NO_CHARGES


@<TRIPOS>ATOM
      1 C1         226.1087 356.2374 -93.6154 C.3            1 RES1               0.0000
      2 C2         227.6330 356.2414 -93.3802 C.ar           1 RES1               0.0000
      3 C3         225.8440 355.1888 -94.6918 C.2            1 RES1               0.0000
      4 C4         225.4700 355.9205 -92.2677 C.2            1 RES1               0.0000
      5 C5         225.5482 357.5938 -94.1026 C.3            1 RES1               0.0000
      6 C6         228.1869 355.5432 -92.3113 C.ar           1 RES1               0.0000
      7 C7         228.4967 356.9351 -94.2236 C.ar           1 RES1               0.0000
      8 N8         225.2792 354.0107 -94.3008 N.am           1 RES1               0.0000
      9 O9         226.1624 355.3772 -95.8594 O.2            1 RES1               0.0000
     10 N10        224.7880 354.7386 -92.1424 N.am           1 RES1               0.0000
     11 O11        225.5653 356.6760 -91.3083 O.2            1 RES1               0.0000
     12 C12        224.0291 357.6547 -94.1315 C.3            1 RES1               0.0000
     13 C13        229.5550 355.5363 -92.0951 C.ar           1 RES1               0.0000
     14 C14        229.8645 356.9271 -94.0054 C.ar           1 RES1               0.0000
     15 C15        224.6897 353.7553 -93.0888 C.2            1 RES1               0.0000
     16 C16        230.3946 356.2278 -92.9421 C.ar           1 RES1               0.0000
     17 O17        224.1049 352.6957 -92.8828 O.2            1 RES1               0.0000
     18 H18        225.9209 358.3873 -93.4432 H              1 RES1               0.0000
     19 H19        225.9287 357.7909 -95.1125 H              1 RES1               0.0000
     20 H20        227.5417 354.9952 -91.6328 H              1 RES1               0.0000
     21 H21        228.1019 357.4931 -95.0658 H              1 RES1               0.0000
     22 H22        225.2967 353.2491 -94.9716 H              1 RES1               0.0000
     23 H23        224.3090 354.5769 -91.2622 H              1 RES1               0.0000
     24 H24        223.6886 358.6273 -94.4806 H              1 RES1               0.0000
     25 H25        223.6252 356.8952 -94.7976 H              1 RES1               0.0000
     26 H26        223.6175 357.4880 -93.1382 H              1 RES1               0.0000
     27 H27        229.9670 354.9855 -91.2560 H              1 RES1               0.0000
     28 H28        230.5216 357.4732 -94.6742 H              1 RES1               0.0000
     29 H29        231.4663 356.2219 -92.7727 H              1 RES1               0.0000
@<TRIPOS>BOND
    1    1    2 1     
    2    1    3 1     
    3    1    4 1     
    4    1    5 1     
    5    2    6 ar    
    6    2    7 ar    
    7    3    8 1     
    8    3    9 2     
    9    4   10 1     
   10    4   11 2     
   11    5   12 1     
   12    5   18 1     
   13    5   19 1     
   14    6   13 ar    
   15    6   20 1     
   16    7   14 ar    
   17    7   21 1     
   18    8   15 1     
   19    8   22 1     
   20   10   15 1     
   21   10   23 1     
   22   12   24 1     
   23   12   25 1     
   24   12   26 1     
   25   13   16 ar    
   26   13   27 1     
   27   14   16 ar    
   28   14   28 1     
   29   15   17 2     
   30   16   29 1     
@<TRIPOS>SUBSTRUCTURE
      1 RES1           1
@<TRIPOS>SET
DONOR_HYDROGENS      STATIC     ATOMS    <user>   **** ""
2 22 23
ATOM$RED        STATIC     ATOMS    COLORGROUP SYSTEM
2 22 23
@<TRIPOS>COMMENT
> <Gold.Version>
2022.3.0

> <Gold.Id.Protein>
unknown|7ts3_clean|pdb

> <Gold.Protein.RotatedTorsions>
[ 1457 1425 1424 1423 ] final   68.61 input   59.98 | X-H torsion
[ 3981 3955 3956 3957 ] final   75.97 input  120.40 | X-H torsion
[ 4062 4029 4030 4031 ] final  -39.59 input  117.34 | X-H torsion
[ 6581 6560 6559 6557 ] final  145.74 input   59.98 | X-H torsion
[ 25706 25673 25674 25675 ] final    0.98 input   60.60 | X-H torsion
[ 4242 4229 4230 4231 ] final  100.08 input  128.17 | X-H torsion
[ 1447 1417 1418 1419 ] final  108.31 input   90.13 | X-H torsion
[ 1519 1499 1500 1501 ] final   66.44 input  110.10 | X-H torsion
[ 25633 25595 25596 25597 ] final -151.46 input   68.08 | X-H torsion
[ 1222 1195 1196 1197 ] final  101.85 input  124.45 | X-H torsion
[ 1302 1275 1276 1277 ] final   77.91 input  121.39 | X-H torsion
[ 1365 1339 1340 1341 ] final  -52.89 input  109.22 | X-H torsion
[ 1573 1545 1546 1547 ] final  101.13 input   73.55 | X-H torsion
[ 1579 1551 1549 1546 ] final -144.06 input   59.99 | X-H torsion
[ 25712 25679 25677 25674 ] final  171.51 input   60.00 | X-H torsion
[ 1523 1504 1503 1500 ] final  -20.51 input   60.00 | X-H torsion
[ 1641 1603 1604 1605 ] final  -89.34 input   84.06 | X-H torsion
[ 27271 1198 1197 1196 ] final  -96.00 input   -0.00 | X-H torsion
[ 27273 1420 1419 1418 ] final    6.37 input    0.00 | X-H torsion
[ 27280 3958 3957 3956 ] final   48.88 input   -0.00 | X-H torsion
[ 27285 6788 6787 6786 ] final  160.48 input   -0.00 | X-H torsion
[ 27288 23664 23663 23662 ] final -145.36 input    0.00 | X-H torsion
[ 27291 25676 25675 25674 ] final  112.02 input    0.00 | X-H torsion
[ 27297 3694 3693 3692 ] final   38.81 input    0.00 | X-H torsion
[ 27300 25598 25597 25596 ] final -131.33 input   -0.00 | X-H torsion
[ 27305 1342 1341 1340 ] final   35.99 input    0.00 | X-H torsion
[ 27310 25508 25507 25506 ] final  113.38 input   -0.00 | X-H torsion
[ 27314 25737 25736 25735 ] final   77.58 input    0.00 | X-H torsion
[ 27316 1502 1501 1500 ] final  -16.12 input    0.00 | X-H torsion

> <Gold.Protein.ActiveResidues>
 LEU321  HIS322  LEU323  LYS324  SER325  THR326  LEU327  ARG348  GLU365  PHE366 
 GLN369  TYR370  SER372  SER373  TYR408  HIS412  ARG415  ASN416  ARG674  PRO678 
 TYR703  ARG704  LEU705  THR706  PRO707 

> <Gold.Protein.RotatedAtoms>
  223.9821  365.2016  -95.3226 H   0  0  0  0  0  0  0  0  0  0  0  0  # atno 1222 bound_to 1195
  226.3974  365.5960  -94.6416 H   0  0  0  0  0  0  0  0  0  0  0  0  # atno 1302 bound_to 1275
  228.7224  364.8733  -93.1400 H   0  0  0  0  0  0  0  0  0  0  0  0  # atno 1365 bound_to 1339
  228.0829  362.7723  -92.1358 H   0  0  0  0  0  0  0  0  0  0  0  0  # atno 1447 bound_to 1417
  226.3794  356.7017  -88.9488 H   0  0  0  0  0  0  0  0  0  0  0  0  # atno 1457 bound_to 1425
  226.0077  357.7525  -87.7217 H   0  0  0  0  0  0  0  0  0  0  0  0  # atno 1458 bound_to 1425
  225.6129  358.1318  -89.2865 H   0  0  0  0  0  0  0  0  0  0  0  0  # atno 1459 bound_to 1425
  231.2843  362.9919  -91.9015 H   0  0  0  0  0  0  0  0  0  0  0  0  # atno 1519 bound_to 1499
  234.5377  362.7533  -94.6707 H   0  0  0  0  0  0  0  0  0  0  0  0  # atno 1523 bound_to 1504
  234.2471  360.5150  -93.9961 H   0  0  0  0  0  0  0  0  0  0  0  0  # atno 1573 bound_to 1545
  234.5743  357.7531  -94.0165 H   0  0  0  0  0  0  0  0  0  0  0  0  # atno 1579 bound_to 1551
  237.1803  361.0408  -93.0474 H   0  0  0  0  0  0  0  0  0  0  0  0  # atno 1641 bound_to 1603
  228.3484  349.6659  -89.7937 H   0  0  0  0  0  0  0  0  0  0  0  0  # atno 3981 bound_to 3955
  226.0802  349.3932  -91.2970 H   0  0  0  0  0  0  0  0  0  0  0  0  # atno 4062 bound_to 4029
  222.9180  349.4106  -91.7014 H   0  0  0  0  0  0  0  0  0  0  0  0  # atno 4242 bound_to 4229
  226.1580  350.9181  -94.5258 H   0  0  0  0  0  0  0  0  0  0  0  0  # atno 6581 bound_to 6560
  233.3281  360.5531  -97.7413 H   0  0  0  0  0  0  0  0  0  0  0  0  # atno 25633 bound_to 25595
  231.9303  356.5477  -96.3527 H   0  0  0  0  0  0  0  0  0  0  0  0  # atno 25706 bound_to 25673
  236.0163  353.4017  -95.5574 H   0  0  0  0  0  0  0  0  0  0  0  0  # atno 25712 bound_to 25679
  227.5265  362.8364  -93.0710 LP  0  0  0  0  0  0  0  0  0  0  0  0  # atno 27271 bound_to 1198
  227.6874  362.1114  -94.6358 LP  0  0  0  0  0  0  0  0  0  0  0  0  # atno 27272 bound_to 1198
  230.7828  359.2541  -92.1460 LP  0  0  0  0  0  0  0  0  0  0  0  0  # atno 27273 bound_to 1420
  232.2072  359.9970  -92.7936 LP  0  0  0  0  0  0  0  0  0  0  0  0  # atno 27274 bound_to 1420
  227.2199  350.4385  -88.7054 LP  0  0  0  0  0  0  0  0  0  0  0  0  # atno 27279 bound_to 3955
  224.5716  350.9730  -92.1888 LP  0  0  0  0  0  0  0  0  0  0  0  0  # atno 27280 bound_to 3958
  224.1106  349.4318  -91.5469 LP  0  0  0  0  0  0  0  0  0  0  0  0  # atno 27281 bound_to 3958
  227.5677  348.6788  -91.8644 LP  0  0  0  0  0  0  0  0  0  0  0  0  # atno 27282 bound_to 4029
  224.6843  351.1651  -95.1695 LP  0  0  0  0  0  0  0  0  0  0  0  0  # atno 27283 bound_to 6560
  226.0145  351.7382  -95.9236 LP  0  0  0  0  0  0  0  0  0  0  0  0  # atno 27284 bound_to 6560
  230.3520  354.2900 -101.6742 LP  0  0  0  0  0  0  0  0  0  0  0  0  # atno 27285 bound_to 6788
  228.6258  354.3451 -101.8064 LP  0  0  0  0  0  0  0  0  0  0  0  0  # atno 27286 bound_to 6788
  221.5129  361.7236  -94.9837 LP  0  0  0  0  0  0  0  0  0  0  0  0  # atno 27288 bound_to 23664
  222.2563  360.4596  -95.9056 LP  0  0  0  0  0  0  0  0  0  0  0  0  # atno 27289 bound_to 23664
  233.5456  357.1404  -96.6286 LP  0  0  0  0  0  0  0  0  0  0  0  0  # atno 27290 bound_to 25673
  230.3888  354.4697  -96.2512 LP  0  0  0  0  0  0  0  0  0  0  0  0  # atno 27291 bound_to 25676
  231.4214  354.3247  -94.8681 LP  0  0  0  0  0  0  0  0  0  0  0  0  # atno 27292 bound_to 25676
  221.6520  350.3959  -91.0121 LP  0  0  0  0  0  0  0  0  0  0  0  0  # atno 27294 bound_to 4229
  229.3088  363.4122  -91.0556 LP  0  0  0  0  0  0  0  0  0  0  0  0  # atno 27295 bound_to 1417
  230.6148  361.6734  -92.8304 LP  0  0  0  0  0  0  0  0  0  0  0  0  # atno 27296 bound_to 1499
  229.9203  351.7074  -89.1269 LP  0  0  0  0  0  0  0  0  0  0  0  0  # atno 27297 bound_to 3694
  229.6362  350.1067  -89.7242 LP  0  0  0  0  0  0  0  0  0  0  0  0  # atno 27298 bound_to 3694
  233.7105  359.3370  -98.9432 LP  0  0  0  0  0  0  0  0  0  0  0  0  # atno 27299 bound_to 25595
  233.3157  356.0952  -99.0946 LP  0  0  0  0  0  0  0  0  0  0  0  0  # atno 27300 bound_to 25598
  234.2754  357.5352  -99.0221 LP  0  0  0  0  0  0  0  0  0  0  0  0  # atno 27301 bound_to 25598
  224.1203  365.0097  -93.5892 LP  0  0  0  0  0  0  0  0  0  0  0  0  # atno 27302 bound_to 1195
  226.8044  364.0095  -95.2568 LP  0  0  0  0  0  0  0  0  0  0  0  0  # atno 27303 bound_to 1275
  227.1986  365.4662  -92.5357 LP  0  0  0  0  0  0  0  0  0  0  0  0  # atno 27304 bound_to 1339
  229.5582  363.9487  -88.8151 LP  0  0  0  0  0  0  0  0  0  0  0  0  # atno 27305 bound_to 1342
  230.5769  362.8208  -89.6458 LP  0  0  0  0  0  0  0  0  0  0  0  0  # atno 27306 bound_to 1342
  234.2558  361.8521  -92.8678 LP  0  0  0  0  0  0  0  0  0  0  0  0  # atno 27307 bound_to 1545
  235.8478  358.5005  -94.7005 LP  0  0  0  0  0  0  0  0  0  0  0  0  # atno 27308 bound_to 1551
  234.5249  359.3588  -94.2764 LP  0  0  0  0  0  0  0  0  0  0  0  0  # atno 27309 bound_to 1551
  233.3813  360.9947  -95.7767 LP  0  0  0  0  0  0  0  0  0  0  0  0  # atno 27310 bound_to 25508
  235.0325  360.4786  -95.8612 LP  0  0  0  0  0  0  0  0  0  0  0  0  # atno 27311 bound_to 25508
  235.5187  353.6435  -97.0878 LP  0  0  0  0  0  0  0  0  0  0  0  0  # atno 27312 bound_to 25679
  234.6292  352.7245  -96.0725 LP  0  0  0  0  0  0  0  0  0  0  0  0  # atno 27313 bound_to 25679
  232.5784  354.9892  -99.3017 LP  0  0  0  0  0  0  0  0  0  0  0  0  # atno 27314 bound_to 25737
  232.0666  353.9903 -100.6209 LP  0  0  0  0  0  0  0  0  0  0  0  0  # atno 27315 bound_to 25737
  233.3788  362.9873  -91.1008 LP  0  0  0  0  0  0  0  0  0  0  0  0  # atno 27316 bound_to 1502
  234.5165  361.7159  -90.8019 LP  0  0  0  0  0  0  0  0  0  0  0  0  # atno 27317 bound_to 1502
  234.5274  364.3745  -94.8108 LP  0  0  0  0  0  0  0  0  0  0  0  0  # atno 27318 bound_to 1504
  233.6863  363.4555  -95.8665 LP  0  0  0  0  0  0  0  0  0  0  0  0  # atno 27319 bound_to 1504

> <Gold.Score>
     Fitness  S(hb_ext) S(vdw_ext)  S(hb_int)    S(int)      intcor
     39.70       4.63      26.24       0.00      -1.01      -0.77

> <Gold.Goldscore.Fitness>
39.6959

> <Gold.Goldscore.Internal.Vdw>
-1.2936

> <Gold.Goldscore.Internal.Torsion>
-0.4878

> <Gold.Goldscore.External.Vdw>
26.2390

> <Gold.Goldscore.Internal.HBond>
0.0000

> <Gold.Goldscore.External.HBond>
4.6300

> <Gold.Goldscore.Internal.Correction>
-0.7686

> <Gold.Goldscore.Hbonds>
donor molecule, donor type, donor heavy atom, donor atom, acceptor molecule, acceptor atom, score
      P1  H 23671 23721       L1     9  0.77
      L1  H     8    22       P1  6560  0.01

> <Gold.Goldscore.Internal.Vdw.Weighted>
-1.2936

> <Gold.Goldscore.Internal.Torsion.Weighted>
-0.4878

> <Gold.Goldscore.External.Vdw.Weighted>
36.0787

> <Gold.Goldscore.Internal.HBond.Weighted>
0.0000

> <Gold.Goldscore.External.HBond.Weighted>
4.6300

> <Gold.Goldscore.Internal.Correction.Weighted>
-0.7686

> <Gold.Rescore>
     Score     S(PLP)   S(hbond)     S(cho)   S(metal)  DE(clash)   DE(tors)     intcor
     38.96     -36.87       1.48       0.00       0.00       0.83       0.77       ----

> <Gold.PLP.Fitness>
38.9581

> <Gold.PLP.PLP>
-36.8713

> <Gold.PLP.part.hbond>
-2.1328

> <Gold.PLP.part.metal>
0.0000

> <Gold.PLP.part.buried>
-5.9421

> <Gold.PLP.part.nonpolar>
-30.5386

> <Gold.PLP.part.repulsive>
1.0124

> <Gold.PLP.ligand.clash>
0.8335

> <Gold.PLP.ligand.torsion>
0.7661

> <Gold.PLP.Chemscore.Hbond>
1.4842

> <Gold.PLP.Chemscore.CHOScore>
0.0000

> <Gold.PLP.Chemscore.Metal>
0.0000

> <Gold.Chemscore.Hbonds>
donor molecule, donor type, donor heavy atom, donor atom, acceptor molecule, acceptor atom, score
      L1  H     8    22       P1  6560  0.21
      P1  H 23671 23721       L1     9  1.00

> <Gold.PLP.Chemscore.Internal.Correction>
   9.000000E+99

