#       Name:                CT1002167954
#       Creating user name   hitesit
#       Creation time:       Sun Apr 16 02:32:21 2023


#       File generated by GOLD software.
#

@<TRIPOS>MOLECULE
CT1002167954|ligand_prepared|mol2|1|dock7
    29    30     1
SMALL
NO_CHARGES


@<TRIPOS>ATOM
      1 C1         224.3884 354.8584 -91.8763 C.3            1 RES1               0.0000
      2 C2         225.5724 354.6557 -90.9090 C.ar           1 RES1               0.0000
      3 C3         223.9612 353.4652 -92.3286 C.2            1 RES1               0.0000
      4 C4         223.3206 355.6124 -91.0915 C.2            1 RES1               0.0000
      5 C5         224.7407 355.6948 -93.1285 C.3            1 RES1               0.0000
      6 C6         225.3668 354.1261 -89.6386 C.ar           1 RES1               0.0000
      7 C7         226.8739 354.9904 -91.2732 C.ar           1 RES1               0.0000
      8 N8         222.8022 352.9619 -91.8154 N.am           1 RES1               0.0000
      9 O9         224.6509 352.8021 -93.0934 O.2            1 RES1               0.0000
     10 N10        222.1400 354.9674 -90.8307 N.am           1 RES1               0.0000
     11 O11        223.4972 356.7532 -90.6821 O.2            1 RES1               0.0000
     12 C12        223.5366 356.0531 -93.9852 C.3            1 RES1               0.0000
     13 C13        226.4244 353.9352 -88.7649 C.ar           1 RES1               0.0000
     14 C14        227.9301 354.7989 -90.3978 C.ar           1 RES1               0.0000
     15 C15        221.8442 353.6655 -91.1305 C.2            1 RES1               0.0000
     16 C16        227.7067 354.2710 -89.1439 C.ar           1 RES1               0.0000
     17 O17        220.7808 353.1397 -90.8148 O.2            1 RES1               0.0000
     18 H18        225.2337 356.6207 -92.8074 H              1 RES1               0.0000
     19 H19        225.4543 355.1301 -93.7411 H              1 RES1               0.0000
     20 H20        224.3644 353.8582 -89.3218 H              1 RES1               0.0000
     21 H21        227.0732 355.4082 -92.2542 H              1 RES1               0.0000
     22 H22        222.6321 351.9708 -91.9535 H              1 RES1               0.0000
     23 H23        221.4144 355.5078 -90.3706 H              1 RES1               0.0000
     24 H24        223.8394 356.6396 -94.8501 H              1 RES1               0.0000
     25 H25        223.0367 355.1553 -94.3428 H              1 RES1               0.0000
     26 H26        222.8174 356.6371 -93.4147 H              1 RES1               0.0000
     27 H27        226.2431 353.5206 -87.7787 H              1 RES1               0.0000
     28 H28        228.9375 355.0651 -90.7001 H              1 RES1               0.0000
     29 H29        228.5350 354.1210 -88.4595 H              1 RES1               0.0000
@<TRIPOS>BOND
    1    1    2 1     
    2    1    3 1     
    3    1    4 1     
    4    1    5 1     
    5    2    6 ar    
    6    2    7 ar    
    7    3    8 1     
    8    3    9 2     
    9    4   10 1     
   10    4   11 2     
   11    5   12 1     
   12    5   18 1     
   13    5   19 1     
   14    6   13 ar    
   15    6   20 1     
   16    7   14 ar    
   17    7   21 1     
   18    8   15 1     
   19    8   22 1     
   20   10   15 1     
   21   10   23 1     
   22   12   24 1     
   23   12   25 1     
   24   12   26 1     
   25   13   16 ar    
   26   13   27 1     
   27   14   16 ar    
   28   14   28 1     
   29   15   17 2     
   30   16   29 1     
@<TRIPOS>SUBSTRUCTURE
      1 RES1           1
@<TRIPOS>SET
DONOR_HYDROGENS      STATIC     ATOMS    <user>   **** ""
2 22 23
ATOM$RED        STATIC     ATOMS    COLORGROUP SYSTEM
2 22 23
@<TRIPOS>COMMENT
> <Gold.Version>
2022.3.0

> <Gold.Id.Protein>
unknown|7ts3_clean|pdb

> <Gold.Protein.RotatedTorsions>
[ 1457 1425 1424 1423 ] final   -1.83 input   59.98 | X-H torsion
[ 3981 3955 3956 3957 ] final -159.89 input  120.40 | X-H torsion
[ 4062 4029 4030 4031 ] final -102.22 input  117.34 | X-H torsion
[ 6581 6560 6559 6557 ] final -173.29 input   59.98 | X-H torsion
[ 25706 25673 25674 25675 ] final  -66.76 input   60.60 | X-H torsion
[ 4242 4229 4230 4231 ] final   38.57 input  128.17 | X-H torsion
[ 1447 1417 1418 1419 ] final  -16.62 input   90.13 | X-H torsion
[ 1519 1499 1500 1501 ] final  123.86 input  110.10 | X-H torsion
[ 25633 25595 25596 25597 ] final   76.13 input   68.08 | X-H torsion
[ 1222 1195 1196 1197 ] final  173.83 input  124.45 | X-H torsion
[ 1302 1275 1276 1277 ] final -166.82 input  121.39 | X-H torsion
[ 1365 1339 1340 1341 ] final   39.34 input  109.22 | X-H torsion
[ 1573 1545 1546 1547 ] final  -78.62 input   73.55 | X-H torsion
[ 1579 1551 1549 1546 ] final  102.01 input   59.99 | X-H torsion
[ 25712 25679 25677 25674 ] final   64.19 input   60.00 | X-H torsion
[ 1523 1504 1503 1500 ] final -153.56 input   60.00 | X-H torsion
[ 1641 1603 1604 1605 ] final  173.19 input   84.06 | X-H torsion
[ 27271 1198 1197 1196 ] final  -63.05 input   -0.00 | X-H torsion
[ 27273 1420 1419 1418 ] final  166.54 input    0.00 | X-H torsion
[ 27280 3958 3957 3956 ] final  130.18 input   -0.00 | X-H torsion
[ 27285 6788 6787 6786 ] final  -60.89 input   -0.00 | X-H torsion
[ 27288 23664 23663 23662 ] final -121.98 input    0.00 | X-H torsion
[ 27291 25676 25675 25674 ] final -103.63 input    0.00 | X-H torsion
[ 27297 3694 3693 3692 ] final -151.53 input    0.00 | X-H torsion
[ 27300 25598 25597 25596 ] final   28.58 input   -0.00 | X-H torsion
[ 27305 1342 1341 1340 ] final  162.42 input    0.00 | X-H torsion
[ 27310 25508 25507 25506 ] final -164.04 input   -0.00 | X-H torsion
[ 27314 25737 25736 25735 ] final  -28.45 input    0.00 | X-H torsion
[ 27316 1502 1501 1500 ] final  -72.16 input    0.00 | X-H torsion

> <Gold.Protein.ActiveResidues>
 LEU321  HIS322  LEU323  LYS324  SER325  THR326  LEU327  ARG348  GLU365  PHE366 
 GLN369  TYR370  SER372  SER373  TYR408  HIS412  ARG415  ASN416  ARG674  PRO678 
 TYR703  ARG704  LEU705  THR706  PRO707 

> <Gold.Protein.RotatedAtoms>
  223.3266  364.6677  -94.7105 H   0  0  0  0  0  0  0  0  0  0  0  0  # atno 1222 bound_to 1195
  226.7006  364.7393  -95.8352 H   0  0  0  0  0  0  0  0  0  0  0  0  # atno 1302 bound_to 1275
  227.6201  364.3645  -92.7979 H   0  0  0  0  0  0  0  0  0  0  0  0  # atno 1365 bound_to 1339
  229.5150  363.4037  -91.8419 H   0  0  0  0  0  0  0  0  0  0  0  0  # atno 1447 bound_to 1417
  225.9128  357.4585  -89.6025 H   0  0  0  0  0  0  0  0  0  0  0  0  # atno 1457 bound_to 1425
  226.4196  356.8254  -88.1567 H   0  0  0  0  0  0  0  0  0  0  0  0  # atno 1458 bound_to 1425
  225.6676  358.3022  -88.1972 H   0  0  0  0  0  0  0  0  0  0  0  0  # atno 1459 bound_to 1425
  230.8366  363.1708  -92.5971 H   0  0  0  0  0  0  0  0  0  0  0  0  # atno 1519 bound_to 1499
  234.4062  364.4383  -94.9747 H   0  0  0  0  0  0  0  0  0  0  0  0  # atno 1523 bound_to 1504
  234.2721  361.8666  -92.8431 H   0  0  0  0  0  0  0  0  0  0  0  0  # atno 1573 bound_to 1545
  235.8404  358.4034  -94.6784 H   0  0  0  0  0  0  0  0  0  0  0  0  # atno 1579 bound_to 1551
  237.2964  359.9431  -93.7993 H   0  0  0  0  0  0  0  0  0  0  0  0  # atno 1641 bound_to 1603
  227.8960  350.8609  -88.8925 H   0  0  0  0  0  0  0  0  0  0  0  0  # atno 3981 bound_to 3955
  226.4804  349.6783  -92.0673 H   0  0  0  0  0  0  0  0  0  0  0  0  # atno 4062 bound_to 4029
  222.1813  349.0323  -91.3474 H   0  0  0  0  0  0  0  0  0  0  0  0  # atno 4242 bound_to 4229
  226.5261  351.2201  -94.9756 H   0  0  0  0  0  0  0  0  0  0  0  0  # atno 6581 bound_to 6560
  233.0982  359.6605  -99.0911 H   0  0  0  0  0  0  0  0  0  0  0  0  # atno 25633 bound_to 25595
  232.2771  356.7893  -97.2297 H   0  0  0  0  0  0  0  0  0  0  0  0  # atno 25706 bound_to 25673
  235.6888  353.7187  -96.9952 H   0  0  0  0  0  0  0  0  0  0  0  0  # atno 25712 bound_to 25679
  227.1576  362.5150  -93.1142 LP  0  0  0  0  0  0  0  0  0  0  0  0  # atno 27271 bound_to 1198
  228.0564  362.4328  -94.5925 LP  0  0  0  0  0  0  0  0  0  0  0  0  # atno 27272 bound_to 1198
  232.0467  359.9674  -93.0431 LP  0  0  0  0  0  0  0  0  0  0  0  0  # atno 27273 bound_to 1420
  230.9433  359.2836  -91.8964 LP  0  0  0  0  0  0  0  0  0  0  0  0  # atno 27274 bound_to 1420
  227.6611  349.2731  -89.5843 LP  0  0  0  0  0  0  0  0  0  0  0  0  # atno 27279 bound_to 3955
  224.4689  349.9682  -92.6917 LP  0  0  0  0  0  0  0  0  0  0  0  0  # atno 27280 bound_to 3958
  224.2133  350.4366  -91.0439 LP  0  0  0  0  0  0  0  0  0  0  0  0  # atno 27281 bound_to 3958
  227.1735  348.3979  -91.1055 LP  0  0  0  0  0  0  0  0  0  0  0  0  # atno 27282 bound_to 4029
  224.9693  350.8809  -94.6465 LP  0  0  0  0  0  0  0  0  0  0  0  0  # atno 27283 bound_to 6560
  225.3586  351.7182  -95.9934 LP  0  0  0  0  0  0  0  0  0  0  0  0  # atno 27284 bound_to 6560
  228.8854  354.3526 -102.3604 LP  0  0  0  0  0  0  0  0  0  0  0  0  # atno 27285 bound_to 6788
  230.0924  354.2826 -101.1202 LP  0  0  0  0  0  0  0  0  0  0  0  0  # atno 27286 bound_to 6788
  221.3584  361.4380  -94.8505 LP  0  0  0  0  0  0  0  0  0  0  0  0  # atno 27288 bound_to 23664
  222.4108  360.7451  -96.0388 LP  0  0  0  0  0  0  0  0  0  0  0  0  # atno 27289 bound_to 23664
  233.2006  356.9002  -95.7561 LP  0  0  0  0  0  0  0  0  0  0  0  0  # atno 27290 bound_to 25673
  231.2129  353.8471  -94.9658 LP  0  0  0  0  0  0  0  0  0  0  0  0  # atno 27291 bound_to 25676
  230.5973  354.9473  -96.1535 LP  0  0  0  0  0  0  0  0  0  0  0  0  # atno 27292 bound_to 25676
  222.3758  350.7675  -91.3599 LP  0  0  0  0  0  0  0  0  0  0  0  0  # atno 27294 bound_to 4229
  227.9431  362.8100  -91.3359 LP  0  0  0  0  0  0  0  0  0  0  0  0  # atno 27295 bound_to 1417
  231.0545  361.4977  -92.1470 LP  0  0  0  0  0  0  0  0  0  0  0  0  # atno 27296 bound_to 1499
  229.6614  350.1698  -89.8647 LP  0  0  0  0  0  0  0  0  0  0  0  0  # atno 27297 bound_to 3694
  229.8952  351.6443  -88.9864 LP  0  0  0  0  0  0  0  0  0  0  0  0  # atno 27298 bound_to 3694
  233.9316  360.1951  -97.6456 LP  0  0  0  0  0  0  0  0  0  0  0  0  # atno 27299 bound_to 25595
  234.0344  357.6400  -99.1711 LP  0  0  0  0  0  0  0  0  0  0  0  0  # atno 27300 bound_to 25598
  233.5567  355.9904  -98.9457 LP  0  0  0  0  0  0  0  0  0  0  0  0  # atno 27301 bound_to 25598
  224.7560  365.5275  -94.1828 LP  0  0  0  0  0  0  0  0  0  0  0  0  # atno 27302 bound_to 1195
  226.5103  364.8406  -94.0989 LP  0  0  0  0  0  0  0  0  0  0  0  0  # atno 27303 bound_to 1275
  228.2921  365.9711  -92.8751 LP  0  0  0  0  0  0  0  0  0  0  0  0  # atno 27304 bound_to 1339
  229.9439  362.5299  -89.2938 LP  0  0  0  0  0  0  0  0  0  0  0  0  # atno 27305 bound_to 1342
  230.1913  364.2395  -89.1671 LP  0  0  0  0  0  0  0  0  0  0  0  0  # atno 27306 bound_to 1342
  234.2315  360.5420  -93.9855 LP  0  0  0  0  0  0  0  0  0  0  0  0  # atno 27307 bound_to 1545
  234.6053  359.4001  -94.3185 LP  0  0  0  0  0  0  0  0  0  0  0  0  # atno 27308 bound_to 1551
  234.4922  357.8041  -93.9918 LP  0  0  0  0  0  0  0  0  0  0  0  0  # atno 27309 bound_to 1551
  233.8527  359.9573  -95.6879 LP  0  0  0  0  0  0  0  0  0  0  0  0  # atno 27310 bound_to 25508
  234.5611  361.5160  -95.9500 LP  0  0  0  0  0  0  0  0  0  0  0  0  # atno 27311 bound_to 25508
  234.5839  352.7683  -96.2712 LP  0  0  0  0  0  0  0  0  0  0  0  0  # atno 27312 bound_to 25679
  235.8938  353.2805  -95.4415 LP  0  0  0  0  0  0  0  0  0  0  0  0  # atno 27313 bound_to 25679
  231.6874  353.9898  -99.6502 LP  0  0  0  0  0  0  0  0  0  0  0  0  # atno 27314 bound_to 25737
  232.9576  354.9897 -100.2723 LP  0  0  0  0  0  0  0  0  0  0  0  0  # atno 27315 bound_to 25737
  234.1658  363.1373  -91.2431 LP  0  0  0  0  0  0  0  0  0  0  0  0  # atno 27316 bound_to 1502
  233.7296  361.5659  -90.6596 LP  0  0  0  0  0  0  0  0  0  0  0  0  # atno 27317 bound_to 1502
  233.7027  363.2451  -95.8285 LP  0  0  0  0  0  0  0  0  0  0  0  0  # atno 27318 bound_to 1504
  234.6435  362.8876  -94.5426 LP  0  0  0  0  0  0  0  0  0  0  0  0  # atno 27319 bound_to 1504

> <Gold.Score>
     Fitness  S(hb_ext) S(vdw_ext)  S(hb_int)    S(int)      intcor
     36.38       5.82      22.25       0.00      -0.03      -0.76

> <Gold.Goldscore.Fitness>
36.3801

> <Gold.Goldscore.Internal.Vdw>
-0.3296

> <Gold.Goldscore.Internal.Torsion>
-0.4615

> <Gold.Goldscore.External.Vdw>
22.2514

> <Gold.Goldscore.Internal.HBond>
0.0000

> <Gold.Goldscore.External.HBond>
5.8194

> <Gold.Goldscore.Internal.Correction>
-0.7562

> <Gold.Goldscore.Hbonds>
donor molecule, donor type, donor heavy atom, donor atom, acceptor molecule, acceptor atom, score
      L1  H     8    22       P1  4229  0.97

> <Gold.Goldscore.Internal.Vdw.Weighted>
-0.3296

> <Gold.Goldscore.Internal.Torsion.Weighted>
-0.4615

> <Gold.Goldscore.External.Vdw.Weighted>
30.5956

> <Gold.Goldscore.Internal.HBond.Weighted>
0.0000

> <Gold.Goldscore.External.HBond.Weighted>
5.8194

> <Gold.Goldscore.Internal.Correction.Weighted>
-0.7562

> <Gold.Rescore>
     Score     S(PLP)   S(hbond)     S(cho)   S(metal)  DE(clash)   DE(tors)     intcor
     28.68     -28.80       0.00       0.00       0.00       0.00       0.06       ----

> <Gold.PLP.Fitness>
28.6808

> <Gold.PLP.PLP>
-28.8010

> <Gold.PLP.part.hbond>
-1.0000

> <Gold.PLP.part.metal>
0.0000

> <Gold.PLP.part.buried>
-5.3215

> <Gold.PLP.part.nonpolar>
-23.3699

> <Gold.PLP.part.repulsive>
0.1744

> <Gold.PLP.ligand.clash>
0.0000

> <Gold.PLP.ligand.torsion>
0.0601

> <Gold.PLP.Chemscore.Hbond>
0.0000

> <Gold.PLP.Chemscore.CHOScore>
0.0000

> <Gold.PLP.Chemscore.Metal>
0.0000

> <Gold.Chemscore.Hbonds>
donor molecule, donor type, donor heavy atom, donor atom, acceptor molecule, acceptor atom, score
      L1  H     8    22       P1  4229  0.52

> <Gold.PLP.Chemscore.Internal.Correction>
   9.000000E+99

