#       Name:                CT1002167954
#       Creating user name   hitesit
#       Creation time:       Sun Apr 16 02:23:00 2023


#       File generated by GOLD software.
#

@<TRIPOS>MOLECULE
CT1002167954|ligand_prepared|mol2|1|dock9
    29    30     1
SMALL
NO_CHARGES


@<TRIPOS>ATOM
      1 C1         114.4279 242.9965 322.7991 C.3            1 RES1               0.0000
      2 C2         113.4729 244.2023 322.9127 C.ar           1 RES1               0.0000
      3 C3         114.9650 243.0083 321.3710 C.2            1 RES1               0.0000
      4 C4         115.4970 243.1969 323.8675 C.2            1 RES1               0.0000
      5 C5         113.7456 241.6327 323.0560 C.3            1 RES1               0.0000
      6 C6         112.1734 244.1257 322.4208 C.ar           1 RES1               0.0000
      7 C7         113.8756 245.3948 323.5080 C.ar           1 RES1               0.0000
      8 N8         116.2560 243.4066 321.1847 N.am           1 RES1               0.0000
      9 O9         114.2546 242.7107 320.4186 O.2            1 RES1               0.0000
     10 N10        116.7852 243.4145 323.4540 N.am           1 RES1               0.0000
     11 O11        115.2326 243.1850 325.0635 O.2            1 RES1               0.0000
     12 C12        114.7212 240.4733 323.1836 C.3            1 RES1               0.0000
     13 C13        111.3067 245.2012 322.5229 C.ar           1 RES1               0.0000
     14 C14        113.0074 246.4692 323.6089 C.ar           1 RES1               0.0000
     15 C15        117.2078 243.5590 322.1607 C.2            1 RES1               0.0000
     16 C16        111.7229 246.3734 323.1174 C.ar           1 RES1               0.0000
     17 O17        118.3745 243.8076 321.8704 O.2            1 RES1               0.0000
     18 H18        113.1558 241.7011 323.9784 H              1 RES1               0.0000
     19 H19        113.0540 241.4229 322.2307 H              1 RES1               0.0000
     20 H20        111.8289 243.2123 321.9475 H              1 RES1               0.0000
     21 H21        114.8819 245.4932 323.9007 H              1 RES1               0.0000
     22 H22        116.5399 243.6100 320.2317 H              1 RES1               0.0000
     23 H23        117.4948 243.4741 324.1773 H              1 RES1               0.0000
     24 H24        114.1905 239.5406 323.3630 H              1 RES1               0.0000
     25 H25        115.3071 240.3603 322.2739 H              1 RES1               0.0000
     26 H26        115.4083 240.6369 324.0112 H              1 RES1               0.0000
     27 H27        110.2973 245.1212 322.1333 H              1 RES1               0.0000
     28 H28        113.3394 247.3900 324.0770 H              1 RES1               0.0000
     29 H29        111.0437 247.2157 323.1977 H              1 RES1               0.0000
@<TRIPOS>BOND
    1    1    2 1     
    2    1    3 1     
    3    1    4 1     
    4    1    5 1     
    5    2    6 ar    
    6    2    7 ar    
    7    3    8 1     
    8    3    9 2     
    9    4   10 1     
   10    4   11 2     
   11    5   12 1     
   12    5   18 1     
   13    5   19 1     
   14    6   13 ar    
   15    6   20 1     
   16    7   14 ar    
   17    7   21 1     
   18    8   15 1     
   19    8   22 1     
   20   10   15 1     
   21   10   23 1     
   22   12   24 1     
   23   12   25 1     
   24   12   26 1     
   25   13   16 ar    
   26   13   27 1     
   27   14   16 ar    
   28   14   28 1     
   29   15   17 2     
   30   16   29 1     
@<TRIPOS>SUBSTRUCTURE
      1 RES1           1
@<TRIPOS>SET
DONOR_HYDROGENS      STATIC     ATOMS    <user>   **** ""
2 22 23
ATOM$RED        STATIC     ATOMS    COLORGROUP SYSTEM
2 22 23
@<TRIPOS>COMMENT
> <Gold.Version>
2022.3.0

> <Gold.Id.Protein>
unknown|6ng7_clean|pdb

> <Gold.Protein.RotatedTorsions>
[ 3576 3563 3564 3565 ] final  143.12 input  100.79 | X-H torsion
[ 3599 3592 3593 3594 ] final   22.57 input   89.00 | X-H torsion
[ 8433 8423 8424 8425 ] final  -91.01 input   34.47 | X-H torsion
[ 8461 8445 8446 8447 ] final -145.34 input   99.97 | X-H torsion
[ 8999 8992 8993 8994 ] final   51.73 input   33.19 | X-H torsion
[ 9040 9016 9017 9018 ] final -176.40 input   39.09 | X-H torsion
[ 9083 9062 9063 9064 ] final -175.15 input   97.54 | X-H torsion
[ 9091 9073 9072 9070 ] final  170.06 input   60.01 | X-H torsion
[ 9114 9100 9101 9102 ] final   40.87 input   92.58 | X-H torsion
[ 9186 9177 9178 9179 ] final   73.86 input  115.65 | X-H torsion
[ 8983 8972 8973 8974 ] final  -95.06 input   31.13 | X-H torsion
[ 9134 9130 9131 9132 ] final   88.88 input  123.92 | X-H torsion
[ 11050 11043 11044 11045 ] final -164.14 input   53.30 | X-H torsion
[ 4890 4885 4884 4881 ] final   39.42 input   60.01 | X-H torsion
[ 8987 8977 8976 8973 ] final  -16.94 input   59.99 | X-H torsion
[ 8957 8937 8938 8939 ] final  171.56 input   44.56 | X-H torsion
[ 4906 4901 4902 4903 ] final  103.03 input   21.77 | X-H torsion
[ 8487 8476 8477 8478 ] final  -15.42 input   54.71 | X-H torsion
[ 5574 5565 5566 5567 ] final   -8.96 input   53.40 | X-H torsion
[ 8328 8319 8318 8316 ] final  -69.64 input   60.03 | X-H torsion
[ 5550 5545 5544 5541 ] final  -29.65 input   59.98 | X-H torsion
[ 5606 5598 5599 5600 ] final  125.74 input  117.00 | X-H torsion
[ 5644 5636 5637 5638 ] final  162.61 input   61.23 | X-H torsion
[ 9214 9206 9207 9208 ] final   87.55 input   98.56 | X-H torsion
[ 9346 9338 9339 9340 ] final  -89.78 input  104.10 | X-H torsion
[ 9244 9240 9241 9242 ] final   46.07 input   92.42 | X-H torsion
[ 9304 9293 9294 9295 ] final  151.24 input   83.70 | X-H torsion
[ 9160 9153 9151 9148 ] final -125.59 input   60.00 | X-H torsion
[ 9378 9366 9367 9368 ] final   -1.86 input   40.32 | X-H torsion
[ 9486 9481 9480 9477 ] final   58.61 input   60.00 | X-H torsion
[ 5688 5677 5678 5679 ] final   36.86 input   32.59 | X-H torsion
[ 8379 8360 8361 8362 ] final   84.91 input   69.42 | X-H torsion
[ 8491 8481 8480 8477 ] final   64.39 input   60.01 | X-H torsion
[ 8514 8500 8501 8502 ] final   24.88 input   65.89 | X-H torsion
[ 9264 9257 9258 9259 ] final   39.53 input   80.62 | X-H torsion
[ 9434 9426 9427 9428 ] final   95.87 input  124.27 | X-H torsion
[ 13470 8400 8399 8398 ] final -149.32 input   -0.00 | X-H torsion
[ 13474 8940 8939 8938 ] final  -38.01 input   -0.00 | X-H torsion
[ 13477 8995 8994 8993 ] final    1.86 input    0.00 | X-H torsion
[ 13480 9019 9018 9017 ] final -124.23 input   -0.00 | X-H torsion
[ 13483 9065 9064 9063 ] final  -74.60 input   -0.00 | X-H torsion
[ 13488 9103 9102 9101 ] final  -73.59 input    0.00 | X-H torsion
[ 13500 8975 8974 8973 ] final   23.62 input    0.00 | X-H torsion
[ 13502 8345 8344 8343 ] final  -28.40 input   -0.00 | X-H torsion
[ 13506 11046 11045 11044 ] final -103.02 input    0.00 | X-H torsion
[ 13510 8363 8362 8361 ] final  119.08 input    0.00 | X-H torsion
[ 13512 8426 8425 8424 ] final -122.91 input   -0.00 | X-H torsion
[ 13516 8448 8447 8446 ] final -120.07 input   -0.00 | X-H torsion
[ 13521 3502 3501 3500 ] final  101.29 input    0.00 | X-H torsion
[ 13524 4904 4903 4902 ] final  109.84 input    0.00 | X-H torsion
[ 13529 5543 5542 5541 ] final   21.65 input   -0.00 | X-H torsion
[ 13534 9180 9179 9178 ] final  -41.57 input    0.00 | X-H torsion
[ 13543 5639 5638 5637 ] final  135.13 input    0.00 | X-H torsion
[ 13548 9150 9149 9148 ] final   50.65 input    0.00 | X-H torsion
[ 13550 9209 9208 9207 ] final  -59.81 input    0.00 | X-H torsion
[ 13554 9296 9295 9294 ] final   42.69 input    0.00 | X-H torsion
[ 13560 9260 9259 9258 ] final  -10.82 input    0.00 | X-H torsion
[ 13565 9341 9340 9339 ] final  163.64 input    0.00 | X-H torsion
[ 13572 5568 5567 5566 ] final  174.93 input    0.00 | X-H torsion

> <Gold.Protein.ActiveResidues>
 TRP311  MET341  TRP414  ARG419  CYS420  VAL421  GLY422  LEU429  LEU460  SER462 
 ALA463  ILE464  SER482  GLN483  LEU484  ILE485  ARG486  ASP500  ALA502  ASN503 
 TRP566  TYR567  GLY568  LEU569  PRO570  ALA571  VAL572  SER573  ASN574  MET575 
 PRO588  PHE589  SER590  GLY591  TRP592  TYR593  MET594  GLY595  THR596  GLU597 
 ILE598  GLY599  VAL600  ARG601  ASP602  TYR603  ASP605  SER607  ARG608  ILE653 
 VAL654  TRP683  PRO687  SER691  PHE696  HIS697  TYR711  HEM802  H4B803 

> <Gold.Protein.RotatedAtoms>
  121.3246  247.4119  328.6619 H   0  0  0  0  0  0  0  0  0  0  0  0  # atno 3576 bound_to 3563
  123.6553  247.8882  326.3927 H   0  0  0  0  0  0  0  0  0  0  0  0  # atno 3599 bound_to 3592
  125.5125  244.6373  316.8413 H   0  0  0  0  0  0  0  0  0  0  0  0  # atno 4890 bound_to 4885
  122.3898  245.3224  313.5977 H   0  0  0  0  0  0  0  0  0  0  0  0  # atno 4906 bound_to 4901
  106.5129  242.2084  318.9385 H   0  0  0  0  0  0  0  0  0  0  0  0  # atno 5550 bound_to 5545
  107.9468  242.8147  316.8703 H   0  0  0  0  0  0  0  0  0  0  0  0  # atno 5574 bound_to 5565
  111.7546  242.3615  315.1872 H   0  0  0  0  0  0  0  0  0  0  0  0  # atno 5606 bound_to 5598
  111.8424  239.4564  313.8169 H   0  0  0  0  0  0  0  0  0  0  0  0  # atno 5644 bound_to 5636
  108.8215  236.6909  315.2144 H   0  0  0  0  0  0  0  0  0  0  0  0  # atno 5688 bound_to 5677
  111.9135  236.5657  321.1272 H   0  0  0  0  0  0  0  0  0  0  0  0  # atno 8328 bound_to 8319
  117.4351  235.5521  316.0033 H   0  0  0  0  0  0  0  0  0  0  0  0  # atno 8379 bound_to 8360
  115.9333  241.8959  318.3766 H   0  0  0  0  0  0  0  0  0  0  0  0  # atno 8433 bound_to 8423
  114.3513  243.9252  318.0282 H   0  0  0  0  0  0  0  0  0  0  0  0  # atno 8461 bound_to 8445
  111.0816  246.7812  317.6301 H   0  0  0  0  0  0  0  0  0  0  0  0  # atno 8487 bound_to 8476
  108.5906  245.2797  315.5833 H   0  0  0  0  0  0  0  0  0  0  0  0  # atno 8491 bound_to 8481
  110.1193  248.3594  317.6685 H   0  0  0  0  0  0  0  0  0  0  0  0  # atno 8514 bound_to 8500
  115.2637  248.5954  314.3143 H   0  0  0  0  0  0  0  0  0  0  0  0  # atno 8957 bound_to 8937
  118.1049  246.4789  316.2157 H   0  0  0  0  0  0  0  0  0  0  0  0  # atno 8983 bound_to 8972
  119.8322  244.4594  313.9263 H   0  0  0  0  0  0  0  0  0  0  0  0  # atno 8987 bound_to 8977
  119.7267  243.0119  317.8595 H   0  0  0  0  0  0  0  0  0  0  0  0  # atno 8999 bound_to 8992
  122.6469  241.5731  318.3142 H   0  0  0  0  0  0  0  0  0  0  0  0  # atno 9040 bound_to 9016
  121.0875  238.6913  320.6643 H   0  0  0  0  0  0  0  0  0  0  0  0  # atno 9083 bound_to 9062
  114.2466  237.6832  322.1692 H   0  0  0  0  0  0  0  0  0  0  0  0  # atno 9091 bound_to 9073
  120.5254  238.9019  324.9106 H   0  0  0  0  0  0  0  0  0  0  0  0  # atno 9114 bound_to 9100
  122.6452  236.5069  327.8700 H   0  0  0  0  0  0  0  0  0  0  0  0  # atno 9134 bound_to 9130
  120.6323  238.3524  331.3959 H   0  0  0  0  0  0  0  0  0  0  0  0  # atno 9160 bound_to 9153
  118.5931  236.7942  327.9874 H   0  0  0  0  0  0  0  0  0  0  0  0  # atno 9186 bound_to 9177
  117.4730  235.4242  326.9467 H   0  0  0  0  0  0  0  0  0  0  0  0  # atno 9214 bound_to 9206
  116.6660  234.0634  328.8384 H   0  0  0  0  0  0  0  0  0  0  0  0  # atno 9244 bound_to 9240
  115.4427  234.2448  330.3188 H   0  0  0  0  0  0  0  0  0  0  0  0  # atno 9264 bound_to 9257
  114.1489  236.0759  331.3875 H   0  0  0  0  0  0  0  0  0  0  0  0  # atno 9304 bound_to 9293
  111.3793  235.5880  329.1898 H   0  0  0  0  0  0  0  0  0  0  0  0  # atno 9346 bound_to 9338
  110.9813  233.2604  329.4410 H   0  0  0  0  0  0  0  0  0  0  0  0  # atno 9378 bound_to 9366
  109.3822  233.7778  331.8416 H   0  0  0  0  0  0  0  0  0  0  0  0  # atno 9434 bound_to 9426
  104.6960  237.5980  330.7601 H   0  0  0  0  0  0  0  0  0  0  0  0  # atno 9486 bound_to 9481
  126.1616  236.6549  323.6151 H   0  0  0  0  0  0  0  0  0  0  0  0  # atno 11050 bound_to 11043
  122.1228  248.2863  327.3757 LP  0  0  0  0  0  0  0  0  0  0  0  0  # atno 13467 bound_to 3563
  123.7673  246.2545  327.0071 LP  0  0  0  0  0  0  0  0  0  0  0  0  # atno 13468 bound_to 3592
  117.5631  242.9916  317.5482 LP  0  0  0  0  0  0  0  0  0  0  0  0  # atno 13470 bound_to 8400
  118.4549  241.5102  317.4469 LP  0  0  0  0  0  0  0  0  0  0  0  0  # atno 13471 bound_to 8400
  114.9151  240.9058  317.3620 LP  0  0  0  0  0  0  0  0  0  0  0  0  # atno 13472 bound_to 8423
  114.8344  245.1742  316.9041 LP  0  0  0  0  0  0  0  0  0  0  0  0  # atno 13473 bound_to 8445
  115.7641  246.2970  316.9067 LP  0  0  0  0  0  0  0  0  0  0  0  0  # atno 13474 bound_to 8940
  116.3337  244.7529  316.3672 LP  0  0  0  0  0  0  0  0  0  0  0  0  # atno 13475 bound_to 8940
  120.3708  243.9413  316.5262 LP  0  0  0  0  0  0  0  0  0  0  0  0  # atno 13476 bound_to 8992
  121.4735  241.2038  316.2686 LP  0  0  0  0  0  0  0  0  0  0  0  0  # atno 13477 bound_to 8995
  121.8630  239.8958  317.3352 LP  0  0  0  0  0  0  0  0  0  0  0  0  # atno 13478 bound_to 8995
  122.1740  241.9998  319.9418 LP  0  0  0  0  0  0  0  0  0  0  0  0  # atno 13479 bound_to 9016
  122.4001  240.8292  322.6675 LP  0  0  0  0  0  0  0  0  0  0  0  0  # atno 13480 bound_to 9019
  121.3744  241.5992  321.5036 LP  0  0  0  0  0  0  0  0  0  0  0  0  # atno 13481 bound_to 9019
  122.6486  238.6321  321.4478 LP  0  0  0  0  0  0  0  0  0  0  0  0  # atno 13482 bound_to 9062
  123.2474  236.9103  323.7915 LP  0  0  0  0  0  0  0  0  0  0  0  0  # atno 13483 bound_to 9065
  123.9049  238.5124  323.7651 LP  0  0  0  0  0  0  0  0  0  0  0  0  # atno 13484 bound_to 9065
  114.4157  236.3157  321.3033 LP  0  0  0  0  0  0  0  0  0  0  0  0  # atno 13485 bound_to 9073
  114.6284  237.7690  320.5896 LP  0  0  0  0  0  0  0  0  0  0  0  0  # atno 13486 bound_to 9073
  122.1550  239.1795  324.3404 LP  0  0  0  0  0  0  0  0  0  0  0  0  # atno 13487 bound_to 9100
  119.4486  237.8701  327.3620 LP  0  0  0  0  0  0  0  0  0  0  0  0  # atno 13488 bound_to 9103
  119.5181  236.7865  326.0125 LP  0  0  0  0  0  0  0  0  0  0  0  0  # atno 13489 bound_to 9103
  117.8462  237.2443  329.5011 LP  0  0  0  0  0  0  0  0  0  0  0  0  # atno 13490 bound_to 9177
  118.7272  246.0566  314.6414 LP  0  0  0  0  0  0  0  0  0  0  0  0  # atno 13499 bound_to 8972
  120.8022  246.1036  315.8173 LP  0  0  0  0  0  0  0  0  0  0  0  0  # atno 13500 bound_to 8975
  122.0612  244.9548  316.1256 LP  0  0  0  0  0  0  0  0  0  0  0  0  # atno 13501 bound_to 8975
  120.4307  235.7697  318.5450 LP  0  0  0  0  0  0  0  0  0  0  0  0  # atno 13502 bound_to 8345
  120.3032  237.0334  317.3674 LP  0  0  0  0  0  0  0  0  0  0  0  0  # atno 13503 bound_to 8345
  121.6155  236.8269  326.4962 LP  0  0  0  0  0  0  0  0  0  0  0  0  # atno 13504 bound_to 9130
  124.8033  236.4645  324.6957 LP  0  0  0  0  0  0  0  0  0  0  0  0  # atno 13505 bound_to 11043
  124.2878  237.6404  327.6035 LP  0  0  0  0  0  0  0  0  0  0  0  0  # atno 13506 bound_to 11046
  124.0557  236.2037  326.6643 LP  0  0  0  0  0  0  0  0  0  0  0  0  # atno 13507 bound_to 11046
  124.2483  245.2855  317.6341 LP  0  0  0  0  0  0  0  0  0  0  0  0  # atno 13508 bound_to 4885
  125.6988  246.0353  317.6524 LP  0  0  0  0  0  0  0  0  0  0  0  0  # atno 13509 bound_to 4885
  115.2843  237.9740  317.2718 LP  0  0  0  0  0  0  0  0  0  0  0  0  # atno 13510 bound_to 8363
  115.6790  238.6242  315.7157 LP  0  0  0  0  0  0  0  0  0  0  0  0  # atno 13511 bound_to 8363
  112.2831  243.8782  316.1103 LP  0  0  0  0  0  0  0  0  0  0  0  0  # atno 13512 bound_to 8426
  112.5735  242.3898  316.9471 LP  0  0  0  0  0  0  0  0  0  0  0  0  # atno 13513 bound_to 8426
  118.9073  243.4681  313.0262 LP  0  0  0  0  0  0  0  0  0  0  0  0  # atno 13514 bound_to 8977
  120.1203  242.8577  313.9331 LP  0  0  0  0  0  0  0  0  0  0  0  0  # atno 13515 bound_to 8977
  113.1517  248.1890  316.1862 LP  0  0  0  0  0  0  0  0  0  0  0  0  # atno 13516 bound_to 8448
  114.0926  246.8003  315.7548 LP  0  0  0  0  0  0  0  0  0  0  0  0  # atno 13517 bound_to 8448
  115.0167  246.9483  314.8436 LP  0  0  0  0  0  0  0  0  0  0  0  0  # atno 13518 bound_to 8937
  118.0747  248.3249  328.3789 LP  0  0  0  0  0  0  0  0  0  0  0  0  # atno 13521 bound_to 3502
  118.9165  248.4168  329.8899 LP  0  0  0  0  0  0  0  0  0  0  0  0  # atno 13522 bound_to 3502
  122.9277  246.8295  314.2904 LP  0  0  0  0  0  0  0  0  0  0  0  0  # atno 13523 bound_to 4901
  119.9015  247.9048  314.4669 LP  0  0  0  0  0  0  0  0  0  0  0  0  # atno 13524 bound_to 4904
  119.5012  246.4818  313.5643 LP  0  0  0  0  0  0  0  0  0  0  0  0  # atno 13525 bound_to 4904
  111.8497  245.6025  316.5928 LP  0  0  0  0  0  0  0  0  0  0  0  0  # atno 13526 bound_to 8476
  109.2026  245.6703  318.7625 LP  0  0  0  0  0  0  0  0  0  0  0  0  # atno 13529 bound_to 5543
  110.2612  244.7663  317.7318 LP  0  0  0  0  0  0  0  0  0  0  0  0  # atno 13530 bound_to 5543
  108.5682  243.1444  318.4753 LP  0  0  0  0  0  0  0  0  0  0  0  0  # atno 13531 bound_to 5565
  110.5649  236.1197  320.3329 LP  0  0  0  0  0  0  0  0  0  0  0  0  # atno 13532 bound_to 8319
  111.3687  237.4700  319.8887 LP  0  0  0  0  0  0  0  0  0  0  0  0  # atno 13533 bound_to 8319
  114.0787  237.0572  327.9534 LP  0  0  0  0  0  0  0  0  0  0  0  0  # atno 13534 bound_to 9180
  114.0892  236.2870  326.4020 LP  0  0  0  0  0  0  0  0  0  0  0  0  # atno 13535 bound_to 9180
  105.9280  242.4018  320.4450 LP  0  0  0  0  0  0  0  0  0  0  0  0  # atno 13540 bound_to 5545
  107.5373  242.4683  320.1762 LP  0  0  0  0  0  0  0  0  0  0  0  0  # atno 13541 bound_to 5545
  110.1984  241.6687  315.5566 LP  0  0  0  0  0  0  0  0  0  0  0  0  # atno 13542 bound_to 5598
  110.6490  238.1519  317.8322 LP  0  0  0  0  0  0  0  0  0  0  0  0  # atno 13543 bound_to 5639
  112.1186  237.5292  317.1595 LP  0  0  0  0  0  0  0  0  0  0  0  0  # atno 13544 bound_to 5639
  110.7381  239.7015  315.1532 LP  0  0  0  0  0  0  0  0  0  0  0  0  # atno 13545 bound_to 5636
  115.9712  236.3151  326.9902 LP  0  0  0  0  0  0  0  0  0  0  0  0  # atno 13546 bound_to 9206
  112.9748  235.2063  328.5693 LP  0  0  0  0  0  0  0  0  0  0  0  0  # atno 13547 bound_to 9338
  116.4241  236.4852  331.1194 LP  0  0  0  0  0  0  0  0  0  0  0  0  # atno 13548 bound_to 9150
  115.8318  235.8672  329.6136 LP  0  0  0  0  0  0  0  0  0  0  0  0  # atno 13549 bound_to 9150
  113.4576  233.7192  327.8950 LP  0  0  0  0  0  0  0  0  0  0  0  0  # atno 13550 bound_to 9209
  113.9995  232.0741  327.8857 LP  0  0  0  0  0  0  0  0  0  0  0  0  # atno 13551 bound_to 9209
  116.0796  233.0015  327.5747 LP  0  0  0  0  0  0  0  0  0  0  0  0  # atno 13552 bound_to 9240
  113.4324  234.5347  330.9530 LP  0  0  0  0  0  0  0  0  0  0  0  0  # atno 13553 bound_to 9293
  109.5447  235.9849  330.1935 LP  0  0  0  0  0  0  0  0  0  0  0  0  # atno 13554 bound_to 9296
  109.7559  234.4028  329.5210 LP  0  0  0  0  0  0  0  0  0  0  0  0  # atno 13555 bound_to 9296
  119.1066  238.8870  331.2098 LP  0  0  0  0  0  0  0  0  0  0  0  0  # atno 13558 bound_to 9153
  119.8542  238.1014  329.9889 LP  0  0  0  0  0  0  0  0  0  0  0  0  # atno 13559 bound_to 9153
  112.6128  233.5752  333.4066 LP  0  0  0  0  0  0  0  0  0  0  0  0  # atno 13560 bound_to 9260
  111.6375  234.7994  332.6649 LP  0  0  0  0  0  0  0  0  0  0  0  0  # atno 13561 bound_to 9260
  110.7192  231.3541  326.6524 LP  0  0  0  0  0  0  0  0  0  0  0  0  # atno 13565 bound_to 9341
  110.3421  232.7970  325.7717 LP  0  0  0  0  0  0  0  0  0  0  0  0  # atno 13566 bound_to 9341
  111.6784  232.7376  327.9198 LP  0  0  0  0  0  0  0  0  0  0  0  0  # atno 13567 bound_to 9366
  104.6792  237.5894  332.3872 LP  0  0  0  0  0  0  0  0  0  0  0  0  # atno 13568 bound_to 9481
  103.9606  238.8047  331.5667 LP  0  0  0  0  0  0  0  0  0  0  0  0  # atno 13569 bound_to 9481
  108.6954  240.9168  314.4235 LP  0  0  0  0  0  0  0  0  0  0  0  0  # atno 13572 bound_to 5568
  108.0537  241.1726  316.0118 LP  0  0  0  0  0  0  0  0  0  0  0  0  # atno 13573 bound_to 5568
  110.2535  237.1635  316.1069 LP  0  0  0  0  0  0  0  0  0  0  0  0  # atno 13574 bound_to 5677
  118.7180  235.7480  317.1730 LP  0  0  0  0  0  0  0  0  0  0  0  0  # atno 13575 bound_to 8360
  109.9852  244.5092  315.9169 LP  0  0  0  0  0  0  0  0  0  0  0  0  # atno 13576 bound_to 8481
  109.1995  244.2115  314.5166 LP  0  0  0  0  0  0  0  0  0  0  0  0  # atno 13577 bound_to 8481

> <Gold.Score>
     Fitness  S(hb_ext) S(vdw_ext)  S(hb_int)    S(int)      intcor
     30.98       0.00      23.23       0.00      -0.96      -0.76

> <Gold.Goldscore.Fitness>
30.9850

> <Gold.Goldscore.Internal.Vdw>
-1.1954

> <Gold.Goldscore.Internal.Torsion>
-0.5215

> <Gold.Goldscore.External.Vdw>
23.2315

> <Gold.Goldscore.Internal.HBond>
0.0000

> <Gold.Goldscore.External.HBond>
0.0000

> <Gold.Goldscore.Internal.Correction>
-0.7585

> <Gold.Goldscore.Internal.Vdw.Weighted>
-1.1954

> <Gold.Goldscore.Internal.Torsion.Weighted>
-0.5215

> <Gold.Goldscore.External.Vdw.Weighted>
31.9433

> <Gold.Goldscore.Internal.HBond.Weighted>
0.0000

> <Gold.Goldscore.External.HBond.Weighted>
0.0000

> <Gold.Goldscore.Internal.Correction.Weighted>
-0.7585

> <Gold.Rescore>
     Score     S(PLP)   S(hbond)     S(cho)   S(metal)  DE(clash)   DE(tors)     intcor
     22.79     -24.46       0.00       0.00       0.00       0.11       0.78       ----

> <Gold.PLP.Fitness>
22.7887

> <Gold.PLP.PLP>
-24.4591

> <Gold.PLP.part.hbond>
-1.6392

> <Gold.PLP.part.metal>
0.0000

> <Gold.PLP.part.buried>
-3.0094

> <Gold.PLP.part.nonpolar>
-26.9842

> <Gold.PLP.part.repulsive>
6.3179

> <Gold.PLP.ligand.clash>
0.1125

> <Gold.PLP.ligand.torsion>
0.7790

> <Gold.PLP.Chemscore.Hbond>
0.0000

> <Gold.PLP.Chemscore.CHOScore>
0.0000

> <Gold.PLP.Chemscore.Metal>
0.0000

> <Gold.Chemscore.Hbonds>
donor molecule, donor type, donor heavy atom, donor atom, acceptor molecule, acceptor atom, score
      L1  H    10    23       P1  9184  0.05

> <Gold.PLP.Chemscore.Internal.Correction>
   9.000000E+99

