#       Name:                CT1002167954
#       Creating user name   hitesit
#       Creation time:       Sun Apr 16 02:23:01 2023


#       File generated by GOLD software.
#

@<TRIPOS>MOLECULE
CT1002167954|ligand_prepared|mol2|1|dock10
    29    30     1
SMALL
NO_CHARGES


@<TRIPOS>ATOM
      1 C1         116.9362 243.6485 322.8289 C.3            1 RES1               0.0000
      2 C2         115.9330 242.5428 323.2157 C.ar           1 RES1               0.0000
      3 C3         118.2522 243.2918 323.5137 C.2            1 RES1               0.0000
      4 C4         117.0069 243.6466 321.3058 C.2            1 RES1               0.0000
      5 C5         116.5127 245.0640 323.2857 C.3            1 RES1               0.0000
      6 C6         115.4681 242.4335 324.5229 C.ar           1 RES1               0.0000
      7 C7         115.4621 241.6280 322.2776 C.ar           1 RES1               0.0000
      8 N8         119.2590 242.8050 322.7331 N.am           1 RES1               0.0000
      9 O9         118.3912 243.3986 324.7259 O.2            1 RES1               0.0000
     10 N10        118.1909 243.2847 320.7185 N.am           1 RES1               0.0000
     11 O11        116.0431 243.9391 320.6089 O.2            1 RES1               0.0000
     12 C12        117.3676 246.1779 322.7022 C.3            1 RES1               0.0000
     13 C13        114.5630 241.4473 324.8787 C.ar           1 RES1               0.0000
     14 C14        114.5572 240.6424 322.6356 C.ar           1 RES1               0.0000
     15 C15        119.3108 242.8342 321.3627 C.2            1 RES1               0.0000
     16 C16        114.1067 240.5515 323.9354 C.ar           1 RES1               0.0000
     17 O17        120.3195 242.4751 320.7619 O.2            1 RES1               0.0000
     18 H18        115.4683 245.2312 322.9948 H              1 RES1               0.0000
     19 H19        116.5679 245.1131 324.3802 H              1 RES1               0.0000
     20 H20        115.8179 243.1280 325.2794 H              1 RES1               0.0000
     21 H21        115.8037 241.6798 321.2493 H              1 RES1               0.0000
     22 H22        120.0461 242.3799 323.2127 H              1 RES1               0.0000
     23 H23        118.2421 243.3581 319.7074 H              1 RES1               0.0000
     24 H24        117.0280 247.1497 323.0545 H              1 RES1               0.0000
     25 H25        118.4092 246.0572 322.9925 H              1 RES1               0.0000
     26 H26        117.3161 246.1746 321.6153 H              1 RES1               0.0000
     27 H27        114.2125 241.3792 325.9033 H              1 RES1               0.0000
     28 H28        114.2012 239.9391 321.8900 H              1 RES1               0.0000
     29 H29        113.3974 239.7793 324.2143 H              1 RES1               0.0000
@<TRIPOS>BOND
    1    1    2 1     
    2    1    3 1     
    3    1    4 1     
    4    1    5 1     
    5    2    6 ar    
    6    2    7 ar    
    7    3    8 1     
    8    3    9 2     
    9    4   10 1     
   10    4   11 2     
   11    5   12 1     
   12    5   18 1     
   13    5   19 1     
   14    6   13 ar    
   15    6   20 1     
   16    7   14 ar    
   17    7   21 1     
   18    8   15 1     
   19    8   22 1     
   20   10   15 1     
   21   10   23 1     
   22   12   24 1     
   23   12   25 1     
   24   12   26 1     
   25   13   16 ar    
   26   13   27 1     
   27   14   16 ar    
   28   14   28 1     
   29   15   17 2     
   30   16   29 1     
@<TRIPOS>SUBSTRUCTURE
      1 RES1           1
@<TRIPOS>SET
DONOR_HYDROGENS      STATIC     ATOMS    <user>   **** ""
2 22 23
ATOM$RED        STATIC     ATOMS    COLORGROUP SYSTEM
2 22 23
@<TRIPOS>COMMENT
> <Gold.Version>
2022.3.0

> <Gold.Id.Protein>
unknown|6ng7_clean|pdb

> <Gold.Protein.RotatedTorsions>
[ 3576 3563 3564 3565 ] final   98.11 input  100.79 | X-H torsion
[ 3599 3592 3593 3594 ] final  -52.44 input   89.00 | X-H torsion
[ 8433 8423 8424 8425 ] final   84.11 input   34.47 | X-H torsion
[ 8461 8445 8446 8447 ] final -159.65 input   99.97 | X-H torsion
[ 8999 8992 8993 8994 ] final  -56.37 input   33.19 | X-H torsion
[ 9040 9016 9017 9018 ] final  -27.57 input   39.09 | X-H torsion
[ 9083 9062 9063 9064 ] final  -40.78 input   97.54 | X-H torsion
[ 9091 9073 9072 9070 ] final   91.25 input   60.01 | X-H torsion
[ 9114 9100 9101 9102 ] final   51.91 input   92.58 | X-H torsion
[ 9186 9177 9178 9179 ] final   83.45 input  115.65 | X-H torsion
[ 8983 8972 8973 8974 ] final  -65.92 input   31.13 | X-H torsion
[ 9134 9130 9131 9132 ] final  171.60 input  123.92 | X-H torsion
[ 11050 11043 11044 11045 ] final   99.55 input   53.30 | X-H torsion
[ 4890 4885 4884 4881 ] final -149.62 input   60.01 | X-H torsion
[ 8987 8977 8976 8973 ] final  -60.96 input   59.99 | X-H torsion
[ 8957 8937 8938 8939 ] final  149.95 input   44.56 | X-H torsion
[ 4906 4901 4902 4903 ] final   74.76 input   21.77 | X-H torsion
[ 8487 8476 8477 8478 ] final   79.48 input   54.71 | X-H torsion
[ 5574 5565 5566 5567 ] final -108.67 input   53.40 | X-H torsion
[ 8328 8319 8318 8316 ] final   -1.62 input   60.03 | X-H torsion
[ 5550 5545 5544 5541 ] final   59.94 input   59.98 | X-H torsion
[ 5606 5598 5599 5600 ] final -132.42 input  117.00 | X-H torsion
[ 5644 5636 5637 5638 ] final -117.40 input   61.23 | X-H torsion
[ 9214 9206 9207 9208 ] final -100.08 input   98.56 | X-H torsion
[ 9346 9338 9339 9340 ] final  -60.22 input  104.10 | X-H torsion
[ 9244 9240 9241 9242 ] final   56.76 input   92.42 | X-H torsion
[ 9304 9293 9294 9295 ] final   31.49 input   83.70 | X-H torsion
[ 9160 9153 9151 9148 ] final  105.14 input   60.00 | X-H torsion
[ 9378 9366 9367 9368 ] final   -7.71 input   40.32 | X-H torsion
[ 9486 9481 9480 9477 ] final  117.44 input   60.00 | X-H torsion
[ 5688 5677 5678 5679 ] final  154.80 input   32.59 | X-H torsion
[ 8379 8360 8361 8362 ] final    4.20 input   69.42 | X-H torsion
[ 8491 8481 8480 8477 ] final   80.55 input   60.01 | X-H torsion
[ 8514 8500 8501 8502 ] final  101.96 input   65.89 | X-H torsion
[ 9264 9257 9258 9259 ] final  152.09 input   80.62 | X-H torsion
[ 9434 9426 9427 9428 ] final   95.76 input  124.27 | X-H torsion
[ 13470 8400 8399 8398 ] final -147.87 input   -0.00 | X-H torsion
[ 13474 8940 8939 8938 ] final   57.63 input   -0.00 | X-H torsion
[ 13477 8995 8994 8993 ] final -148.07 input    0.00 | X-H torsion
[ 13480 9019 9018 9017 ] final   20.69 input   -0.00 | X-H torsion
[ 13483 9065 9064 9063 ] final   37.32 input   -0.00 | X-H torsion
[ 13488 9103 9102 9101 ] final   34.43 input    0.00 | X-H torsion
[ 13500 8975 8974 8973 ] final -138.23 input    0.00 | X-H torsion
[ 13502 8345 8344 8343 ] final   69.84 input   -0.00 | X-H torsion
[ 13506 11046 11045 11044 ] final  -92.12 input    0.00 | X-H torsion
[ 13510 8363 8362 8361 ] final -117.64 input    0.00 | X-H torsion
[ 13512 8426 8425 8424 ] final    6.06 input   -0.00 | X-H torsion
[ 13516 8448 8447 8446 ] final  134.57 input   -0.00 | X-H torsion
[ 13521 3502 3501 3500 ] final  -72.63 input    0.00 | X-H torsion
[ 13524 4904 4903 4902 ] final  113.28 input    0.00 | X-H torsion
[ 13529 5543 5542 5541 ] final -145.82 input   -0.00 | X-H torsion
[ 13534 9180 9179 9178 ] final -109.39 input    0.00 | X-H torsion
[ 13543 5639 5638 5637 ] final   93.56 input    0.00 | X-H torsion
[ 13548 9150 9149 9148 ] final   16.57 input    0.00 | X-H torsion
[ 13550 9209 9208 9207 ] final  108.31 input    0.00 | X-H torsion
[ 13554 9296 9295 9294 ] final  141.74 input    0.00 | X-H torsion
[ 13560 9260 9259 9258 ] final  -69.14 input    0.00 | X-H torsion
[ 13565 9341 9340 9339 ] final  -56.26 input    0.00 | X-H torsion
[ 13572 5568 5567 5566 ] final  101.04 input    0.00 | X-H torsion

> <Gold.Protein.ActiveResidues>
 TRP311  MET341  TRP414  ARG419  CYS420  VAL421  GLY422  LEU429  LEU460  SER462 
 ALA463  ILE464  SER482  GLN483  LEU484  ILE485  ARG486  ASP500  ALA502  ASN503 
 TRP566  TYR567  GLY568  LEU569  PRO570  ALA571  VAL572  SER573  ASN574  MET575 
 PRO588  PHE589  SER590  GLY591  TRP592  TYR593  MET594  GLY595  THR596  GLU597 
 ILE598  GLY599  VAL600  ARG601  ASP602  TYR603  ASP605  SER607  ARG608  ILE653 
 VAL654  TRP683  PRO687  SER691  PHE696  HIS697  TYR711  HEM802  H4B803 

> <Gold.Protein.RotatedAtoms>
  121.4116  247.0340  328.1065 H   0  0  0  0  0  0  0  0  0  0  0  0  # atno 3576 bound_to 3563
  124.3846  247.4948  327.0848 H   0  0  0  0  0  0  0  0  0  0  0  0  # atno 3599 bound_to 3592
  124.9300  246.0584  317.9005 H   0  0  0  0  0  0  0  0  0  0  0  0  # atno 4890 bound_to 4885
  122.0524  245.4605  313.8223 H   0  0  0  0  0  0  0  0  0  0  0  0  # atno 4906 bound_to 4901
  107.5809  242.3979  319.6904 H   0  0  0  0  0  0  0  0  0  0  0  0  # atno 5550 bound_to 5545
  108.5312  243.8280  317.5758 H   0  0  0  0  0  0  0  0  0  0  0  0  # atno 5574 bound_to 5565
  110.4302  242.6637  315.1520 H   0  0  0  0  0  0  0  0  0  0  0  0  # atno 5606 bound_to 5598
  110.7029  239.5579  313.8199 H   0  0  0  0  0  0  0  0  0  0  0  0  # atno 5644 bound_to 5636
  109.5924  237.7678  315.9824 H   0  0  0  0  0  0  0  0  0  0  0  0  # atno 5688 bound_to 5677
  111.9474  237.3785  320.4674 H   0  0  0  0  0  0  0  0  0  0  0  0  # atno 8328 bound_to 8319
  117.3893  235.8121  317.1167 H   0  0  0  0  0  0  0  0  0  0  0  0  # atno 8379 bound_to 8360
  114.8500  240.9173  317.3995 H   0  0  0  0  0  0  0  0  0  0  0  0  # atno 8433 bound_to 8423
  114.4893  244.0319  318.1633 H   0  0  0  0  0  0  0  0  0  0  0  0  # atno 8461 bound_to 8445
  110.8034  245.6043  317.1432 H   0  0  0  0  0  0  0  0  0  0  0  0  # atno 8487 bound_to 8476
  108.4915  245.2081  315.3501 H   0  0  0  0  0  0  0  0  0  0  0  0  # atno 8491 bound_to 8481
  109.5077  247.4551  317.7743 H   0  0  0  0  0  0  0  0  0  0  0  0  # atno 8514 bound_to 8500
  115.1984  248.6426  314.6357 H   0  0  0  0  0  0  0  0  0  0  0  0  # atno 8957 bound_to 8937
  118.5353  246.5780  316.2360 H   0  0  0  0  0  0  0  0  0  0  0  0  # atno 8983 bound_to 8972
  119.2890  244.4603  313.4818 H   0  0  0  0  0  0  0  0  0  0  0  0  # atno 8987 bound_to 8977
  120.2102  242.9275  316.5117 H   0  0  0  0  0  0  0  0  0  0  0  0  # atno 8999 bound_to 8992
  121.7625  241.9297  319.7256 H   0  0  0  0  0  0  0  0  0  0  0  0  # atno 9040 bound_to 9016
  122.4055  239.2650  321.4347 H   0  0  0  0  0  0  0  0  0  0  0  0  # atno 9083 bound_to 9062
  114.2758  236.5223  321.9156 H   0  0  0  0  0  0  0  0  0  0  0  0  # atno 9091 bound_to 9073
  120.5323  239.0650  324.9596 H   0  0  0  0  0  0  0  0  0  0  0  0  # atno 9114 bound_to 9100
  122.7718  236.2589  326.7384 H   0  0  0  0  0  0  0  0  0  0  0  0  # atno 9134 bound_to 9130
  119.0487  238.8531  331.0735 H   0  0  0  0  0  0  0  0  0  0  0  0  # atno 9160 bound_to 9153
  118.6498  236.9303  327.9891 H   0  0  0  0  0  0  0  0  0  0  0  0  # atno 9186 bound_to 9177
  115.9764  236.3487  326.8777 H   0  0  0  0  0  0  0  0  0  0  0  0  # atno 9214 bound_to 9206
  116.8164  234.0091  328.7928 H   0  0  0  0  0  0  0  0  0  0  0  0  # atno 9244 bound_to 9240
  116.5624  233.7364  331.1337 H   0  0  0  0  0  0  0  0  0  0  0  0  # atno 9264 bound_to 9257
  113.8315  234.9979  330.3176 H   0  0  0  0  0  0  0  0  0  0  0  0  # atno 9304 bound_to 9293
  111.4788  235.1782  329.3677 H   0  0  0  0  0  0  0  0  0  0  0  0  # atno 9346 bound_to 9338
  110.9017  233.2674  329.3967 H   0  0  0  0  0  0  0  0  0  0  0  0  # atno 9378 bound_to 9366
  109.3810  233.7766  331.8413 H   0  0  0  0  0  0  0  0  0  0  0  0  # atno 9434 bound_to 9426
  104.2221  238.3858  330.7481 H   0  0  0  0  0  0  0  0  0  0  0  0  # atno 9486 bound_to 9481
  125.1670  237.3789  324.0722 H   0  0  0  0  0  0  0  0  0  0  0  0  # atno 11050 bound_to 11043
  122.0379  248.6550  327.9176 LP  0  0  0  0  0  0  0  0  0  0  0  0  # atno 13467 bound_to 3563
  123.0581  246.6371  326.3340 LP  0  0  0  0  0  0  0  0  0  0  0  0  # atno 13468 bound_to 3592
  117.5681  242.9928  317.5694 LP  0  0  0  0  0  0  0  0  0  0  0  0  # atno 13470 bound_to 8400
  118.4499  241.5090  317.4257 LP  0  0  0  0  0  0  0  0  0  0  0  0  # atno 13471 bound_to 8400
  115.9825  241.8700  318.3249 LP  0  0  0  0  0  0  0  0  0  0  0  0  # atno 13472 bound_to 8423
  114.7001  245.0703  316.7726 LP  0  0  0  0  0  0  0  0  0  0  0  0  # atno 13473 bound_to 8445
  115.5504  245.4928  315.9296 LP  0  0  0  0  0  0  0  0  0  0  0  0  # atno 13474 bound_to 8940
  116.5474  245.5571  317.3444 LP  0  0  0  0  0  0  0  0  0  0  0  0  # atno 13475 bound_to 8940
  119.9002  244.0236  317.8379 LP  0  0  0  0  0  0  0  0  0  0  0  0  # atno 13476 bound_to 8992
  121.4234  239.9671  317.3940 LP  0  0  0  0  0  0  0  0  0  0  0  0  # atno 13477 bound_to 8995
  121.9130  241.1325  316.2098 LP  0  0  0  0  0  0  0  0  0  0  0  0  # atno 13478 bound_to 8995
  123.0378  241.6514  318.5633 LP  0  0  0  0  0  0  0  0  0  0  0  0  # atno 13479 bound_to 9016
  121.8678  241.7171  321.3808 LP  0  0  0  0  0  0  0  0  0  0  0  0  # atno 13480 bound_to 9019
  121.9067  240.7113  322.7903 LP  0  0  0  0  0  0  0  0  0  0  0  0  # atno 13481 bound_to 9019
  121.3629  238.0724  320.6964 LP  0  0  0  0  0  0  0  0  0  0  0  0  # atno 13482 bound_to 9062
  123.6233  238.0282  322.9737 LP  0  0  0  0  0  0  0  0  0  0  0  0  # atno 13483 bound_to 9065
  123.5290  237.3945  324.5829 LP  0  0  0  0  0  0  0  0  0  0  0  0  # atno 13484 bound_to 9065
  114.6447  237.1211  320.4480 LP  0  0  0  0  0  0  0  0  0  0  0  0  # atno 13485 bound_to 9073
  114.3701  238.1326  321.7003 LP  0  0  0  0  0  0  0  0  0  0  0  0  # atno 13486 bound_to 9073
  122.1482  239.0207  324.2928 LP  0  0  0  0  0  0  0  0  0  0  0  0  # atno 13487 bound_to 9100
  119.5445  237.8030  325.9654 LP  0  0  0  0  0  0  0  0  0  0  0  0  # atno 13488 bound_to 9103
  119.4222  236.8537  327.4090 LP  0  0  0  0  0  0  0  0  0  0  0  0  # atno 13489 bound_to 9103
  117.7907  237.1109  329.4994 LP  0  0  0  0  0  0  0  0  0  0  0  0  # atno 13490 bound_to 9177
  118.3030  245.9589  314.6214 LP  0  0  0  0  0  0  0  0  0  0  0  0  # atno 13499 bound_to 8972
  122.0069  244.8904  315.8658 LP  0  0  0  0  0  0  0  0  0  0  0  0  # atno 13500 bound_to 8975
  120.8566  246.1680  316.0772 LP  0  0  0  0  0  0  0  0  0  0  0  0  # atno 13501 bound_to 8975
  120.9365  236.0934  317.3811 LP  0  0  0  0  0  0  0  0  0  0  0  0  # atno 13502 bound_to 8345
  119.7975  236.7098  318.5312 LP  0  0  0  0  0  0  0  0  0  0  0  0  # atno 13503 bound_to 8345
  121.4913  237.0701  327.6057 LP  0  0  0  0  0  0  0  0  0  0  0  0  # atno 13504 bound_to 9130
  125.7803  235.7533  324.2467 LP  0  0  0  0  0  0  0  0  0  0  0  0  # atno 13505 bound_to 11043
  124.2810  237.7175  327.4585 LP  0  0  0  0  0  0  0  0  0  0  0  0  # atno 13506 bound_to 11046
  124.0625  236.1266  326.8093 LP  0  0  0  0  0  0  0  0  0  0  0  0  # atno 13507 bound_to 11046
  126.0325  245.2213  317.0457 LP  0  0  0  0  0  0  0  0  0  0  0  0  # atno 13508 bound_to 4885
  124.5016  244.6675  317.1734 LP  0  0  0  0  0  0  0  0  0  0  0  0  # atno 13509 bound_to 4885
  115.4945  239.1480  316.3228 LP  0  0  0  0  0  0  0  0  0  0  0  0  # atno 13510 bound_to 8363
  115.4687  237.4502  316.6647 LP  0  0  0  0  0  0  0  0  0  0  0  0  # atno 13511 bound_to 8363
  112.7758  242.3995  316.2291 LP  0  0  0  0  0  0  0  0  0  0  0  0  # atno 13512 bound_to 8426
  112.0808  243.8685  316.8282 LP  0  0  0  0  0  0  0  0  0  0  0  0  # atno 13513 bound_to 8426
  119.2221  242.8592  313.1981 LP  0  0  0  0  0  0  0  0  0  0  0  0  # atno 13514 bound_to 8977
  120.3523  243.4657  314.2088 LP  0  0  0  0  0  0  0  0  0  0  0  0  # atno 13515 bound_to 8977
  113.2600  247.1882  315.2459 LP  0  0  0  0  0  0  0  0  0  0  0  0  # atno 13516 bound_to 8448
  113.9843  247.8011  316.6950 LP  0  0  0  0  0  0  0  0  0  0  0  0  # atno 13517 bound_to 8448
  115.0805  246.9022  314.5295 LP  0  0  0  0  0  0  0  0  0  0  0  0  # atno 13518 bound_to 8937
  118.8377  248.4469  329.9264 LP  0  0  0  0  0  0  0  0  0  0  0  0  # atno 13521 bound_to 3502
  118.1536  248.2948  328.3424 LP  0  0  0  0  0  0  0  0  0  0  0  0  # atno 13522 bound_to 3502
  123.2613  246.6928  314.0683 LP  0  0  0  0  0  0  0  0  0  0  0  0  # atno 13523 bound_to 4901
  119.8604  247.9282  314.4452 LP  0  0  0  0  0  0  0  0  0  0  0  0  # atno 13524 bound_to 4904
  119.5423  246.4584  313.5860 LP  0  0  0  0  0  0  0  0  0  0  0  0  # atno 13525 bound_to 4904
  112.1209  246.7505  317.0677 LP  0  0  0  0  0  0  0  0  0  0  0  0  # atno 13526 bound_to 8476
  110.1910  244.8780  317.5964 LP  0  0  0  0  0  0  0  0  0  0  0  0  # atno 13529 bound_to 5543
  109.2728  245.5586  318.8979 LP  0  0  0  0  0  0  0  0  0  0  0  0  # atno 13530 bound_to 5543
  108.0066  242.1707  317.7974 LP  0  0  0  0  0  0  0  0  0  0  0  0  # atno 13531 bound_to 5565
  111.3078  236.0104  321.0736 LP  0  0  0  0  0  0  0  0  0  0  0  0  # atno 13532 bound_to 8319
  110.5917  236.7609  319.8124 LP  0  0  0  0  0  0  0  0  0  0  0  0  # atno 13533 bound_to 8319
  114.0113  236.1018  327.8254 LP  0  0  0  0  0  0  0  0  0  0  0  0  # atno 13534 bound_to 9180
  114.1566  237.2424  326.5301 LP  0  0  0  0  0  0  0  0  0  0  0  0  # atno 13535 bound_to 9180
  106.0621  242.2066  319.1377 LP  0  0  0  0  0  0  0  0  0  0  0  0  # atno 13540 bound_to 5545
  106.3282  242.4728  320.7267 LP  0  0  0  0  0  0  0  0  0  0  0  0  # atno 13541 bound_to 5545
  111.5112  241.3690  315.5915 LP  0  0  0  0  0  0  0  0  0  0  0  0  # atno 13542 bound_to 5598
  110.9437  238.5862  317.5123 LP  0  0  0  0  0  0  0  0  0  0  0  0  # atno 13543 bound_to 5639
  111.8239  237.0948  317.4794 LP  0  0  0  0  0  0  0  0  0  0  0  0  # atno 13544 bound_to 5639
  111.8400  239.6033  315.1503 LP  0  0  0  0  0  0  0  0  0  0  0  0  # atno 13545 bound_to 5636
  117.4378  235.4091  327.0578 LP  0  0  0  0  0  0  0  0  0  0  0  0  # atno 13546 bound_to 9206
  112.8798  235.5977  328.3994 LP  0  0  0  0  0  0  0  0  0  0  0  0  # atno 13547 bound_to 9338
  116.5222  235.9872  331.1140 LP  0  0  0  0  0  0  0  0  0  0  0  0  # atno 13548 bound_to 9150
  115.7336  236.3653  329.6190 LP  0  0  0  0  0  0  0  0  0  0  0  0  # atno 13549 bound_to 9150
  113.9706  232.0851  327.7091 LP  0  0  0  0  0  0  0  0  0  0  0  0  # atno 13550 bound_to 9209
  113.4865  233.7082  328.0715 LP  0  0  0  0  0  0  0  0  0  0  0  0  # atno 13551 bound_to 9209
  115.9348  233.0538  327.6186 LP  0  0  0  0  0  0  0  0  0  0  0  0  # atno 13552 bound_to 9240
  113.7356  235.5645  331.9751 LP  0  0  0  0  0  0  0  0  0  0  0  0  # atno 13553 bound_to 9293
  109.4925  235.3772  329.0257 LP  0  0  0  0  0  0  0  0  0  0  0  0  # atno 13554 bound_to 9296
  109.8082  235.0106  330.6888 LP  0  0  0  0  0  0  0  0  0  0  0  0  # atno 13555 bound_to 9296
  119.9968  238.0563  330.0179 LP  0  0  0  0  0  0  0  0  0  0  0  0  # atno 13558 bound_to 9153
  120.5589  238.4278  331.5055 LP  0  0  0  0  0  0  0  0  0  0  0  0  # atno 13559 bound_to 9153
  112.1836  233.3895  332.7042 LP  0  0  0  0  0  0  0  0  0  0  0  0  # atno 13560 bound_to 9260
  112.0667  234.9852  333.3674 LP  0  0  0  0  0  0  0  0  0  0  0  0  # atno 13561 bound_to 9260
  109.8698  232.6194  326.0793 LP  0  0  0  0  0  0  0  0  0  0  0  0  # atno 13565 bound_to 9341
  111.1915  231.5318  326.3448 LP  0  0  0  0  0  0  0  0  0  0  0  0  # atno 13566 bound_to 9341
  111.7546  232.7309  327.9622 LP  0  0  0  0  0  0  0  0  0  0  0  0  # atno 13567 bound_to 9366
  104.9324  237.1892  331.5914 LP  0  0  0  0  0  0  0  0  0  0  0  0  # atno 13568 bound_to 9481
  104.1846  238.4115  332.3746 LP  0  0  0  0  0  0  0  0  0  0  0  0  # atno 13569 bound_to 9481
  108.1819  241.7562  314.7632 LP  0  0  0  0  0  0  0  0  0  0  0  0  # atno 13572 bound_to 5568
  108.5671  240.3331  315.6722 LP  0  0  0  0  0  0  0  0  0  0  0  0  # atno 13573 bound_to 5568
  109.5125  236.1284  315.3688 LP  0  0  0  0  0  0  0  0  0  0  0  0  # atno 13574 bound_to 5677
  118.7628  235.4939  316.0849 LP  0  0  0  0  0  0  0  0  0  0  0  0  # atno 13575 bound_to 8360
  109.8577  244.6874  316.0659 LP  0  0  0  0  0  0  0  0  0  0  0  0  # atno 13576 bound_to 8481
  109.4266  244.1054  314.6023 LP  0  0  0  0  0  0  0  0  0  0  0  0  # atno 13577 bound_to 8481

> <Gold.Score>
     Fitness  S(hb_ext) S(vdw_ext)  S(hb_int)    S(int)      intcor
     40.96       1.36      30.26       0.00      -2.01      -0.76

> <Gold.Goldscore.Fitness>
40.9608

> <Gold.Goldscore.Internal.Vdw>
-2.2429

> <Gold.Goldscore.Internal.Torsion>
-0.5219

> <Gold.Goldscore.External.Vdw>
30.2582

> <Gold.Goldscore.Internal.HBond>
0.0000

> <Gold.Goldscore.External.HBond>
1.3621

> <Gold.Goldscore.Internal.Correction>
-0.7585

> <Gold.Goldscore.Hbonds>
donor molecule, donor type, donor heavy atom, donor atom, acceptor molecule, acceptor atom, score
      P1  H  9016  9040       L1    17  0.68

> <Gold.Goldscore.Internal.Vdw.Weighted>
-2.2429

> <Gold.Goldscore.Internal.Torsion.Weighted>
-0.5219

> <Gold.Goldscore.External.Vdw.Weighted>
41.6050

> <Gold.Goldscore.Internal.HBond.Weighted>
0.0000

> <Gold.Goldscore.External.HBond.Weighted>
1.3621

> <Gold.Goldscore.Internal.Correction.Weighted>
-0.7585

> <Gold.Rescore>
     Score     S(PLP)   S(hbond)     S(cho)   S(metal)  DE(clash)   DE(tors)     intcor
     37.33     -31.82       2.40       0.00       0.00       0.76       0.45       ----

> <Gold.PLP.Fitness>
37.3349

> <Gold.PLP.PLP>
-31.8173

> <Gold.PLP.part.hbond>
-5.0000

> <Gold.PLP.part.metal>
0.0000

> <Gold.PLP.part.buried>
7.4790

> <Gold.PLP.part.nonpolar>
-37.0692

> <Gold.PLP.part.repulsive>
2.0963

> <Gold.PLP.ligand.clash>
0.7630

> <Gold.PLP.ligand.torsion>
0.4525

> <Gold.PLP.Chemscore.Hbond>
2.3952

> <Gold.PLP.Chemscore.CHOScore>
0.0000

> <Gold.PLP.Chemscore.Metal>
0.0000

> <Gold.Chemscore.Hbonds>
donor molecule, donor type, donor heavy atom, donor atom, acceptor molecule, acceptor atom, score
      P1  H  9016  9040       L1    17  1.00

> <Gold.PLP.Chemscore.Internal.Correction>
   9.000000E+99

