#       Name:                CT1002167954
#       Creating user name   hitesit
#       Creation time:       Sun Apr 16 02:22:54 2023


#       File generated by GOLD software.
#

@<TRIPOS>MOLECULE
CT1002167954|ligand_prepared|mol2|1|dock3
    29    30     1
SMALL
NO_CHARGES


@<TRIPOS>ATOM
      1 C1         117.3831 243.7172 322.2384 C.3            1 RES1               0.0000
      2 C2         116.1202 242.8382 322.1325 C.ar           1 RES1               0.0000
      3 C3         117.8044 243.6870 323.7046 C.2            1 RES1               0.0000
      4 C4         118.4063 243.1106 321.2845 C.2            1 RES1               0.0000
      5 C5         117.1564 245.1894 321.8227 C.3            1 RES1               0.0000
      6 C6         115.4455 242.7101 320.9220 C.ar           1 RES1               0.0000
      7 C7         115.6202 242.1486 323.2338 C.ar           1 RES1               0.0000
      8 N8         118.9035 242.9487 324.0312 N.am           1 RES1               0.0000
      9 O9         117.1589 244.2700 324.5670 O.2            1 RES1               0.0000
     10 N10        119.5430 242.5670 321.8232 N.am           1 RES1               0.0000
     11 O11        118.2307 243.0836 320.0726 O.2            1 RES1               0.0000
     12 C12        118.3826 246.0715 321.9971 C.3            1 RES1               0.0000
     13 C13        114.3137 241.9189 320.8157 C.ar           1 RES1               0.0000
     14 C14        114.4881 241.3580 323.1253 C.ar           1 RES1               0.0000
     15 C15        119.8237 242.4310 323.1554 C.2            1 RES1               0.0000
     16 C16        113.8346 241.2420 321.9169 C.ar           1 RES1               0.0000
     17 O17        120.8429 241.8814 323.5634 O.2            1 RES1               0.0000
     18 H18        116.8493 245.2157 320.7699 H              1 RES1               0.0000
     19 H19        116.3358 245.6031 322.4217 H              1 RES1               0.0000
     20 H20        115.8064 243.2372 320.0451 H              1 RES1               0.0000
     21 H21        116.1175 242.2258 324.1947 H              1 RES1               0.0000
     22 H22        119.0552 242.7643 325.0177 H              1 RES1               0.0000
     23 H23        120.2449 242.2328 321.1705 H              1 RES1               0.0000
     24 H24        118.1692 247.0935 321.6911 H              1 RES1               0.0000
     25 H25        118.7007 246.0887 323.0374 H              1 RES1               0.0000
     26 H26        119.2112 245.7036 321.3954 H              1 RES1               0.0000
     27 H27        113.8022 241.8320 319.8627 H              1 RES1               0.0000
     28 H28        114.1142 240.8275 323.9948 H              1 RES1               0.0000
     29 H29        112.9482 240.6219 321.8333 H              1 RES1               0.0000
@<TRIPOS>BOND
    1    1    2 1     
    2    1    3 1     
    3    1    4 1     
    4    1    5 1     
    5    2    6 ar    
    6    2    7 ar    
    7    3    8 1     
    8    3    9 2     
    9    4   10 1     
   10    4   11 2     
   11    5   12 1     
   12    5   18 1     
   13    5   19 1     
   14    6   13 ar    
   15    6   20 1     
   16    7   14 ar    
   17    7   21 1     
   18    8   15 1     
   19    8   22 1     
   20   10   15 1     
   21   10   23 1     
   22   12   24 1     
   23   12   25 1     
   24   12   26 1     
   25   13   16 ar    
   26   13   27 1     
   27   14   16 ar    
   28   14   28 1     
   29   15   17 2     
   30   16   29 1     
@<TRIPOS>SUBSTRUCTURE
      1 RES1           1
@<TRIPOS>SET
DONOR_HYDROGENS      STATIC     ATOMS    <user>   **** ""
2 22 23
ATOM$RED        STATIC     ATOMS    COLORGROUP SYSTEM
2 22 23
@<TRIPOS>COMMENT
> <Gold.Version>
2022.3.0

> <Gold.Id.Protein>
unknown|6ng7_clean|pdb

> <Gold.Protein.RotatedTorsions>
[ 3576 3563 3564 3565 ] final  154.12 input  100.79 | X-H torsion
[ 3599 3592 3593 3594 ] final   62.57 input   89.00 | X-H torsion
[ 8433 8423 8424 8425 ] final  -30.59 input   34.47 | X-H torsion
[ 8461 8445 8446 8447 ] final  -48.27 input   99.97 | X-H torsion
[ 8999 8992 8993 8994 ] final   62.41 input   33.19 | X-H torsion
[ 9040 9016 9017 9018 ] final -162.14 input   39.09 | X-H torsion
[ 9083 9062 9063 9064 ] final  175.90 input   97.54 | X-H torsion
[ 9091 9073 9072 9070 ] final   16.67 input   60.01 | X-H torsion
[ 9114 9100 9101 9102 ] final    3.53 input   92.58 | X-H torsion
[ 9186 9177 9178 9179 ] final -167.53 input  115.65 | X-H torsion
[ 8983 8972 8973 8974 ] final  -49.04 input   31.13 | X-H torsion
[ 9134 9130 9131 9132 ] final -172.00 input  123.92 | X-H torsion
[ 11050 11043 11044 11045 ] final -140.11 input   53.30 | X-H torsion
[ 4890 4885 4884 4881 ] final   29.47 input   60.01 | X-H torsion
[ 8987 8977 8976 8973 ] final  -25.80 input   59.99 | X-H torsion
[ 8957 8937 8938 8939 ] final   76.77 input   44.56 | X-H torsion
[ 4906 4901 4902 4903 ] final  -21.93 input   21.77 | X-H torsion
[ 8487 8476 8477 8478 ] final -131.07 input   54.71 | X-H torsion
[ 5574 5565 5566 5567 ] final  -32.95 input   53.40 | X-H torsion
[ 8328 8319 8318 8316 ] final  -34.21 input   60.03 | X-H torsion
[ 5550 5545 5544 5541 ] final   70.99 input   59.98 | X-H torsion
[ 5606 5598 5599 5600 ] final  -17.47 input  117.00 | X-H torsion
[ 5644 5636 5637 5638 ] final   66.92 input   61.23 | X-H torsion
[ 9214 9206 9207 9208 ] final   -4.99 input   98.56 | X-H torsion
[ 9346 9338 9339 9340 ] final   65.04 input  104.10 | X-H torsion
[ 9244 9240 9241 9242 ] final  -98.69 input   92.42 | X-H torsion
[ 9304 9293 9294 9295 ] final   -0.99 input   83.70 | X-H torsion
[ 9160 9153 9151 9148 ] final    6.94 input   60.00 | X-H torsion
[ 9378 9366 9367 9368 ] final   44.87 input   40.32 | X-H torsion
[ 9486 9481 9480 9477 ] final  -37.44 input   60.00 | X-H torsion
[ 5688 5677 5678 5679 ] final   20.65 input   32.59 | X-H torsion
[ 8379 8360 8361 8362 ] final  -40.91 input   69.42 | X-H torsion
[ 8491 8481 8480 8477 ] final   63.03 input   60.01 | X-H torsion
[ 8514 8500 8501 8502 ] final   51.61 input   65.89 | X-H torsion
[ 9264 9257 9258 9259 ] final -127.53 input   80.62 | X-H torsion
[ 9434 9426 9427 9428 ] final   76.84 input  124.27 | X-H torsion
[ 13470 8400 8399 8398 ] final  -17.49 input   -0.00 | X-H torsion
[ 13474 8940 8939 8938 ] final   67.54 input   -0.00 | X-H torsion
[ 13477 8995 8994 8993 ] final  140.50 input    0.00 | X-H torsion
[ 13480 9019 9018 9017 ] final  -52.44 input   -0.00 | X-H torsion
[ 13483 9065 9064 9063 ] final  114.15 input   -0.00 | X-H torsion
[ 13488 9103 9102 9101 ] final   -7.24 input    0.00 | X-H torsion
[ 13500 8975 8974 8973 ] final -119.65 input    0.00 | X-H torsion
[ 13502 8345 8344 8343 ] final   60.63 input   -0.00 | X-H torsion
[ 13506 11046 11045 11044 ] final   34.27 input    0.00 | X-H torsion
[ 13510 8363 8362 8361 ] final -101.76 input    0.00 | X-H torsion
[ 13512 8426 8425 8424 ] final -102.53 input   -0.00 | X-H torsion
[ 13516 8448 8447 8446 ] final  131.48 input   -0.00 | X-H torsion
[ 13521 3502 3501 3500 ] final  139.47 input    0.00 | X-H torsion
[ 13524 4904 4903 4902 ] final -171.29 input    0.00 | X-H torsion
[ 13529 5543 5542 5541 ] final   30.27 input   -0.00 | X-H torsion
[ 13534 9180 9179 9178 ] final   48.64 input    0.00 | X-H torsion
[ 13543 5639 5638 5637 ] final   21.26 input    0.00 | X-H torsion
[ 13548 9150 9149 9148 ] final  -10.25 input    0.00 | X-H torsion
[ 13550 9209 9208 9207 ] final   86.85 input    0.00 | X-H torsion
[ 13554 9296 9295 9294 ] final  142.00 input    0.00 | X-H torsion
[ 13560 9260 9259 9258 ] final  -42.12 input    0.00 | X-H torsion
[ 13565 9341 9340 9339 ] final   13.96 input    0.00 | X-H torsion
[ 13572 5568 5567 5566 ] final   44.81 input    0.00 | X-H torsion

> <Gold.Protein.ActiveResidues>
 TRP311  MET341  TRP414  ARG419  CYS420  VAL421  GLY422  LEU429  LEU460  SER462 
 ALA463  ILE464  SER482  GLN483  LEU484  ILE485  ARG486  ASP500  ALA502  ASN503 
 TRP566  TYR567  GLY568  LEU569  PRO570  ALA571  VAL572  SER573  ASN574  MET575 
 PRO588  PHE589  SER590  GLY591  TRP592  TYR593  MET594  GLY595  THR596  GLU597 
 ILE598  GLY599  VAL600  ARG601  ASP602  TYR603  ASP605  SER607  ARG608  ILE653 
 VAL654  TRP683  PRO687  SER691  PHE696  HIS697  TYR711  HEM802  H4B803 

> <Gold.Protein.RotatedAtoms>
  121.3408  247.5569  328.7484 H   0  0  0  0  0  0  0  0  0  0  0  0  # atno 3576 bound_to 3563
  123.2139  247.5466  326.1553 H   0  0  0  0  0  0  0  0  0  0  0  0  # atno 3599 bound_to 3592
  125.3635  244.5733  316.8475 H   0  0  0  0  0  0  0  0  0  0  0  0  # atno 4890 bound_to 4885
  122.1784  246.5930  314.4689 H   0  0  0  0  0  0  0  0  0  0  0  0  # atno 4906 bound_to 4901
  107.5931  242.4265  319.8679 H   0  0  0  0  0  0  0  0  0  0  0  0  # atno 5550 bound_to 5545
  108.0568  243.1680  316.8394 H   0  0  0  0  0  0  0  0  0  0  0  0  # atno 5574 bound_to 5565
  110.5825  241.3010  315.6982 H   0  0  0  0  0  0  0  0  0  0  0  0  # atno 5606 bound_to 5598
  111.9063  239.5747  315.1296 H   0  0  0  0  0  0  0  0  0  0  0  0  # atno 5644 bound_to 5636
  108.9421  236.4697  315.2078 H   0  0  0  0  0  0  0  0  0  0  0  0  # atno 5688 bound_to 5677
  112.0642  237.0426  320.8541 H   0  0  0  0  0  0  0  0  0  0  0  0  # atno 8328 bound_to 8319
  117.9790  235.8572  317.4477 H   0  0  0  0  0  0  0  0  0  0  0  0  # atno 8379 bound_to 8360
  115.0571  241.8870  318.4988 H   0  0  0  0  0  0  0  0  0  0  0  0  # atno 8433 bound_to 8423
  114.0969  244.2906  316.7772 H   0  0  0  0  0  0  0  0  0  0  0  0  # atno 8461 bound_to 8445
  112.2680  246.4095  316.7947 H   0  0  0  0  0  0  0  0  0  0  0  0  # atno 8487 bound_to 8476
  108.6015  245.2836  315.6024 H   0  0  0  0  0  0  0  0  0  0  0  0  # atno 8491 bound_to 8481
  109.9590  248.0449  317.8708 H   0  0  0  0  0  0  0  0  0  0  0  0  # atno 8514 bound_to 8500
  114.9772  247.9787  315.4236 H   0  0  0  0  0  0  0  0  0  0  0  0  # atno 8957 bound_to 8937
  118.7780  246.6005  316.1515 H   0  0  0  0  0  0  0  0  0  0  0  0  # atno 8983 bound_to 8972
  119.7225  244.5030  313.8427 H   0  0  0  0  0  0  0  0  0  0  0  0  # atno 8987 bound_to 8977
  119.7231  243.1565  317.9385 H   0  0  0  0  0  0  0  0  0  0  0  0  # atno 8999 bound_to 8992
  122.4299  241.5608  318.2836 H   0  0  0  0  0  0  0  0  0  0  0  0  # atno 9040 bound_to 9016
  121.1018  238.5547  320.6496 H   0  0  0  0  0  0  0  0  0  0  0  0  # atno 9083 bound_to 9062
  114.5417  236.5026  320.8127 H   0  0  0  0  0  0  0  0  0  0  0  0  # atno 9091 bound_to 9073
  120.7216  238.4217  324.6806 H   0  0  0  0  0  0  0  0  0  0  0  0  # atno 9114 bound_to 9100
  122.6208  236.3069  326.5430 H   0  0  0  0  0  0  0  0  0  0  0  0  # atno 9134 bound_to 9130
  119.6634  238.1765  329.9930 H   0  0  0  0  0  0  0  0  0  0  0  0  # atno 9160 bound_to 9153
  118.3618  237.8313  329.0708 H   0  0  0  0  0  0  0  0  0  0  0  0  # atno 9186 bound_to 9177
  116.5767  235.6769  327.8174 H   0  0  0  0  0  0  0  0  0  0  0  0  # atno 9214 bound_to 9206
  115.6376  233.2001  327.7941 H   0  0  0  0  0  0  0  0  0  0  0  0  # atno 9244 bound_to 9240
  115.9456  232.7725  331.1465 H   0  0  0  0  0  0  0  0  0  0  0  0  # atno 9264 bound_to 9257
  113.5634  234.6554  330.5677 H   0  0  0  0  0  0  0  0  0  0  0  0  # atno 9304 bound_to 9293
  112.9115  234.8678  328.7445 H   0  0  0  0  0  0  0  0  0  0  0  0  # atno 9346 bound_to 9338
  111.6739  233.1105  329.4854 H   0  0  0  0  0  0  0  0  0  0  0  0  # atno 9378 bound_to 9366
  109.1922  233.5581  331.8415 H   0  0  0  0  0  0  0  0  0  0  0  0  # atno 9434 bound_to 9426
  104.8274  237.3445  332.1224 H   0  0  0  0  0  0  0  0  0  0  0  0  # atno 9486 bound_to 9481
  126.1976  236.3060  323.7222 H   0  0  0  0  0  0  0  0  0  0  0  0  # atno 11050 bound_to 11043
  122.1070  248.1449  327.2914 LP  0  0  0  0  0  0  0  0  0  0  0  0  # atno 13467 bound_to 3563
  124.1966  246.5867  327.2379 LP  0  0  0  0  0  0  0  0  0  0  0  0  # atno 13468 bound_to 3592
  118.4498  241.8004  318.0915 LP  0  0  0  0  0  0  0  0  0  0  0  0  # atno 13470 bound_to 8400
  117.5681  242.7014  316.9037 LP  0  0  0  0  0  0  0  0  0  0  0  0  # atno 13471 bound_to 8400
  115.7784  240.9145  317.2416 LP  0  0  0  0  0  0  0  0  0  0  0  0  # atno 13472 bound_to 8423
  115.0821  244.8184  318.1217 LP  0  0  0  0  0  0  0  0  0  0  0  0  # atno 13473 bound_to 8445
  115.6156  245.3603  315.9055 LP  0  0  0  0  0  0  0  0  0  0  0  0  # atno 13474 bound_to 8940
  116.4823  245.6896  317.3685 LP  0  0  0  0  0  0  0  0  0  0  0  0  # atno 13475 bound_to 8940
  120.3743  243.8006  316.4493 LP  0  0  0  0  0  0  0  0  0  0  0  0  # atno 13476 bound_to 8992
  122.3598  240.0810  317.0299 LP  0  0  0  0  0  0  0  0  0  0  0  0  # atno 13477 bound_to 8995
  120.9767  241.0186  316.5739 LP  0  0  0  0  0  0  0  0  0  0  0  0  # atno 13478 bound_to 8995
  122.3859  242.0118  319.9717 LP  0  0  0  0  0  0  0  0  0  0  0  0  # atno 13479 bound_to 9016
  122.7091  241.4043  321.8897 LP  0  0  0  0  0  0  0  0  0  0  0  0  # atno 13480 bound_to 9019
  121.0654  241.0240  322.2814 LP  0  0  0  0  0  0  0  0  0  0  0  0  # atno 13481 bound_to 9019
  122.6347  238.7654  321.4622 LP  0  0  0  0  0  0  0  0  0  0  0  0  # atno 13482 bound_to 9062
  123.9135  238.5002  323.8964 LP  0  0  0  0  0  0  0  0  0  0  0  0  # atno 13483 bound_to 9065
  123.2388  236.9225  323.6602 LP  0  0  0  0  0  0  0  0  0  0  0  0  # atno 13484 bound_to 9065
  114.5407  238.1199  320.9928 LP  0  0  0  0  0  0  0  0  0  0  0  0  # atno 13485 bound_to 9073
  114.2064  237.1536  322.2660 LP  0  0  0  0  0  0  0  0  0  0  0  0  # atno 13486 bound_to 9073
  121.9640  239.6467  324.5642 LP  0  0  0  0  0  0  0  0  0  0  0  0  # atno 13487 bound_to 9100
  119.5179  238.1643  326.4637 LP  0  0  0  0  0  0  0  0  0  0  0  0  # atno 13488 bound_to 9103
  119.4488  236.4924  326.9107 LP  0  0  0  0  0  0  0  0  0  0  0  0  # atno 13489 bound_to 9103
  118.0729  236.2282  328.4396 LP  0  0  0  0  0  0  0  0  0  0  0  0  # atno 13490 bound_to 9177
  118.0638  245.9367  314.7046 LP  0  0  0  0  0  0  0  0  0  0  0  0  # atno 13499 bound_to 8972
  121.8920  244.8904  315.6108 LP  0  0  0  0  0  0  0  0  0  0  0  0  # atno 13500 bound_to 8975
  120.9714  246.1680  316.3322 LP  0  0  0  0  0  0  0  0  0  0  0  0  # atno 13501 bound_to 8975
  120.9527  235.9880  317.4705 LP  0  0  0  0  0  0  0  0  0  0  0  0  # atno 13502 bound_to 8345
  119.7813  236.8152  318.4418 LP  0  0  0  0  0  0  0  0  0  0  0  0  # atno 13503 bound_to 8345
  121.6394  237.0231  327.7974 LP  0  0  0  0  0  0  0  0  0  0  0  0  # atno 13504 bound_to 9130
  124.7680  236.8072  324.5905 LP  0  0  0  0  0  0  0  0  0  0  0  0  # atno 13505 bound_to 11043
  124.0694  236.7175  326.2986 LP  0  0  0  0  0  0  0  0  0  0  0  0  # atno 13506 bound_to 11046
  124.2740  237.1266  327.9692 LP  0  0  0  0  0  0  0  0  0  0  0  0  # atno 13507 bound_to 11046
  124.2802  245.4260  317.7113 LP  0  0  0  0  0  0  0  0  0  0  0  0  # atno 13508 bound_to 4885
  125.8171  245.9592  317.5689 LP  0  0  0  0  0  0  0  0  0  0  0  0  # atno 13509 bound_to 4885
  115.5563  239.0695  316.1053 LP  0  0  0  0  0  0  0  0  0  0  0  0  # atno 13510 bound_to 8363
  115.4069  237.5287  316.8822 LP  0  0  0  0  0  0  0  0  0  0  0  0  # atno 13511 bound_to 8363
  112.4069  243.7123  315.8844 LP  0  0  0  0  0  0  0  0  0  0  0  0  # atno 13512 bound_to 8426
  112.4496  242.5557  317.1730 LP  0  0  0  0  0  0  0  0  0  0  0  0  # atno 13513 bound_to 8426
  118.9411  243.3267  313.0339 LP  0  0  0  0  0  0  0  0  0  0  0  0  # atno 13514 bound_to 8977
  120.1968  242.9552  314.0095 LP  0  0  0  0  0  0  0  0  0  0  0  0  # atno 13515 bound_to 8977
  113.2921  247.1545  315.2457 LP  0  0  0  0  0  0  0  0  0  0  0  0  # atno 13516 bound_to 8448
  113.9522  247.8348  316.6953 LP  0  0  0  0  0  0  0  0  0  0  0  0  # atno 13517 bound_to 8448
  115.2966  247.5509  313.7595 LP  0  0  0  0  0  0  0  0  0  0  0  0  # atno 13518 bound_to 8937
  118.6107  248.1578  328.3029 LP  0  0  0  0  0  0  0  0  0  0  0  0  # atno 13521 bound_to 3502
  118.3806  248.5839  329.9659 LP  0  0  0  0  0  0  0  0  0  0  0  0  # atno 13522 bound_to 3502
  123.1367  245.5730  313.4289 LP  0  0  0  0  0  0  0  0  0  0  0  0  # atno 13523 bound_to 4901
  119.0745  247.7342  313.7617 LP  0  0  0  0  0  0  0  0  0  0  0  0  # atno 13524 bound_to 4904
  120.3282  246.6524  314.2695 LP  0  0  0  0  0  0  0  0  0  0  0  0  # atno 13525 bound_to 4904
  110.6925  245.9652  317.4076 LP  0  0  0  0  0  0  0  0  0  0  0  0  # atno 13526 bound_to 8476
  109.2484  245.5955  318.8587 LP  0  0  0  0  0  0  0  0  0  0  0  0  # atno 13529 bound_to 5543
  110.2154  244.8412  317.6356 LP  0  0  0  0  0  0  0  0  0  0  0  0  # atno 13530 bound_to 5543
  108.4625  242.8049  318.5051 LP  0  0  0  0  0  0  0  0  0  0  0  0  # atno 13531 bound_to 5565
  110.8814  235.9280  320.7715 LP  0  0  0  0  0  0  0  0  0  0  0  0  # atno 13532 bound_to 8319
  110.9005  237.1815  319.7251 LP  0  0  0  0  0  0  0  0  0  0  0  0  # atno 13533 bound_to 8319
  114.1602  237.4435  326.7916 LP  0  0  0  0  0  0  0  0  0  0  0  0  # atno 13534 bound_to 9180
  114.0077  235.9007  327.5638 LP  0  0  0  0  0  0  0  0  0  0  0  0  # atno 13535 bound_to 9180
  106.2124  242.2008  319.0362 LP  0  0  0  0  0  0  0  0  0  0  0  0  # atno 13540 bound_to 5545
  106.1656  242.4498  320.6494 LP  0  0  0  0  0  0  0  0  0  0  0  0  # atno 13541 bound_to 5545
  111.3602  242.7199  315.0500 LP  0  0  0  0  0  0  0  0  0  0  0  0  # atno 13542 bound_to 5598
  111.8322  238.4212  317.0357 LP  0  0  0  0  0  0  0  0  0  0  0  0  # atno 13543 bound_to 5639
  110.9354  237.2598  317.9560 LP  0  0  0  0  0  0  0  0  0  0  0  0  # atno 13544 bound_to 5639
  110.6763  239.5871  313.8838 LP  0  0  0  0  0  0  0  0  0  0  0  0  # atno 13545 bound_to 5636
  116.8496  236.0674  326.1369 LP  0  0  0  0  0  0  0  0  0  0  0  0  # atno 13546 bound_to 9206
  111.5114  235.8942  328.9947 LP  0  0  0  0  0  0  0  0  0  0  0  0  # atno 13547 bound_to 9338
  116.5043  235.6328  330.9260 LP  0  0  0  0  0  0  0  0  0  0  0  0  # atno 13548 bound_to 9150
  115.7516  236.7197  329.8071 LP  0  0  0  0  0  0  0  0  0  0  0  0  # atno 13549 bound_to 9150
  113.8932  232.1919  327.4148 LP  0  0  0  0  0  0  0  0  0  0  0  0  # atno 13550 bound_to 9209
  113.5639  233.6015  328.3659 LP  0  0  0  0  0  0  0  0  0  0  0  0  # atno 13551 bound_to 9209
  117.0696  233.8326  328.5801 LP  0  0  0  0  0  0  0  0  0  0  0  0  # atno 13552 bound_to 9240
  113.9917  235.8917  331.7362 LP  0  0  0  0  0  0  0  0  0  0  0  0  # atno 13553 bound_to 9293
  109.4931  235.3735  329.0248 LP  0  0  0  0  0  0  0  0  0  0  0  0  # atno 13554 bound_to 9296
  109.8076  235.0143  330.6897 LP  0  0  0  0  0  0  0  0  0  0  0  0  # atno 13555 bound_to 9296
  120.7137  238.2574  331.2333 LP  0  0  0  0  0  0  0  0  0  0  0  0  # atno 13558 bound_to 9153
  119.2230  238.9081  331.3783 LP  0  0  0  0  0  0  0  0  0  0  0  0  # atno 13559 bound_to 9153
  112.4212  233.3735  333.0313 LP  0  0  0  0  0  0  0  0  0  0  0  0  # atno 13560 bound_to 9260
  111.8292  235.0012  333.0403 LP  0  0  0  0  0  0  0  0  0  0  0  0  # atno 13561 bound_to 9260
  110.7742  232.7060  325.6705 LP  0  0  0  0  0  0  0  0  0  0  0  0  # atno 13565 bound_to 9341
  110.2871  231.4452  326.7536 LP  0  0  0  0  0  0  0  0  0  0  0  0  # atno 13566 bound_to 9341
  111.0148  232.8812  327.8772 LP  0  0  0  0  0  0  0  0  0  0  0  0  # atno 13567 bound_to 9366
  103.9975  238.7334  331.9497 LP  0  0  0  0  0  0  0  0  0  0  0  0  # atno 13568 bound_to 9481
  104.5100  237.9159  330.6323 LP  0  0  0  0  0  0  0  0  0  0  0  0  # atno 13569 bound_to 9481
  107.9436  241.7218  315.5430 LP  0  0  0  0  0  0  0  0  0  0  0  0  # atno 13572 bound_to 5568
  108.8054  240.3676  314.8923 LP  0  0  0  0  0  0  0  0  0  0  0  0  # atno 13573 bound_to 5568
  110.1375  237.3760  316.1133 LP  0  0  0  0  0  0  0  0  0  0  0  0  # atno 13574 bound_to 5677
  118.1865  235.4498  315.7614 LP  0  0  0  0  0  0  0  0  0  0  0  0  # atno 13575 bound_to 8360
  109.9934  244.4945  315.9020 LP  0  0  0  0  0  0  0  0  0  0  0  0  # atno 13576 bound_to 8481
  109.1802  244.2223  314.5123 LP  0  0  0  0  0  0  0  0  0  0  0  0  # atno 13577 bound_to 8481

> <Gold.Score>
     Fitness  S(hb_ext) S(vdw_ext)  S(hb_int)    S(int)      intcor
     46.18       1.62      34.19       0.00      -2.44      -0.78

> <Gold.Goldscore.Fitness>
46.1828

> <Gold.Goldscore.Internal.Vdw>
-2.8373

> <Gold.Goldscore.Internal.Torsion>
-0.3837

> <Gold.Goldscore.External.Vdw>
34.1850

> <Gold.Goldscore.Internal.HBond>
0.0000

> <Gold.Goldscore.External.HBond>
1.6175

> <Gold.Goldscore.Internal.Correction>
-0.7819

> <Gold.Goldscore.Hbonds>
donor molecule, donor type, donor heavy atom, donor atom, acceptor molecule, acceptor atom, score
      P1  H  8992  8999       L1    11  0.22
      L1  H    10    23       P1  9016  0.20

> <Gold.Goldscore.Internal.Vdw.Weighted>
-2.8373

> <Gold.Goldscore.Internal.Torsion.Weighted>
-0.3837

> <Gold.Goldscore.External.Vdw.Weighted>
47.0044

> <Gold.Goldscore.Internal.HBond.Weighted>
0.0000

> <Gold.Goldscore.External.HBond.Weighted>
1.6175

> <Gold.Goldscore.Internal.Correction.Weighted>
-0.7819

> <Gold.Rescore>
     Score     S(PLP)   S(hbond)     S(cho)   S(metal)  DE(clash)   DE(tors)     intcor
      9.23      -8.91       0.59       0.00       0.00       1.38       0.04       ----

> <Gold.PLP.Fitness>
9.2327

> <Gold.PLP.PLP>
-8.9148

> <Gold.PLP.part.hbond>
-1.3535

> <Gold.PLP.part.metal>
0.0000

> <Gold.PLP.part.buried>
13.0234

> <Gold.PLP.part.nonpolar>
-31.5536

> <Gold.PLP.part.repulsive>
11.3596

> <Gold.PLP.ligand.clash>
1.3820

> <Gold.PLP.ligand.torsion>
0.0381

> <Gold.PLP.Chemscore.Hbond>
0.5920

> <Gold.PLP.Chemscore.CHOScore>
0.0000

> <Gold.PLP.Chemscore.Metal>
0.0000

> <Gold.Chemscore.Hbonds>
donor molecule, donor type, donor heavy atom, donor atom, acceptor molecule, acceptor atom, score
      L1  H    10    23       P1  9019  0.25

> <Gold.PLP.Chemscore.Internal.Correction>
   9.000000E+99

