#       Name:                CT1002167954
#       Creating user name   hitesit
#       Creation time:       Sun Apr 16 02:22:53 2023


#       File generated by GOLD software.
#

@<TRIPOS>MOLECULE
CT1002167954|ligand_prepared|mol2|1|dock2
    29    30     1
SMALL
NO_CHARGES


@<TRIPOS>ATOM
      1 C1         114.5409 241.9834 323.1589 C.3            1 RES1               0.0000
      2 C2         116.0716 242.1708 323.1347 C.ar           1 RES1               0.0000
      3 C3         114.0960 241.9022 321.7016 C.2            1 RES1               0.0000
      4 C4         114.2792 240.7133 323.9609 C.2            1 RES1               0.0000
      5 C5         113.7800 243.1443 323.8408 C.3            1 RES1               0.0000
      6 C6         116.6446 243.3738 323.5360 C.ar           1 RES1               0.0000
      7 C7         116.9222 241.1507 322.7169 C.ar           1 RES1               0.0000
      8 N8         113.7326 240.6795 321.2191 N.am           1 RES1               0.0000
      9 O9         114.1019 242.8889 320.9758 O.2            1 RES1               0.0000
     10 N10        113.7373 239.6395 323.3043 N.am           1 RES1               0.0000
     11 O11        114.5528 240.6273 325.1517 O.2            1 RES1               0.0000
     12 C12        112.2805 242.9155 323.9477 C.3            1 RES1               0.0000
     13 C13        118.0184 243.5498 323.5229 C.ar           1 RES1               0.0000
     14 C14        118.2957 241.3289 322.7044 C.ar           1 RES1               0.0000
     15 C15        113.4807 239.5549 321.9630 C.2            1 RES1               0.0000
     16 C16        118.8448 242.5275 323.1076 C.ar           1 RES1               0.0000
     17 O17        113.0437 238.5355 321.4367 O.2            1 RES1               0.0000
     18 H18        114.1877 243.2898 324.8488 H              1 RES1               0.0000
     19 H19        113.9569 244.0651 323.2714 H              1 RES1               0.0000
     20 H20        116.0101 244.1905 323.8637 H              1 RES1               0.0000
     21 H21        116.5124 240.1996 322.3943 H              1 RES1               0.0000
     22 H22        113.6396 240.5933 320.2120 H              1 RES1               0.0000
     23 H23        113.5034 238.8282 323.8677 H              1 RES1               0.0000
     24 H24        111.7952 243.7594 324.4334 H              1 RES1               0.0000
     25 H25        111.8379 242.7918 322.9615 H              1 RES1               0.0000
     26 H26        112.0674 242.0211 324.5295 H              1 RES1               0.0000
     27 H27        118.4455 244.4955 323.8399 H              1 RES1               0.0000
     28 H28        118.9422 240.5217 322.3761 H              1 RES1               0.0000
     29 H29        119.9209 242.6654 323.0978 H              1 RES1               0.0000
@<TRIPOS>BOND
    1    1    2 1     
    2    1    3 1     
    3    1    4 1     
    4    1    5 1     
    5    2    6 ar    
    6    2    7 ar    
    7    3    8 1     
    8    3    9 2     
    9    4   10 1     
   10    4   11 2     
   11    5   12 1     
   12    5   18 1     
   13    5   19 1     
   14    6   13 ar    
   15    6   20 1     
   16    7   14 ar    
   17    7   21 1     
   18    8   15 1     
   19    8   22 1     
   20   10   15 1     
   21   10   23 1     
   22   12   24 1     
   23   12   25 1     
   24   12   26 1     
   25   13   16 ar    
   26   13   27 1     
   27   14   16 ar    
   28   14   28 1     
   29   15   17 2     
   30   16   29 1     
@<TRIPOS>SUBSTRUCTURE
      1 RES1           1
@<TRIPOS>SET
DONOR_HYDROGENS      STATIC     ATOMS    <user>   **** ""
2 22 23
ATOM$RED        STATIC     ATOMS    COLORGROUP SYSTEM
2 22 23
@<TRIPOS>COMMENT
> <Gold.Version>
2022.3.0

> <Gold.Id.Protein>
unknown|6ng7_clean|pdb

> <Gold.Protein.RotatedTorsions>
[ 3576 3563 3564 3565 ] final   83.99 input  100.79 | X-H torsion
[ 3599 3592 3593 3594 ] final -106.41 input   89.00 | X-H torsion
[ 8433 8423 8424 8425 ] final  -63.40 input   34.47 | X-H torsion
[ 8461 8445 8446 8447 ] final   59.52 input   99.97 | X-H torsion
[ 8999 8992 8993 8994 ] final   35.54 input   33.19 | X-H torsion
[ 9040 9016 9017 9018 ] final -157.96 input   39.09 | X-H torsion
[ 9083 9062 9063 9064 ] final  -22.41 input   97.54 | X-H torsion
[ 9091 9073 9072 9070 ] final  -37.12 input   60.01 | X-H torsion
[ 9114 9100 9101 9102 ] final -113.30 input   92.58 | X-H torsion
[ 9186 9177 9178 9179 ] final   11.60 input  115.65 | X-H torsion
[ 8983 8972 8973 8974 ] final   46.34 input   31.13 | X-H torsion
[ 9134 9130 9131 9132 ] final    2.63 input  123.92 | X-H torsion
[ 11050 11043 11044 11045 ] final  137.76 input   53.30 | X-H torsion
[ 4890 4885 4884 4881 ] final   64.57 input   60.01 | X-H torsion
[ 8987 8977 8976 8973 ] final   44.77 input   59.99 | X-H torsion
[ 8957 8937 8938 8939 ] final -139.52 input   44.56 | X-H torsion
[ 4906 4901 4902 4903 ] final  -48.67 input   21.77 | X-H torsion
[ 8487 8476 8477 8478 ] final -150.31 input   54.71 | X-H torsion
[ 5574 5565 5566 5567 ] final  -68.09 input   53.40 | X-H torsion
[ 8328 8319 8318 8316 ] final  -53.25 input   60.03 | X-H torsion
[ 5550 5545 5544 5541 ] final  -54.70 input   59.98 | X-H torsion
[ 5606 5598 5599 5600 ] final  -60.49 input  117.00 | X-H torsion
[ 5644 5636 5637 5638 ] final -152.95 input   61.23 | X-H torsion
[ 9214 9206 9207 9208 ] final   63.22 input   98.56 | X-H torsion
[ 9346 9338 9339 9340 ] final  117.38 input  104.10 | X-H torsion
[ 9244 9240 9241 9242 ] final  115.19 input   92.42 | X-H torsion
[ 9304 9293 9294 9295 ] final  160.41 input   83.70 | X-H torsion
[ 9160 9153 9151 9148 ] final -164.24 input   60.00 | X-H torsion
[ 9378 9366 9367 9368 ] final   44.49 input   40.32 | X-H torsion
[ 9486 9481 9480 9477 ] final   86.52 input   60.00 | X-H torsion
[ 5688 5677 5678 5679 ] final   -3.45 input   32.59 | X-H torsion
[ 8379 8360 8361 8362 ] final -127.13 input   69.42 | X-H torsion
[ 8491 8481 8480 8477 ] final  159.23 input   60.01 | X-H torsion
[ 8514 8500 8501 8502 ] final  -55.23 input   65.89 | X-H torsion
[ 9264 9257 9258 9259 ] final  140.70 input   80.62 | X-H torsion
[ 9434 9426 9427 9428 ] final  -68.61 input  124.27 | X-H torsion
[ 13470 8400 8399 8398 ] final  134.83 input   -0.00 | X-H torsion
[ 13474 8940 8939 8938 ] final  149.01 input   -0.00 | X-H torsion
[ 13477 8995 8994 8993 ] final  -10.39 input    0.00 | X-H torsion
[ 13480 9019 9018 9017 ] final  100.69 input   -0.00 | X-H torsion
[ 13483 9065 9064 9063 ] final  164.95 input   -0.00 | X-H torsion
[ 13488 9103 9102 9101 ] final   40.32 input    0.00 | X-H torsion
[ 13500 8975 8974 8973 ] final  -93.90 input    0.00 | X-H torsion
[ 13502 8345 8344 8343 ] final   66.96 input   -0.00 | X-H torsion
[ 13506 11046 11045 11044 ] final -169.91 input    0.00 | X-H torsion
[ 13510 8363 8362 8361 ] final   15.98 input    0.00 | X-H torsion
[ 13512 8426 8425 8424 ] final  -76.01 input   -0.00 | X-H torsion
[ 13516 8448 8447 8446 ] final   28.83 input   -0.00 | X-H torsion
[ 13521 3502 3501 3500 ] final  -95.05 input    0.00 | X-H torsion
[ 13524 4904 4903 4902 ] final  -83.98 input    0.00 | X-H torsion
[ 13529 5543 5542 5541 ] final  -17.13 input   -0.00 | X-H torsion
[ 13534 9180 9179 9178 ] final   81.99 input    0.00 | X-H torsion
[ 13543 5639 5638 5637 ] final  147.36 input    0.00 | X-H torsion
[ 13548 9150 9149 9148 ] final   75.48 input    0.00 | X-H torsion
[ 13550 9209 9208 9207 ] final -167.07 input    0.00 | X-H torsion
[ 13554 9296 9295 9294 ] final -172.49 input    0.00 | X-H torsion
[ 13560 9260 9259 9258 ] final  -28.33 input    0.00 | X-H torsion
[ 13565 9341 9340 9339 ] final -172.83 input    0.00 | X-H torsion
[ 13572 5568 5567 5566 ] final  128.96 input    0.00 | X-H torsion

> <Gold.Protein.ActiveResidues>
 TRP311  MET341  TRP414  ARG419  CYS420  VAL421  GLY422  LEU429  LEU460  SER462 
 ALA463  ILE464  SER482  GLN483  LEU484  ILE485  ARG486  ASP500  ALA502  ASN503 
 TRP566  TYR567  GLY568  LEU569  PRO570  ALA571  VAL572  SER573  ASN574  MET575 
 PRO588  PHE589  SER590  GLY591  TRP592  TYR593  MET594  GLY595  THR596  GLU597 
 ILE598  GLY599  VAL600  ARG601  ASP602  TYR603  ASP605  SER607  ARG608  ILE653 
 VAL654  TRP683  PRO687  SER691  PHE696  HIS697  TYR711  HEM802  H4B803 

> <Gold.Protein.RotatedAtoms>
  121.4837  247.0112  327.9025 H   0  0  0  0  0  0  0  0  0  0  0  0  # atno 3576 bound_to 3563
  124.3046  246.7150  327.2665 H   0  0  0  0  0  0  0  0  0  0  0  0  # atno 3599 bound_to 3592
  125.8317  244.8845  316.8962 H   0  0  0  0  0  0  0  0  0  0  0  0  # atno 4890 bound_to 4885
  122.5319  246.7899  314.4444 H   0  0  0  0  0  0  0  0  0  0  0  0  # atno 4906 bound_to 4901
  106.1358  242.2066  319.0896 H   0  0  0  0  0  0  0  0  0  0  0  0  # atno 5550 bound_to 5545
  108.2800  243.6105  317.0529 H   0  0  0  0  0  0  0  0  0  0  0  0  # atno 5574 bound_to 5565
  110.1546  241.7534  315.5420 H   0  0  0  0  0  0  0  0  0  0  0  0  # atno 5606 bound_to 5598
  111.2017  239.4942  313.6140 H   0  0  0  0  0  0  0  0  0  0  0  0  # atno 5644 bound_to 5636
  109.2061  236.2129  315.2671 H   0  0  0  0  0  0  0  0  0  0  0  0  # atno 5688 bound_to 5677
  112.0180  236.7903  321.0278 H   0  0  0  0  0  0  0  0  0  0  0  0  # atno 8328 bound_to 8319
  118.9514  235.6468  316.7629 H   0  0  0  0  0  0  0  0  0  0  0  0  # atno 8379 bound_to 8360
  115.5463  241.9694  318.5210 H   0  0  0  0  0  0  0  0  0  0  0  0  # atno 8433 bound_to 8423
  115.0318  245.2868  317.2053 H   0  0  0  0  0  0  0  0  0  0  0  0  # atno 8461 bound_to 8445
  112.2384  246.1441  316.6672 H   0  0  0  0  0  0  0  0  0  0  0  0  # atno 8487 bound_to 8476
  108.8650  244.4476  314.5176 H   0  0  0  0  0  0  0  0  0  0  0  0  # atno 8491 bound_to 8481
  109.9557  248.6141  316.5767 H   0  0  0  0  0  0  0  0  0  0  0  0  # atno 8514 bound_to 8500
  115.3376  248.0933  313.7869 H   0  0  0  0  0  0  0  0  0  0  0  0  # atno 8957 bound_to 8937
  119.1627  246.2667  314.9558 H   0  0  0  0  0  0  0  0  0  0  0  0  # atno 8983 bound_to 8972
  120.3327  243.6975  314.2286 H   0  0  0  0  0  0  0  0  0  0  0  0  # atno 8987 bound_to 8977
  119.7540  242.8250  317.6963 H   0  0  0  0  0  0  0  0  0  0  0  0  # atno 8999 bound_to 8992
  122.3655  241.5598  318.2847 H   0  0  0  0  0  0  0  0  0  0  0  0  # atno 9040 bound_to 9016
  122.5628  239.0344  321.4782 H   0  0  0  0  0  0  0  0  0  0  0  0  # atno 9083 bound_to 9062
  114.6512  237.2582  320.4462 H   0  0  0  0  0  0  0  0  0  0  0  0  # atno 9091 bound_to 9073
  122.1178  238.8006  324.2481 H   0  0  0  0  0  0  0  0  0  0  0  0  # atno 9114 bound_to 9100
  121.5752  237.0496  327.7506 H   0  0  0  0  0  0  0  0  0  0  0  0  # atno 9134 bound_to 9130
  120.1967  238.6541  331.7172 H   0  0  0  0  0  0  0  0  0  0  0  0  # atno 9160 bound_to 9153
  118.0622  236.2092  328.4437 H   0  0  0  0  0  0  0  0  0  0  0  0  # atno 9186 bound_to 9177
  117.3627  235.3747  327.2983 H   0  0  0  0  0  0  0  0  0  0  0  0  # atno 9214 bound_to 9206
  117.2567  233.4830  328.2560 H   0  0  0  0  0  0  0  0  0  0  0  0  # atno 9244 bound_to 9240
  116.5396  233.8956  331.0619 H   0  0  0  0  0  0  0  0  0  0  0  0  # atno 9264 bound_to 9257
  114.0969  236.0501  331.5186 H   0  0  0  0  0  0  0  0  0  0  0  0  # atno 9304 bound_to 9293
  112.9090  235.5557  328.3539 H   0  0  0  0  0  0  0  0  0  0  0  0  # atno 9346 bound_to 9338
  111.6685  233.1122  329.4874 H   0  0  0  0  0  0  0  0  0  0  0  0  # atno 9378 bound_to 9366
  109.4235  233.0576  333.4263 H   0  0  0  0  0  0  0  0  0  0  0  0  # atno 9434 bound_to 9426
  104.4740  237.9703  330.6341 H   0  0  0  0  0  0  0  0  0  0  0  0  # atno 9486 bound_to 9481
  125.6390  237.3193  323.7465 H   0  0  0  0  0  0  0  0  0  0  0  0  # atno 11050 bound_to 11043
  121.9676  248.6773  328.1166 LP  0  0  0  0  0  0  0  0  0  0  0  0  # atno 13467 bound_to 3563
  123.1359  247.3954  326.1573 LP  0  0  0  0  0  0  0  0  0  0  0  0  # atno 13468 bound_to 3592
  117.7132  242.3755  316.6932 LP  0  0  0  0  0  0  0  0  0  0  0  0  # atno 13470 bound_to 8400
  118.3047  242.1263  318.3020 LP  0  0  0  0  0  0  0  0  0  0  0  0  # atno 13471 bound_to 8400
  115.2964  240.8333  317.2198 LP  0  0  0  0  0  0  0  0  0  0  0  0  # atno 13472 bound_to 8423
  114.1721  243.8488  317.7051 LP  0  0  0  0  0  0  0  0  0  0  0  0  # atno 13473 bound_to 8445
  116.3962  244.7533  316.4529 LP  0  0  0  0  0  0  0  0  0  0  0  0  # atno 13474 bound_to 8940
  115.7016  246.2966  316.8211 LP  0  0  0  0  0  0  0  0  0  0  0  0  # atno 13475 bound_to 8940
  120.3442  244.1232  316.6850 LP  0  0  0  0  0  0  0  0  0  0  0  0  # atno 13476 bound_to 8992
  121.3027  241.1818  316.3361 LP  0  0  0  0  0  0  0  0  0  0  0  0  # atno 13477 bound_to 8995
  122.0338  239.9178  317.2677 LP  0  0  0  0  0  0  0  0  0  0  0  0  # atno 13478 bound_to 8995
  122.4488  242.0128  319.9707 LP  0  0  0  0  0  0  0  0  0  0  0  0  # atno 13479 bound_to 9016
  121.0323  241.2560  321.9542 LP  0  0  0  0  0  0  0  0  0  0  0  0  # atno 13480 bound_to 9019
  122.7422  241.1723  322.2169 LP  0  0  0  0  0  0  0  0  0  0  0  0  # atno 13481 bound_to 9019
  121.2094  238.2974  320.6538 LP  0  0  0  0  0  0  0  0  0  0  0  0  # atno 13482 bound_to 9062
  123.8130  238.1008  324.5147 LP  0  0  0  0  0  0  0  0  0  0  0  0  # atno 13483 bound_to 9065
  123.3393  237.3219  323.0419 LP  0  0  0  0  0  0  0  0  0  0  0  0  # atno 13484 bound_to 9065
  114.3395  238.0725  321.8203 LP  0  0  0  0  0  0  0  0  0  0  0  0  # atno 13485 bound_to 9073
  114.2973  236.4401  321.8077 LP  0  0  0  0  0  0  0  0  0  0  0  0  # atno 13486 bound_to 9073
  120.6055  239.2780  324.9850 LP  0  0  0  0  0  0  0  0  0  0  0  0  # atno 13487 bound_to 9100
  119.5458  237.7262  325.9206 LP  0  0  0  0  0  0  0  0  0  0  0  0  # atno 13488 bound_to 9103
  119.4208  236.9304  327.4539 LP  0  0  0  0  0  0  0  0  0  0  0  0  # atno 13489 bound_to 9103
  118.3664  237.8175  329.0540 LP  0  0  0  0  0  0  0  0  0  0  0  0  # atno 13490 bound_to 9177
  117.6847  246.2657  315.8829 LP  0  0  0  0  0  0  0  0  0  0  0  0  # atno 13499 bound_to 8972
  121.6570  244.9992  315.3247 LP  0  0  0  0  0  0  0  0  0  0  0  0  # atno 13500 bound_to 8975
  121.2064  246.0592  316.6183 LP  0  0  0  0  0  0  0  0  0  0  0  0  # atno 13501 bound_to 8975
  120.9432  236.0595  317.4076 LP  0  0  0  0  0  0  0  0  0  0  0  0  # atno 13502 bound_to 8345
  119.7908  236.7437  318.5048 LP  0  0  0  0  0  0  0  0  0  0  0  0  # atno 13503 bound_to 8345
  122.6646  236.2948  326.6133 LP  0  0  0  0  0  0  0  0  0  0  0  0  # atno 13504 bound_to 9130
  125.3167  235.8118  324.5666 LP  0  0  0  0  0  0  0  0  0  0  0  0  # atno 13505 bound_to 11043
  124.2403  236.7656  327.9829 LP  0  0  0  0  0  0  0  0  0  0  0  0  # atno 13506 bound_to 11046
  124.1031  237.0785  326.2849 LP  0  0  0  0  0  0  0  0  0  0  0  0  # atno 13507 bound_to 11046
  124.2892  244.9439  317.4099 LP  0  0  0  0  0  0  0  0  0  0  0  0  # atno 13508 bound_to 4885
  125.3362  246.1277  317.8211 LP  0  0  0  0  0  0  0  0  0  0  0  0  # atno 13509 bound_to 4885
  115.6375  237.5917  316.0191 LP  0  0  0  0  0  0  0  0  0  0  0  0  # atno 13510 bound_to 8363
  115.3258  239.0065  316.9684 LP  0  0  0  0  0  0  0  0  0  0  0  0  # atno 13511 bound_to 8363
  112.5697  243.3923  315.7143 LP  0  0  0  0  0  0  0  0  0  0  0  0  # atno 13512 bound_to 8426
  112.2869  242.8757  317.3431 LP  0  0  0  0  0  0  0  0  0  0  0  0  # atno 13513 bound_to 8426
  119.1378  244.3534  313.3396 LP  0  0  0  0  0  0  0  0  0  0  0  0  # atno 13514 bound_to 8977
  119.3858  242.7395  313.3153 LP  0  0  0  0  0  0  0  0  0  0  0  0  # atno 13515 bound_to 8977
  114.2857  246.9656  316.1433 LP  0  0  0  0  0  0  0  0  0  0  0  0  # atno 13516 bound_to 8448
  112.9586  248.0237  315.7977 LP  0  0  0  0  0  0  0  0  0  0  0  0  # atno 13517 bound_to 8448
  114.9445  247.4389  315.3590 LP  0  0  0  0  0  0  0  0  0  0  0  0  # atno 13518 bound_to 8937
  119.1024  248.3344  329.7512 LP  0  0  0  0  0  0  0  0  0  0  0  0  # atno 13521 bound_to 3502
  117.8888  248.4072  328.5176 LP  0  0  0  0  0  0  0  0  0  0  0  0  # atno 13522 bound_to 3502
  122.7872  245.3783  313.4531 LP  0  0  0  0  0  0  0  0  0  0  0  0  # atno 13523 bound_to 4901
  119.3450  246.6007  313.4943 LP  0  0  0  0  0  0  0  0  0  0  0  0  # atno 13524 bound_to 4904
  120.0578  247.7859  314.5369 LP  0  0  0  0  0  0  0  0  0  0  0  0  # atno 13525 bound_to 4904
  110.7214  246.2240  317.5319 LP  0  0  0  0  0  0  0  0  0  0  0  0  # atno 13526 bound_to 8476
  109.1531  245.8620  318.2226 LP  0  0  0  0  0  0  0  0  0  0  0  0  # atno 13529 bound_to 5543
  110.3107  244.5746  318.2717 LP  0  0  0  0  0  0  0  0  0  0  0  0  # atno 13530 bound_to 5543
  108.2481  242.3798  318.2999 LP  0  0  0  0  0  0  0  0  0  0  0  0  # atno 13531 bound_to 5565
  110.6834  235.9968  320.5405 LP  0  0  0  0  0  0  0  0  0  0  0  0  # atno 13532 bound_to 8319
  111.1450  237.3667  319.7812 LP  0  0  0  0  0  0  0  0  0  0  0  0  # atno 13533 bound_to 8319
  114.1504  237.1032  326.4296 LP  0  0  0  0  0  0  0  0  0  0  0  0  # atno 13534 bound_to 9180
  114.0175  236.2410  327.9259 LP  0  0  0  0  0  0  0  0  0  0  0  0  # atno 13535 bound_to 9180
  106.2474  242.4621  320.6931 LP  0  0  0  0  0  0  0  0  0  0  0  0  # atno 13540 bound_to 5545
  107.5975  242.4098  319.7760 LP  0  0  0  0  0  0  0  0  0  0  0  0  # atno 13541 bound_to 5545
  111.7844  242.2715  315.2049 LP  0  0  0  0  0  0  0  0  0  0  0  0  # atno 13542 bound_to 5598
  110.6307  237.9811  317.8996 LP  0  0  0  0  0  0  0  0  0  0  0  0  # atno 13543 bound_to 5639
  112.1370  237.7000  317.0921 LP  0  0  0  0  0  0  0  0  0  0  0  0  # atno 13544 bound_to 5639
  111.3577  239.6650  315.3494 LP  0  0  0  0  0  0  0  0  0  0  0  0  # atno 13545 bound_to 5636
  116.0793  236.3636  326.6457 LP  0  0  0  0  0  0  0  0  0  0  0  0  # atno 13546 bound_to 9206
  111.5137  235.2371  329.3678 LP  0  0  0  0  0  0  0  0  0  0  0  0  # atno 13547 bound_to 9338
  116.2851  236.7900  330.9569 LP  0  0  0  0  0  0  0  0  0  0  0  0  # atno 13548 bound_to 9150
  115.9708  235.5624  329.7761 LP  0  0  0  0  0  0  0  0  0  0  0  0  # atno 13549 bound_to 9150
  113.9161  232.6833  328.7084 LP  0  0  0  0  0  0  0  0  0  0  0  0  # atno 13550 bound_to 9209
  113.5410  233.1100  327.0722 LP  0  0  0  0  0  0  0  0  0  0  0  0  # atno 13551 bound_to 9209
  115.5109  233.5602  328.1354 LP  0  0  0  0  0  0  0  0  0  0  0  0  # atno 13552 bound_to 9240
  113.4821  234.5594  330.8278 LP  0  0  0  0  0  0  0  0  0  0  0  0  # atno 13553 bound_to 9293
  109.6348  234.7269  329.1281 LP  0  0  0  0  0  0  0  0  0  0  0  0  # atno 13554 bound_to 9296
  109.6658  235.6609  330.5864 LP  0  0  0  0  0  0  0  0  0  0  0  0  # atno 13555 bound_to 9296
  118.9903  238.6997  330.6260 LP  0  0  0  0  0  0  0  0  0  0  0  0  # atno 13558 bound_to 9153
  120.4093  237.9848  330.2492 LP  0  0  0  0  0  0  0  0  0  0  0  0  # atno 13559 bound_to 9153
  112.5203  233.4352  333.2034 LP  0  0  0  0  0  0  0  0  0  0  0  0  # atno 13560 bound_to 9260
  111.7300  234.9395  332.8682 LP  0  0  0  0  0  0  0  0  0  0  0  0  # atno 13561 bound_to 9260
  110.3822  231.4080  326.7435 LP  0  0  0  0  0  0  0  0  0  0  0  0  # atno 13565 bound_to 9341
  110.6791  232.7431  325.6806 LP  0  0  0  0  0  0  0  0  0  0  0  0  # atno 13566 bound_to 9341
  111.0200  232.8796  327.8754 LP  0  0  0  0  0  0  0  0  0  0  0  0  # atno 13567 bound_to 9366
  104.8520  237.3103  332.0726 LP  0  0  0  0  0  0  0  0  0  0  0  0  # atno 13568 bound_to 9481
  104.0114  238.7088  332.0082 LP  0  0  0  0  0  0  0  0  0  0  0  0  # atno 13569 bound_to 9481
  108.3868  241.5148  314.4905 LP  0  0  0  0  0  0  0  0  0  0  0  0  # atno 13572 bound_to 5568
  108.3623  240.5745  315.9449 LP  0  0  0  0  0  0  0  0  0  0  0  0  # atno 13573 bound_to 5568
  109.8838  237.6229  316.0563 LP  0  0  0  0  0  0  0  0  0  0  0  0  # atno 13574 bound_to 5677
  117.2362  235.6555  316.4307 LP  0  0  0  0  0  0  0  0  0  0  0  0  # atno 13575 bound_to 8360
  108.8417  245.2966  315.9063 LP  0  0  0  0  0  0  0  0  0  0  0  0  # atno 13576 bound_to 8481
  110.0668  244.2615  315.5996 LP  0  0  0  0  0  0  0  0  0  0  0  0  # atno 13577 bound_to 8481

> <Gold.Score>
     Fitness  S(hb_ext) S(vdw_ext)  S(hb_int)    S(int)      intcor
     42.02       2.97      28.93       0.00      -0.72      -0.79

> <Gold.Goldscore.Fitness>
42.0159

> <Gold.Goldscore.Internal.Vdw>
-1.1190

> <Gold.Goldscore.Internal.Torsion>
-0.3894

> <Gold.Goldscore.External.Vdw>
28.9256

> <Gold.Goldscore.Internal.HBond>
0.0000

> <Gold.Goldscore.External.HBond>
2.9666

> <Gold.Goldscore.Internal.Correction>
-0.7850

> <Gold.Goldscore.Hbonds>
donor molecule, donor type, donor heavy atom, donor atom, acceptor molecule, acceptor atom, score
      P1  H  8319  8328       L1    17  0.04
      L1  H    10    23       P1  9345  0.48

> <Gold.Goldscore.Internal.Vdw.Weighted>
-1.1190

> <Gold.Goldscore.Internal.Torsion.Weighted>
-0.3894

> <Gold.Goldscore.External.Vdw.Weighted>
39.7727

> <Gold.Goldscore.Internal.HBond.Weighted>
0.0000

> <Gold.Goldscore.External.HBond.Weighted>
2.9666

> <Gold.Goldscore.Internal.Correction.Weighted>
-0.7850

> <Gold.Rescore>
     Score     S(PLP)   S(hbond)     S(cho)   S(metal)  DE(clash)   DE(tors)     intcor
     31.63     -33.19       0.00       0.00       0.00       0.00       0.78       ----

> <Gold.PLP.Fitness>
31.6340

> <Gold.PLP.PLP>
-33.1915

> <Gold.PLP.part.hbond>
-2.7799

> <Gold.PLP.part.metal>
0.0000

> <Gold.PLP.part.buried>
-3.7713

> <Gold.PLP.part.nonpolar>
-31.5753

> <Gold.PLP.part.repulsive>
3.2534

> <Gold.PLP.ligand.clash>
0.0000

> <Gold.PLP.ligand.torsion>
0.7787

> <Gold.PLP.Chemscore.Hbond>
0.0000

> <Gold.PLP.Chemscore.CHOScore>
0.0000

> <Gold.PLP.Chemscore.Metal>
0.0000

> <Gold.Chemscore.Hbonds>
donor molecule, donor type, donor heavy atom, donor atom, acceptor molecule, acceptor atom, score
      P1  H  8319  8328       L1    17  0.61

> <Gold.PLP.Chemscore.Internal.Correction>
   9.000000E+99

