#       Name:                CT1002167954
#       Creating user name   hitesit
#       Creation time:       Sun Apr 16 02:21:23 2023


#       File generated by GOLD software.
#

@<TRIPOS>MOLECULE
CT1002167954|ligand_prepared|mol2|1|dock5
    29    30     1
SMALL
NO_CHARGES


@<TRIPOS>ATOM
      1 C1          19.1431   2.1977 -24.0459 C.3            1 RES1               0.0000
      2 C2          19.8243   1.4177 -22.9030 C.ar           1 RES1               0.0000
      3 C3          17.7632   2.5952 -23.5303 C.2            1 RES1               0.0000
      4 C4          20.0546   3.3793 -24.3585 C.2            1 RES1               0.0000
      5 C5          18.9646   1.3757 -25.3436 C.3            1 RES1               0.0000
      6 C6          20.2828   0.1195 -23.1060 C.ar           1 RES1               0.0000
      7 C7          20.0034   1.9829 -21.6432 C.ar           1 RES1               0.0000
      8 N8          17.5657   3.9029 -23.1972 N.am           1 RES1               0.0000
      9 O9          16.8737   1.7665 -23.3808 O.2            1 RES1               0.0000
     10 N10         19.5817   4.6400 -24.1041 N.am           1 RES1               0.0000
     11 O11         21.1844   3.2292 -24.8072 O.2            1 RES1               0.0000
     12 C12         18.3080   2.1509 -26.4750 C.3            1 RES1               0.0000
     13 C13         20.9007  -0.5870 -22.0874 C.ar           1 RES1               0.0000
     14 C14         20.6213   1.2745 -20.6259 C.ar           1 RES1               0.0000
     15 C15         18.3903   4.9539 -23.5090 C.2            1 RES1               0.0000
     16 C16         21.0707  -0.0099 -20.8470 C.ar           1 RES1               0.0000
     17 O17         18.0585   6.1101 -23.2634 O.2            1 RES1               0.0000
     18 H18         19.9491   1.0272 -25.6792 H              1 RES1               0.0000
     19 H19         18.3542   0.4919 -25.1206 H              1 RES1               0.0000
     20 H20         20.1556  -0.3520 -24.0748 H              1 RES1               0.0000
     21 H21         19.6569   2.9917 -21.4461 H              1 RES1               0.0000
     22 H22         16.7275   4.1193 -22.6672 H              1 RES1               0.0000
     23 H23         20.1724   5.4163 -24.3846 H              1 RES1               0.0000
     24 H24         18.2066   1.5281 -27.3613 H              1 RES1               0.0000
     25 H25         17.3162   2.4912 -26.1847 H              1 RES1               0.0000
     26 H26         18.9016   3.0234 -26.7400 H              1 RES1               0.0000
     27 H27         21.2513  -1.5981 -22.2661 H              1 RES1               0.0000
     28 H28         20.7525   1.7325 -19.6511 H              1 RES1               0.0000
     29 H29         21.5551  -0.5635 -20.0494 H              1 RES1               0.0000
@<TRIPOS>BOND
    1    1    2 1     
    2    1    3 1     
    3    1    4 1     
    4    1    5 1     
    5    2    6 ar    
    6    2    7 ar    
    7    3    8 1     
    8    3    9 2     
    9    4   10 1     
   10    4   11 2     
   11    5   12 1     
   12    5   18 1     
   13    5   19 1     
   14    6   13 ar    
   15    6   20 1     
   16    7   14 ar    
   17    7   21 1     
   18    8   15 1     
   19    8   22 1     
   20   10   15 1     
   21   10   23 1     
   22   12   24 1     
   23   12   25 1     
   24   12   26 1     
   25   13   16 ar    
   26   13   27 1     
   27   14   16 ar    
   28   14   28 1     
   29   15   17 2     
   30   16   29 1     
@<TRIPOS>SUBSTRUCTURE
      1 RES1           1
@<TRIPOS>SET
DONOR_HYDROGENS      STATIC     ATOMS    <user>   **** ""
2 22 23
ATOM$RED        STATIC     ATOMS    COLORGROUP SYSTEM
2 22 23
@<TRIPOS>COMMENT
> <Gold.Version>
2022.3.0

> <Gold.Id.Protein>
unknown|6m9l_clean|pdb

> <Gold.Protein.RotatedTorsions>
[ 1648 1641 1639 1636 ] final -145.34 input   60.02 | X-H torsion

> <Gold.Protein.ActiveResidues>
 TRP18   PRO29   VAL30   GLY31   GLY36   SER37   VAL38   CYS39   ALA40   ARG49  
 VAL50   ALA51   VAL52   LYS53   LYS54   LEU55   GLU71   LEU72   LEU75   ILE84  
 GLY85   LEU86   LEU87   ASP88   VAL89   VAL102  TYR103  LEU104  VAL105  THR106 
 HIS107  LEU108  MET109  GLY110  ALA111  ASP112  LEU113  ASN114  PRO153  SER154 
 ASN155  LEU156  ALA157  VAL158  ASN159  LYS165  LEU167  ASP168  PHE169 

> <Gold.Protein.RotatedAtoms>
   20.8573   -6.1113  -25.2804 H   0  0  0  0  0  0  0  0  0  0  0  0  # atno 1648 bound_to 1641
   21.6496   -7.5321  -25.3081 LP  0  0  0  0  0  0  0  0  0  0  0  0  # atno 5362 bound_to 1641
   21.7294   -6.5242  -26.5904 LP  0  0  0  0  0  0  0  0  0  0  0  0  # atno 5363 bound_to 1641

> <Gold.Score>
     Fitness  S(hb_ext) S(vdw_ext)  S(hb_int)    S(int)      intcor
     27.13       0.21      20.28       0.00      -0.97      -0.76

> <Gold.Goldscore.Fitness>
27.1281

> <Gold.Goldscore.Internal.Vdw>
-1.3700

> <Gold.Goldscore.Internal.Torsion>
-0.3679

> <Gold.Goldscore.External.Vdw>
20.2834

> <Gold.Goldscore.Internal.HBond>
0.0000

> <Gold.Goldscore.External.HBond>
0.2113

> <Gold.Goldscore.Internal.Correction>
-0.7650

> <Gold.Goldscore.Hbonds>
donor molecule, donor type, donor heavy atom, donor atom, acceptor molecule, acceptor atom, score
      L1  H     8    22       P1  1726  0.04

> <Gold.Goldscore.Internal.Vdw.Weighted>
-1.3700

> <Gold.Goldscore.Internal.Torsion.Weighted>
-0.3679

> <Gold.Goldscore.External.Vdw.Weighted>
27.8897

> <Gold.Goldscore.Internal.HBond.Weighted>
0.0000

> <Gold.Goldscore.External.HBond.Weighted>
0.2113

> <Gold.Goldscore.Internal.Correction.Weighted>
-0.7650

> <Gold.Rescore>
     Score     S(PLP)   S(hbond)     S(cho)   S(metal)  DE(clash)   DE(tors)     intcor
     30.83     -30.89       0.00       0.00       0.00       0.00       0.03       ----

> <Gold.PLP.Fitness>
30.8304

> <Gold.PLP.PLP>
-30.8893

> <Gold.PLP.part.hbond>
0.0000

> <Gold.PLP.part.metal>
0.0000

> <Gold.PLP.part.buried>
-5.0286

> <Gold.PLP.part.nonpolar>
-26.7946

> <Gold.PLP.part.repulsive>
0.3724

> <Gold.PLP.ligand.clash>
0.0000

> <Gold.PLP.ligand.torsion>
0.0294

> <Gold.PLP.Chemscore.Hbond>
0.0000

> <Gold.PLP.Chemscore.CHOScore>
0.0000

> <Gold.PLP.Chemscore.Metal>
0.0000

> <Gold.Chemscore.Hbonds>
donor molecule, donor type, donor heavy atom, donor atom, acceptor molecule, acceptor atom, score
      L1  H     8    22       P1  1726  0.23

> <Gold.PLP.Chemscore.Internal.Correction>
   9.000000E+99

