#       Name:                CT1002167954
#       Creating user name   hitesit
#       Creation time:       Sun Apr 16 02:21:26 2023


#       File generated by GOLD software.
#

@<TRIPOS>MOLECULE
CT1002167954|ligand_prepared|mol2|1|dock8
    29    30     1
SMALL
NO_CHARGES


@<TRIPOS>ATOM
      1 C1          20.0057   1.7730 -24.4014 C.3            1 RES1               0.0000
      2 C2          20.2973   0.3432 -23.9020 C.ar           1 RES1               0.0000
      3 C3          19.1211   1.6237 -25.6356 C.2            1 RES1               0.0000
      4 C4          19.3370   2.5020 -23.2412 C.2            1 RES1               0.0000
      5 C5          21.2723   2.5668 -24.7979 C.3            1 RES1               0.0000
      6 C6          21.3792   0.0923 -23.0634 C.ar           1 RES1               0.0000
      7 C7          19.4931  -0.7327 -24.2685 C.ar           1 RES1               0.0000
      8 N8          17.8006   1.9400 -25.5086 N.am           1 RES1               0.0000
      9 O9          19.5671   1.1973 -26.6937 O.2            1 RES1               0.0000
     10 N10         18.0324   2.8922 -23.3945 N.am           1 RES1               0.0000
     11 O11         19.9229   2.7274 -22.1894 O.2            1 RES1               0.0000
     12 C12         20.9778   3.8578 -25.5453 C.3            1 RES1               0.0000
     13 C13         21.6460  -1.1873 -22.6054 C.ar           1 RES1               0.0000
     14 C14         19.7618  -2.0117 -23.8095 C.ar           1 RES1               0.0000
     15 C15         17.2244   2.6171 -24.4640 C.2            1 RES1               0.0000
     16 C16         20.8373  -2.2399 -22.9777 C.ar           1 RES1               0.0000
     17 O17         16.0448   2.9546 -24.5053 O.2            1 RES1               0.0000
     18 H18         21.8380   2.8061 -23.8890 H              1 RES1               0.0000
     19 H19         21.9049   1.9301 -25.4287 H              1 RES1               0.0000
     20 H20         22.0281   0.9078 -22.7618 H              1 RES1               0.0000
     21 H21         18.6422  -0.5769 -24.9229 H              1 RES1               0.0000
     22 H22         17.1845   1.6458 -26.2597 H              1 RES1               0.0000
     23 H23         17.6259   3.4385 -22.6417 H              1 RES1               0.0000
     24 H24         21.9005   4.3753 -25.7997 H              1 RES1               0.0000
     25 H25         20.4377   3.6550 -26.4678 H              1 RES1               0.0000
     26 H26         20.3712   4.5257 -24.9372 H              1 RES1               0.0000
     27 H27         22.4944  -1.3619 -21.9521 H              1 RES1               0.0000
     28 H28         19.1231  -2.8373 -24.1055 H              1 RES1               0.0000
     29 H29         21.0462  -3.2422 -22.6184 H              1 RES1               0.0000
@<TRIPOS>BOND
    1    1    2 1     
    2    1    3 1     
    3    1    4 1     
    4    1    5 1     
    5    2    6 ar    
    6    2    7 ar    
    7    3    8 1     
    8    3    9 2     
    9    4   10 1     
   10    4   11 2     
   11    5   12 1     
   12    5   18 1     
   13    5   19 1     
   14    6   13 ar    
   15    6   20 1     
   16    7   14 ar    
   17    7   21 1     
   18    8   15 1     
   19    8   22 1     
   20   10   15 1     
   21   10   23 1     
   22   12   24 1     
   23   12   25 1     
   24   12   26 1     
   25   13   16 ar    
   26   13   27 1     
   27   14   16 ar    
   28   14   28 1     
   29   15   17 2     
   30   16   29 1     
@<TRIPOS>SUBSTRUCTURE
      1 RES1           1
@<TRIPOS>SET
DONOR_HYDROGENS      STATIC     ATOMS    <user>   **** ""
2 22 23
ATOM$RED        STATIC     ATOMS    COLORGROUP SYSTEM
2 22 23
@<TRIPOS>COMMENT
> <Gold.Version>
2022.3.0

> <Gold.Id.Protein>
unknown|6m9l_clean|pdb

> <Gold.Protein.RotatedTorsions>
[ 1648 1641 1639 1636 ] final -134.92 input   60.02 | X-H torsion

> <Gold.Protein.ActiveResidues>
 TRP18   PRO29   VAL30   GLY31   GLY36   SER37   VAL38   CYS39   ALA40   ARG49  
 VAL50   ALA51   VAL52   LYS53   LYS54   LEU55   GLU71   LEU72   LEU75   ILE84  
 GLY85   LEU86   LEU87   ASP88   VAL89   VAL102  TYR103  LEU104  VAL105  THR106 
 HIS107  LEU108  MET109  GLY110  ALA111  ASP112  LEU113  ASN114  PRO153  SER154 
 ASN155  LEU156  ALA157  VAL158  ASN159  LYS165  LEU167  ASP168  PHE169 

> <Gold.Protein.RotatedAtoms>
   20.8747   -6.0169  -25.4207 H   0  0  0  0  0  0  0  0  0  0  0  0  # atno 1648 bound_to 1641
   21.5539   -7.4753  -25.1780 LP  0  0  0  0  0  0  0  0  0  0  0  0  # atno 5362 bound_to 1641
   21.8075   -6.6762  -26.5793 LP  0  0  0  0  0  0  0  0  0  0  0  0  # atno 5363 bound_to 1641

> <Gold.Score>
     Fitness  S(hb_ext) S(vdw_ext)  S(hb_int)    S(int)      intcor
     32.57       1.32      23.50       0.00      -1.06      -0.76

> <Gold.Goldscore.Fitness>
32.5712

> <Gold.Goldscore.Internal.Vdw>
-1.2414

> <Gold.Goldscore.Internal.Torsion>
-0.5841

> <Gold.Goldscore.External.Vdw>
23.5025

> <Gold.Goldscore.Internal.HBond>
0.0000

> <Gold.Goldscore.External.HBond>
1.3158

> <Gold.Goldscore.Internal.Correction>
-0.7650

> <Gold.Goldscore.Hbonds>
donor molecule, donor type, donor heavy atom, donor atom, acceptor molecule, acceptor atom, score
      P1  H  1702  1706       L1     9  0.66

> <Gold.Goldscore.Internal.Vdw.Weighted>
-1.2414

> <Gold.Goldscore.Internal.Torsion.Weighted>
-0.5841

> <Gold.Goldscore.External.Vdw.Weighted>
32.3160

> <Gold.Goldscore.Internal.HBond.Weighted>
0.0000

> <Gold.Goldscore.External.HBond.Weighted>
1.3158

> <Gold.Goldscore.Internal.Correction.Weighted>
-0.7650

> <Gold.Rescore>
     Score     S(PLP)   S(hbond)     S(cho)   S(metal)  DE(clash)   DE(tors)     intcor
     27.76     -24.08       1.76       0.00       0.00       1.26       0.17       ----

> <Gold.PLP.Fitness>
27.7586

> <Gold.PLP.PLP>
-24.0818

> <Gold.PLP.part.hbond>
-3.7588

> <Gold.PLP.part.metal>
0.0000

> <Gold.PLP.part.buried>
-0.4054

> <Gold.PLP.part.nonpolar>
-22.4806

> <Gold.PLP.part.repulsive>
0.5497

> <Gold.PLP.ligand.clash>
1.2647

> <Gold.PLP.ligand.torsion>
0.1749

> <Gold.PLP.Chemscore.Hbond>
1.7638

> <Gold.PLP.Chemscore.CHOScore>
0.0000

> <Gold.PLP.Chemscore.Metal>
0.0000

> <Gold.Chemscore.Hbonds>
donor molecule, donor type, donor heavy atom, donor atom, acceptor molecule, acceptor atom, score
      L1  H     8    22       P1  1712  0.18
      P1  H  1685  1693       L1     9  0.04
      P1  H  1702  1706       L1     9  0.37

> <Gold.PLP.Chemscore.Internal.Correction>
   9.000000E+99

