#       Name:                CT1002167954
#       Creating user name   hitesit
#       Creation time:       Sun Apr 16 02:21:20 2023


#       File generated by GOLD software.
#

@<TRIPOS>MOLECULE
CT1002167954|ligand_prepared|mol2|1|dock2
    29    30     1
SMALL
NO_CHARGES


@<TRIPOS>ATOM
      1 C1          22.3567  -2.4478 -21.1165 C.3            1 RES1               0.0000
      2 C2          21.5935  -1.9963 -22.3784 C.ar           1 RES1               0.0000
      3 C3          21.6211  -3.6753 -20.5871 C.2            1 RES1               0.0000
      4 C4          23.7890  -2.7241 -21.5601 C.2            1 RES1               0.0000
      5 C5          22.4005  -1.3810 -19.9977 C.3            1 RES1               0.0000
      6 C6          20.5746  -2.7817 -22.9092 C.ar           1 RES1               0.0000
      7 C7          21.8946  -0.7979 -23.0200 C.ar           1 RES1               0.0000
      8 N8          22.2113  -4.8916 -20.7661 N.am           1 RES1               0.0000
      9 O9          20.5214  -3.5815 -20.0559 O.2            1 RES1               0.0000
     10 N10         24.2442  -4.0149 -21.4931 N.am           1 RES1               0.0000
     11 O11         24.5220  -1.8386 -21.9829 O.2            1 RES1               0.0000
     12 C12         21.0869  -0.6397 -19.8055 C.3            1 RES1               0.0000
     13 C13         19.8799  -2.3822 -24.0389 C.ar           1 RES1               0.0000
     14 C14         21.1988  -0.4003 -24.1498 C.ar           1 RES1               0.0000
     15 C15         23.5104  -5.1161 -21.1451 C.2            1 RES1               0.0000
     16 C16         20.1911  -1.1912 -24.6596 C.ar           1 RES1               0.0000
     17 O17         23.9753  -6.2522 -21.1614 O.2            1 RES1               0.0000
     18 H18         22.6713  -1.8701 -19.0539 H              1 RES1               0.0000
     19 H19         23.1856  -0.6524 -20.2351 H              1 RES1               0.0000
     20 H20         20.3173  -3.7233 -22.4358 H              1 RES1               0.0000
     21 H21         22.6842  -0.1602 -22.6373 H              1 RES1               0.0000
     22 H22         21.6334  -5.7100 -20.6031 H              1 RES1               0.0000
     23 H23         25.2206  -4.1690 -21.7237 H              1 RES1               0.0000
     24 H24         21.1724   0.0967 -19.0092 H              1 RES1               0.0000
     25 H25         20.7998  -0.1207 -20.7177 H              1 RES1               0.0000
     26 H26         20.2886  -1.3311 -19.5435 H              1 RES1               0.0000
     27 H27         19.0887  -3.0088 -24.4369 H              1 RES1               0.0000
     28 H28         21.4475   0.5375 -24.6354 H              1 RES1               0.0000
     29 H29         19.6465  -0.8783 -25.5442 H              1 RES1               0.0000
@<TRIPOS>BOND
    1    1    2 1     
    2    1    3 1     
    3    1    4 1     
    4    1    5 1     
    5    2    6 ar    
    6    2    7 ar    
    7    3    8 1     
    8    3    9 2     
    9    4   10 1     
   10    4   11 2     
   11    5   12 1     
   12    5   18 1     
   13    5   19 1     
   14    6   13 ar    
   15    6   20 1     
   16    7   14 ar    
   17    7   21 1     
   18    8   15 1     
   19    8   22 1     
   20   10   15 1     
   21   10   23 1     
   22   12   24 1     
   23   12   25 1     
   24   12   26 1     
   25   13   16 ar    
   26   13   27 1     
   27   14   16 ar    
   28   14   28 1     
   29   15   17 2     
   30   16   29 1     
@<TRIPOS>SUBSTRUCTURE
      1 RES1           1
@<TRIPOS>SET
DONOR_HYDROGENS      STATIC     ATOMS    <user>   **** ""
2 22 23
ATOM$RED        STATIC     ATOMS    COLORGROUP SYSTEM
2 22 23
@<TRIPOS>COMMENT
> <Gold.Version>
2022.3.0

> <Gold.Id.Protein>
unknown|6m9l_clean|pdb

> <Gold.Protein.RotatedTorsions>
[ 1648 1641 1639 1636 ] final -139.69 input   60.02 | X-H torsion

> <Gold.Protein.ActiveResidues>
 TRP18   PRO29   VAL30   GLY31   GLY36   SER37   VAL38   CYS39   ALA40   ARG49  
 VAL50   ALA51   VAL52   LYS53   LYS54   LEU55   GLU71   LEU72   LEU75   ILE84  
 GLY85   LEU86   LEU87   ASP88   VAL89   VAL102  TYR103  LEU104  VAL105  THR106 
 HIS107  LEU108  MET109  GLY110  ALA111  ASP112  LEU113  ASN114  PRO153  SER154 
 ASN155  LEU156  ALA157  VAL158  ASN159  LYS165  LEU167  ASP168  PHE169 

> <Gold.Protein.RotatedAtoms>
   20.8645   -6.0574  -25.3549 H   0  0  0  0  0  0  0  0  0  0  0  0  # atno 1648 bound_to 1641
   21.5985   -7.5046  -25.2356 LP  0  0  0  0  0  0  0  0  0  0  0  0  # atno 5362 bound_to 1641
   21.7732   -6.6061  -26.5879 LP  0  0  0  0  0  0  0  0  0  0  0  0  # atno 5363 bound_to 1641

> <Gold.Score>
     Fitness  S(hb_ext) S(vdw_ext)  S(hb_int)    S(int)      intcor
     33.32       0.06      27.13       0.00      -4.05      -0.78

> <Gold.Goldscore.Fitness>
33.3150

> <Gold.Goldscore.Internal.Vdw>
-3.9328

> <Gold.Goldscore.Internal.Torsion>
-0.8995

> <Gold.Goldscore.External.Vdw>
27.1298

> <Gold.Goldscore.Internal.HBond>
0.0000

> <Gold.Goldscore.External.HBond>
0.0618

> <Gold.Goldscore.Internal.Correction>
-0.7819

> <Gold.Goldscore.Hbonds>
donor molecule, donor type, donor heavy atom, donor atom, acceptor molecule, acceptor atom, score
      L1  H    10    23       P1  1603  0.03

> <Gold.Goldscore.Internal.Vdw.Weighted>
-3.9328

> <Gold.Goldscore.Internal.Torsion.Weighted>
-0.8995

> <Gold.Goldscore.External.Vdw.Weighted>
37.3035

> <Gold.Goldscore.Internal.HBond.Weighted>
0.0000

> <Gold.Goldscore.External.HBond.Weighted>
0.0618

> <Gold.Goldscore.Internal.Correction.Weighted>
-0.7819

> <Gold.Rescore>
     Score     S(PLP)   S(hbond)     S(cho)   S(metal)  DE(clash)   DE(tors)     intcor
     34.31     -34.80       0.62       0.00       0.00       0.42       0.96       ----

> <Gold.PLP.Fitness>
34.3074

> <Gold.PLP.PLP>
-34.7966

> <Gold.PLP.part.hbond>
-1.1994

> <Gold.PLP.part.metal>
0.0000

> <Gold.PLP.part.buried>
-4.1105

> <Gold.PLP.part.nonpolar>
-30.8128

> <Gold.PLP.part.repulsive>
0.6207

> <Gold.PLP.ligand.clash>
0.4226

> <Gold.PLP.ligand.torsion>
0.9595

> <Gold.PLP.Chemscore.Hbond>
0.6175

> <Gold.PLP.Chemscore.CHOScore>
0.0000

> <Gold.PLP.Chemscore.Metal>
0.0000

> <Gold.Chemscore.Hbonds>
donor molecule, donor type, donor heavy atom, donor atom, acceptor molecule, acceptor atom, score
      L1  H    10    23       P1  1603  0.05

> <Gold.PLP.Chemscore.Internal.Correction>
   9.000000E+99

