#       Name:                CT1002167954
#       Creating user name   hitesit
#       Creation time:       Sun Apr 16 02:21:12 2023


#       File generated by GOLD software.
#

@<TRIPOS>MOLECULE
CT1002167954|ligand_prepared|mol2|1|dock2
    29    30     1
SMALL
NO_CHARGES


@<TRIPOS>ATOM
      1 C1          17.4023   3.8798  -7.2979 C.3            1 RES1               0.0000
      2 C2          18.6176   4.4758  -8.0371 C.ar           1 RES1               0.0000
      3 C3          16.2217   3.9870  -8.2586 C.2            1 RES1               0.0000
      4 C4          17.7826   2.4482  -6.9369 C.2            1 RES1               0.0000
      5 C5          17.0405   4.6223  -5.9904 C.3            1 RES1               0.0000
      6 C6          19.2238   3.7808  -9.0793 C.ar           1 RES1               0.0000
      7 C7          19.1413   5.7186  -7.6906 C.ar           1 RES1               0.0000
      8 N8          15.7854   2.8402  -8.8539 N.am           1 RES1               0.0000
      9 O9          15.7068   5.0671  -8.5202 O.2            1 RES1               0.0000
     10 N10         17.0855   1.4292  -7.5316 N.am           1 RES1               0.0000
     11 O11         18.6906   2.1930  -6.1554 O.2            1 RES1               0.0000
     12 C12         15.9614   3.9316  -5.1716 C.3            1 RES1               0.0000
     13 C13         20.3122   4.3101  -9.7527 C.ar           1 RES1               0.0000
     14 C14         20.2299   6.2460  -8.3652 C.ar           1 RES1               0.0000
     15 C15         16.1247   1.5599  -8.4970 C.2            1 RES1               0.0000
     16 C16         20.8157   5.5431  -9.3965 C.ar           1 RES1               0.0000
     17 O17         15.5813   0.5933  -9.0237 O.2            1 RES1               0.0000
     18 H18         17.9444   4.7159  -5.3759 H              1 RES1               0.0000
     19 H19         16.6996   5.6342  -6.2417 H              1 RES1               0.0000
     20 H20         18.8430   2.8080  -9.3721 H              1 RES1               0.0000
     21 H21         18.6972   6.2888  -6.8818 H              1 RES1               0.0000
     22 H22         15.1478   2.9441  -9.6369 H              1 RES1               0.0000
     23 H23         17.3030   0.4859  -7.2262 H              1 RES1               0.0000
     24 H24         15.7457   4.4937  -4.2654 H              1 RES1               0.0000
     25 H25         15.0399   3.8441  -5.7434 H              1 RES1               0.0000
     26 H26         16.2773   2.9312  -4.8828 H              1 RES1               0.0000
     27 H27         20.7705   3.7524 -10.5627 H              1 RES1               0.0000
     28 H28         20.6232   7.2165  -8.0811 H              1 RES1               0.0000
     29 H29         21.6681   5.9577  -9.9244 H              1 RES1               0.0000
@<TRIPOS>BOND
    1    1    2 1     
    2    1    3 1     
    3    1    4 1     
    4    1    5 1     
    5    2    6 ar    
    6    2    7 ar    
    7    3    8 1     
    8    3    9 2     
    9    4   10 1     
   10    4   11 2     
   11    5   12 1     
   12    5   18 1     
   13    5   19 1     
   14    6   13 ar    
   15    6   20 1     
   16    7   14 ar    
   17    7   21 1     
   18    8   15 1     
   19    8   22 1     
   20   10   15 1     
   21   10   23 1     
   22   12   24 1     
   23   12   25 1     
   24   12   26 1     
   25   13   16 ar    
   26   13   27 1     
   27   14   16 ar    
   28   14   28 1     
   29   15   17 2     
   30   16   29 1     
@<TRIPOS>SUBSTRUCTURE
      1 RES1           1
@<TRIPOS>SET
DONOR_HYDROGENS      STATIC     ATOMS    <user>   **** ""
2 22 23
ATOM$RED        STATIC     ATOMS    COLORGROUP SYSTEM
2 22 23
@<TRIPOS>COMMENT
> <Gold.Version>
2022.3.0

> <Gold.Id.Protein>
unknown|4i1b_cavity_clean|pdb

> <Gold.Protein.RotatedTorsions>
[ 1141 1130 1129 1128 ] final -126.88 input   59.98 | X-H torsion
[ 1185 1176 1175 1174 ] final  171.91 input   60.00 | X-H torsion
[ 2005 2000 1999 1996 ] final -167.87 input   60.00 | X-H torsion
[ 1215 1210 1208 1205 ] final  -56.32 input   59.98 | X-H torsion
[ 2175 2168 2166 2163 ] final -102.44 input   59.99 | X-H torsion
[  340  339  338  336 ] final  121.56 input   59.98 | X-H torsion

> <Gold.Protein.ActiveResidues>
 TYR24   GLU25   LEU26   LEU69   LYS74   LYS77   PRO78   THR79   LEU80   GLN81  
 LEU82   TRP120  SER125  MET130  PRO131  VAL132  PHE133  LEU134  GLY136  THR137 
 ASP142 

> <Gold.Protein.RotatedAtoms>
   16.9721   -2.9805    6.4890 H   0  0  0  0  0  0  0  0  0  0  0  0  # atno 340  bound_to 339 
   22.8129   -3.3464   -3.5476 H   0  0  0  0  0  0  0  0  0  0  0  0  # atno 1141 bound_to 1130
   23.5916   -3.1504   -4.9980 H   0  0  0  0  0  0  0  0  0  0  0  0  # atno 1142 bound_to 1130
   24.4689   -3.3553   -3.6072 H   0  0  0  0  0  0  0  0  0  0  0  0  # atno 1143 bound_to 1130
   22.4010    7.6378  -11.7548 H   0  0  0  0  0  0  0  0  0  0  0  0  # atno 1185 bound_to 1176
   22.9154    7.5532  -13.3283 H   0  0  0  0  0  0  0  0  0  0  0  0  # atno 1186 bound_to 1176
   22.1944    6.2392  -12.6210 H   0  0  0  0  0  0  0  0  0  0  0  0  # atno 1187 bound_to 1176
   22.5644    4.1391   -7.9536 H   0  0  0  0  0  0  0  0  0  0  0  0  # atno 1215 bound_to 1210
   11.6881    8.3234  -13.2854 H   0  0  0  0  0  0  0  0  0  0  0  0  # atno 2005 bound_to 2000
   19.6266   15.0249  -16.2518 H   0  0  0  0  0  0  0  0  0  0  0  0  # atno 2175 bound_to 2168
   12.2115    9.0659  -11.9353 LP  0  0  0  0  0  0  0  0  0  0  0  0  # atno 2424 bound_to 2000
   12.3703    9.7974  -13.3866 LP  0  0  0  0  0  0  0  0  0  0  0  0  # atno 2425 bound_to 2000
   23.3030    2.8023   -7.3920 LP  0  0  0  0  0  0  0  0  0  0  0  0  # atno 2432 bound_to 1210
   24.1705    4.1529   -7.6923 LP  0  0  0  0  0  0  0  0  0  0  0  0  # atno 2433 bound_to 1210
   20.3448   15.9451  -17.3860 LP  0  0  0  0  0  0  0  0  0  0  0  0  # atno 2440 bound_to 2168
   19.7642   16.6303  -16.0222 LP  0  0  0  0  0  0  0  0  0  0  0  0  # atno 2441 bound_to 2168
   15.5938   -3.8261    6.3061 LP  0  0  0  0  0  0  0  0  0  0  0  0  # atno 2456 bound_to 339 
   15.5680   -2.3648    7.0345 LP  0  0  0  0  0  0  0  0  0  0  0  0  # atno 2457 bound_to 339 

> <Gold.Score>
     Fitness  S(hb_ext) S(vdw_ext)  S(hb_int)    S(int)      intcor
     28.37       0.00      20.64       0.00      -0.00      -0.76

> <Gold.Goldscore.Fitness>
28.3738

> <Gold.Goldscore.Internal.Vdw>
-0.3069

> <Gold.Goldscore.Internal.Torsion>
-0.4539

> <Gold.Goldscore.External.Vdw>
20.6378

> <Gold.Goldscore.Internal.HBond>
0.0000

> <Gold.Goldscore.External.HBond>
0.0000

> <Gold.Goldscore.Internal.Correction>
-0.7576

> <Gold.Goldscore.Internal.Vdw.Weighted>
-0.3069

> <Gold.Goldscore.Internal.Torsion.Weighted>
-0.4539

> <Gold.Goldscore.External.Vdw.Weighted>
28.3770

> <Gold.Goldscore.Internal.HBond.Weighted>
0.0000

> <Gold.Goldscore.External.HBond.Weighted>
0.0000

> <Gold.Goldscore.Internal.Correction.Weighted>
-0.7576

> <Gold.Rescore>
     Score     S(PLP)   S(hbond)     S(cho)   S(metal)  DE(clash)   DE(tors)     intcor
     28.80     -28.85       0.00       0.00       0.00       0.00       0.02       ----

> <Gold.PLP.Fitness>
28.8033

> <Gold.PLP.PLP>
-28.8513

> <Gold.PLP.part.hbond>
0.0000

> <Gold.PLP.part.metal>
0.0000

> <Gold.PLP.part.buried>
0.1966

> <Gold.PLP.part.nonpolar>
-30.0182

> <Gold.PLP.part.repulsive>
0.2933

> <Gold.PLP.ligand.clash>
0.0000

> <Gold.PLP.ligand.torsion>
0.0240

> <Gold.PLP.Chemscore.Hbond>
0.0000

> <Gold.PLP.Chemscore.CHOScore>
0.0000

> <Gold.PLP.Chemscore.Metal>
0.0000

> <Gold.PLP.Chemscore.Internal.Correction>
   9.000000E+99

