#       Name:                CT1002167954
#       Creating user name   hitesit
#       Creation time:       Sun Apr 16 20:20:12 2023


#       File generated by GOLD software.
#

@<TRIPOS>MOLECULE
CT1002167954|ligand_prepared|mol2|1|dock6
    29    30     1
SMALL
NO_CHARGES


@<TRIPOS>ATOM
      1 C1         208.6457  54.3581  68.0809 C.3            1 RES1               0.0000
      2 C2         208.3128  55.6789  67.3574 C.ar           1 RES1               0.0000
      3 C3         208.6745  53.2760  67.0054 C.2            1 RES1               0.0000
      4 C4         209.9839  54.5787  68.7774 C.2            1 RES1               0.0000
      5 C5         207.6086  53.9555  69.1551 C.3            1 RES1               0.0000
      6 C6         207.5372  56.6521  67.9804 C.ar           1 RES1               0.0000
      7 C7         208.7756  55.9392  66.0703 C.ar           1 RES1               0.0000
      8 N8         209.8924  52.7912  66.6294 N.am           1 RES1               0.0000
      9 O9         207.6469  52.8824  66.4674 O.2            1 RES1               0.0000
     10 N10        211.0596  53.8463  68.3481 N.am           1 RES1               0.0000
     11 O11        210.1203  55.3921  69.6830 O.2            1 RES1               0.0000
     12 C12        207.7323  52.5118  69.6161 C.3            1 RES1               0.0000
     13 C13        207.2376  57.8436  67.3410 C.ar           1 RES1               0.0000
     14 C14        208.4745  57.1314  65.4326 C.ar           1 RES1               0.0000
     15 C15        211.0815  52.9849  67.2853 C.2            1 RES1               0.0000
     16 C16        207.7063  58.0843  66.0671 C.ar           1 RES1               0.0000
     17 O17        212.1017  52.4039  66.9262 O.2            1 RES1               0.0000
     18 H18        207.7260  54.6149  70.0239 H              1 RES1               0.0000
     19 H19        206.6014  54.1115  68.7495 H              1 RES1               0.0000
     20 H20        207.1575  56.4795  68.9819 H              1 RES1               0.0000
     21 H21        209.3808  55.2036  65.5514 H              1 RES1               0.0000
     22 H22        209.9218  52.2330  65.7821 H              1 RES1               0.0000
     23 H23        211.9241  53.9532  68.8693 H              1 RES1               0.0000
     24 H24        206.9817  52.2818  70.3694 H              1 RES1               0.0000
     25 H25        207.5957  51.8273  68.7815 H              1 RES1               0.0000
     26 H26        208.7137  52.3277  70.0484 H              1 RES1               0.0000
     27 H27        206.6314  58.5898  67.8442 H              1 RES1               0.0000
     28 H28        208.8450  57.3162  64.4297 H              1 RES1               0.0000
     29 H29        207.4717  59.0179  65.5666 H              1 RES1               0.0000
@<TRIPOS>BOND
    1    1    2 1     
    2    1    3 1     
    3    1    4 1     
    4    1    5 1     
    5    2    6 ar    
    6    2    7 ar    
    7    3    8 1     
    8    3    9 2     
    9    4   10 1     
   10    4   11 2     
   11    5   12 1     
   12    5   18 1     
   13    5   19 1     
   14    6   13 ar    
   15    6   20 1     
   16    7   14 ar    
   17    7   21 1     
   18    8   15 1     
   19    8   22 1     
   20   10   15 1     
   21   10   23 1     
   22   12   24 1     
   23   12   25 1     
   24   12   26 1     
   25   13   16 ar    
   26   13   27 1     
   27   14   16 ar    
   28   14   28 1     
   29   15   17 2     
   30   16   29 1     
@<TRIPOS>SUBSTRUCTURE
      1 RES1           1
@<TRIPOS>SET
DONOR_HYDROGENS      STATIC     ATOMS    <user>   **** ""
2 22 23
ATOM$RED        STATIC     ATOMS    COLORGROUP SYSTEM
2 22 23
@<TRIPOS>COMMENT
> <Gold.Version>
2022.3.0

> <Gold.Id.Protein>
unknown|4d1n_clean|pdb

> <Gold.Protein.RotatedTorsions>
[ 9562 9508 9507 9505 ] final   92.89 input   60.00 | X-H torsion
[ 7906 7874 7873 7870 ] final   71.81 input   60.00 | X-H torsion

> <Gold.Protein.ActiveResidues>
 ASP403  THR404  ILE407  TYR408  ALA410  LYS411  TRP414  GLN425  TRP426  SER427 
 LYS428  LEU429  GLN430  VAL431  PHE432  ASP433  TYR453  SER462  ALA463  ILE464 

> <Gold.Protein.RotatedAtoms>
  205.0412   51.5141   61.8097 H   0  0  0  0  0  0  0  0  0  0  0  0  # atno 7906 bound_to 7874
  209.1400   52.0173   72.6871 H   0  0  0  0  0  0  0  0  0  0  0  0  # atno 9562 bound_to 9508
  208.0562   52.5725   73.7664 LP  0  0  0  0  0  0  0  0  0  0  0  0  # atno 27207 bound_to 9508
  207.8416   51.1128   73.0665 LP  0  0  0  0  0  0  0  0  0  0  0  0  # atno 27208 bound_to 9508
  204.6058   50.1015   61.1298 LP  0  0  0  0  0  0  0  0  0  0  0  0  # atno 27219 bound_to 7874
  204.8520   51.4187   60.1965 LP  0  0  0  0  0  0  0  0  0  0  0  0  # atno 27220 bound_to 7874

> <Gold.Score>
     Fitness  S(hb_ext) S(vdw_ext)  S(hb_int)    S(int)      intcor
     16.19       0.02      12.30       0.00      -0.75      -0.76

> <Gold.Goldscore.Fitness>
16.1861

> <Gold.Goldscore.Internal.Vdw>
-0.8054

> <Gold.Goldscore.Internal.Torsion>
-0.7032

> <Gold.Goldscore.External.Vdw>
12.3022

> <Gold.Goldscore.Internal.HBond>
0.0000

> <Gold.Goldscore.External.HBond>
0.0207

> <Gold.Goldscore.Internal.Correction>
-0.7585

> <Gold.Goldscore.Hbonds>
donor molecule, donor type, donor heavy atom, donor atom, acceptor molecule, acceptor atom, score
      P1  H  8084  8134       L1    11  0.01

> <Gold.Goldscore.Internal.Vdw.Weighted>
-0.8054

> <Gold.Goldscore.Internal.Torsion.Weighted>
-0.7032

> <Gold.Goldscore.External.Vdw.Weighted>
16.9156

> <Gold.Goldscore.Internal.HBond.Weighted>
0.0000

> <Gold.Goldscore.External.HBond.Weighted>
0.0207

> <Gold.Goldscore.Internal.Correction.Weighted>
-0.7585

> <Gold.Rescore>
     Score     S(PLP)   S(hbond)     S(cho)   S(metal)  DE(clash)   DE(tors)     intcor
     18.73     -16.93       0.99       0.00       0.00       0.00       0.59       ----

> <Gold.PLP.Fitness>
18.7297

> <Gold.PLP.PLP>
-16.9260

> <Gold.PLP.part.hbond>
-1.6443

> <Gold.PLP.part.metal>
0.0000

> <Gold.PLP.part.buried>
-4.1189

> <Gold.PLP.part.nonpolar>
-14.3446

> <Gold.PLP.part.repulsive>
2.7615

> <Gold.PLP.ligand.clash>
0.0000

> <Gold.PLP.ligand.torsion>
0.5862

> <Gold.PLP.Chemscore.Hbond>
0.9920

> <Gold.PLP.Chemscore.CHOScore>
0.0000

> <Gold.PLP.Chemscore.Metal>
0.0000

> <Gold.Chemscore.Hbonds>
donor molecule, donor type, donor heavy atom, donor atom, acceptor molecule, acceptor atom, score
      P1  H  8084  8134       L1    11  0.62

> <Gold.PLP.Chemscore.Internal.Correction>
   9.000000E+99

