#       Name:                CT1002167954
#       Creating user name   hitesit
#       Creation time:       Sun Apr 16 20:20:10 2023


#       File generated by GOLD software.
#

@<TRIPOS>MOLECULE
CT1002167954|ligand_prepared|mol2|1|dock1
    29    30     1
SMALL
NO_CHARGES


@<TRIPOS>ATOM
      1 C1         206.3975  52.7187  69.7341 C.3            1 RES1               0.0000
      2 C2         205.5945  51.4397  70.0472 C.ar           1 RES1               0.0000
      3 C3         207.8701  52.3210  69.7761 C.2            1 RES1               0.0000
      4 C4         205.9212  53.1976  68.3672 C.2            1 RES1               0.0000
      5 C5         206.1689  53.8639  70.7479 C.3            1 RES1               0.0000
      6 C6         205.9491  50.2222  69.4739 C.ar           1 RES1               0.0000
      7 C7         204.5002  51.4611  70.9079 C.ar           1 RES1               0.0000
      8 N8         208.5314  52.2198  68.5877 N.am           1 RES1               0.0000
      9 O9         208.4320  52.0617  70.8331 O.2            1 RES1               0.0000
     10 N10        206.8173  53.1746  67.3307 N.am           1 RES1               0.0000
     11 O11        204.7733  53.5789  68.1746 O.2            1 RES1               0.0000
     12 C12        207.1271  55.0324  70.5793 C.3            1 RES1               0.0000
     13 C13        205.2374  49.0672  69.7532 C.ar           1 RES1               0.0000
     14 C14        203.7898  50.3049  71.1857 C.ar           1 RES1               0.0000
     15 C15        208.0918  52.6786  67.3720 C.2            1 RES1               0.0000
     16 C16        204.1577  49.1077  70.6095 C.ar           1 RES1               0.0000
     17 O17        208.8193  52.6423  66.3837 O.2            1 RES1               0.0000
     18 H18        205.1411  54.2316  70.6394 H              1 RES1               0.0000
     19 H19        206.2761  53.4631  71.7634 H              1 RES1               0.0000
     20 H20        206.7943  50.1714  68.7957 H              1 RES1               0.0000
     21 H21        204.1920  52.3918  71.3718 H              1 RES1               0.0000
     22 H22        209.4364  51.7605  68.6045 H              1 RES1               0.0000
     23 H23        206.5053  53.5635  66.4465 H              1 RES1               0.0000
     24 H24        206.9234  55.8076  71.3150 H              1 RES1               0.0000
     25 H25        208.1578  54.7075  70.7060 H              1 RES1               0.0000
     26 H26        207.0295  55.4714  69.5885 H              1 RES1               0.0000
     27 H27        205.5302  48.1278  69.2961 H              1 RES1               0.0000
     28 H28        202.9403  50.3415  71.8597 H              1 RES1               0.0000
     29 H29        203.6006  48.2027  70.8284 H              1 RES1               0.0000
@<TRIPOS>BOND
    1    1    2 1     
    2    1    3 1     
    3    1    4 1     
    4    1    5 1     
    5    2    6 ar    
    6    2    7 ar    
    7    3    8 1     
    8    3    9 2     
    9    4   10 1     
   10    4   11 2     
   11    5   12 1     
   12    5   18 1     
   13    5   19 1     
   14    6   13 ar    
   15    6   20 1     
   16    7   14 ar    
   17    7   21 1     
   18    8   15 1     
   19    8   22 1     
   20   10   15 1     
   21   10   23 1     
   22   12   24 1     
   23   12   25 1     
   24   12   26 1     
   25   13   16 ar    
   26   13   27 1     
   27   14   16 ar    
   28   14   28 1     
   29   15   17 2     
   30   16   29 1     
@<TRIPOS>SUBSTRUCTURE
      1 RES1           1
@<TRIPOS>SET
DONOR_HYDROGENS      STATIC     ATOMS    <user>   **** ""
2 22 23
ATOM$RED        STATIC     ATOMS    COLORGROUP SYSTEM
2 22 23
@<TRIPOS>COMMENT
> <Gold.Version>
2022.3.0

> <Gold.Id.Protein>
unknown|4d1n_clean|pdb

> <Gold.Protein.RotatedTorsions>
[ 9562 9508 9507 9505 ] final -135.76 input   60.00 | X-H torsion
[ 7906 7874 7873 7870 ] final   47.04 input   60.00 | X-H torsion

> <Gold.Protein.ActiveResidues>
 ASP403  THR404  ILE407  TYR408  ALA410  LYS411  TRP414  GLN425  TRP426  SER427 
 LYS428  LEU429  GLN430  VAL431  PHE432  ASP433  TYR453  SER462  ALA463  ILE464 

> <Gold.Protein.RotatedAtoms>
  204.9632   51.1517   61.9636 H   0  0  0  0  0  0  0  0  0  0  0  0  # atno 7906 bound_to 7874
  207.7336   51.1949   73.1937 H   0  0  0  0  0  0  0  0  0  0  0  0  # atno 9562 bound_to 9508
  209.1042   51.8512   72.6118 LP  0  0  0  0  0  0  0  0  0  0  0  0  # atno 27207 bound_to 9508
  208.2098   52.6623   73.7111 LP  0  0  0  0  0  0  0  0  0  0  0  0  # atno 27208 bound_to 9508
  204.5811   50.1613   60.7306 LP  0  0  0  0  0  0  0  0  0  0  0  0  # atno 27219 bound_to 7874
  204.9554   51.7241   60.4406 LP  0  0  0  0  0  0  0  0  0  0  0  0  # atno 27220 bound_to 7874

> <Gold.Score>
     Fitness  S(hb_ext) S(vdw_ext)  S(hb_int)    S(int)      intcor
     31.47       1.07      22.19       0.00      -0.11      -0.79

> <Gold.Goldscore.Fitness>
31.4702

> <Gold.Goldscore.Internal.Vdw>
-0.3764

> <Gold.Goldscore.Internal.Torsion>
-0.5205

> <Gold.Goldscore.External.Vdw>
22.1871

> <Gold.Goldscore.Internal.HBond>
0.0000

> <Gold.Goldscore.External.HBond>
1.0748

> <Gold.Goldscore.Internal.Correction>
-0.7850

> <Gold.Goldscore.Hbonds>
donor molecule, donor type, donor heavy atom, donor atom, acceptor molecule, acceptor atom, score
      P1  H  8001  8055       L1    17  0.07
      P1  H  8084  8135       L1     9  0.47

> <Gold.Goldscore.Internal.Vdw.Weighted>
-0.3764

> <Gold.Goldscore.Internal.Torsion.Weighted>
-0.5205

> <Gold.Goldscore.External.Vdw.Weighted>
30.5073

> <Gold.Goldscore.Internal.HBond.Weighted>
0.0000

> <Gold.Goldscore.External.HBond.Weighted>
1.0748

> <Gold.Goldscore.Internal.Correction.Weighted>
-0.7850

> <Gold.Rescore>
     Score     S(PLP)   S(hbond)     S(cho)   S(metal)  DE(clash)   DE(tors)     intcor
     32.40     -29.41       1.45       0.00       0.00       0.00       0.67       ----

> <Gold.PLP.Fitness>
32.4040

> <Gold.PLP.PLP>
-29.4136

> <Gold.PLP.part.hbond>
-2.9404

> <Gold.PLP.part.metal>
0.0000

> <Gold.PLP.part.buried>
-0.4840

> <Gold.PLP.part.nonpolar>
-26.9855

> <Gold.PLP.part.repulsive>
0.5364

> <Gold.PLP.ligand.clash>
0.0000

> <Gold.PLP.ligand.torsion>
0.6740

> <Gold.PLP.Chemscore.Hbond>
1.4462

> <Gold.PLP.Chemscore.CHOScore>
0.0000

> <Gold.PLP.Chemscore.Metal>
0.0000

> <Gold.Chemscore.Hbonds>
donor molecule, donor type, donor heavy atom, donor atom, acceptor molecule, acceptor atom, score
      P1  H  8001  8055       L1    17  0.29
      P1  H  8084  8135       L1     9  1.00

> <Gold.PLP.Chemscore.Internal.Correction>
   9.000000E+99

