#       Name:                CT1002167954
#       Creating user name   hitesit
#       Creation time:       Sun Apr 16 20:20:13 2023


#       File generated by GOLD software.
#

@<TRIPOS>MOLECULE
CT1002167954|ligand_prepared|mol2|1|dock7
    29    30     1
SMALL
NO_CHARGES


@<TRIPOS>ATOM
      1 C1         208.7774  54.2959  67.9534 C.3            1 RES1               0.0000
      2 C2         208.4428  55.5848  67.1753 C.ar           1 RES1               0.0000
      3 C3         208.8921  53.1851  66.9136 C.2            1 RES1               0.0000
      4 C4         210.0718  54.5772  68.7085 C.2            1 RES1               0.0000
      5 C5         207.6998  53.8922  68.9865 C.3            1 RES1               0.0000
      6 C6         207.9682  56.7112  67.8406 C.ar           1 RES1               0.0000
      7 C7         208.6058  55.6633  65.7947 C.ar           1 RES1               0.0000
      8 N8         210.1411  52.7275  66.6129 N.am           1 RES1               0.0000
      9 O9         207.9049  52.7449  66.3373 O.2            1 RES1               0.0000
     10 N10        211.1888  53.8665  68.3551 N.am           1 RES1               0.0000
     11 O11        210.1385  55.4198  69.5950 O.2            1 RES1               0.0000
     12 C12        207.8783  52.4880  69.5419 C.3            1 RES1               0.0000
     13 C13        207.6702  57.8750  67.1513 C.ar           1 RES1               0.0000
     14 C14        208.3069  56.8280  65.1073 C.ar           1 RES1               0.0000
     15 C15        211.2895  52.9763  67.3208 C.2            1 RES1               0.0000
     16 C16        207.8397  57.9343  65.7844 C.ar           1 RES1               0.0000
     17 O17        212.3430  52.4171  67.0303 O.2            1 RES1               0.0000
     18 H18        207.7232  54.6066  69.8187 H              1 RES1               0.0000
     19 H19        206.7128  53.9616  68.5127 H              1 RES1               0.0000
     20 H20        207.8261  56.6825  68.9158 H              1 RES1               0.0000
     21 H21        208.9710  54.8049  65.2411 H              1 RES1               0.0000
     22 H22        210.2295  52.1467  65.7852 H              1 RES1               0.0000
     23 H23        212.0224  54.0146  68.9149 H              1 RES1               0.0000
     24 H24        207.0963  52.2556  70.2617 H              1 RES1               0.0000
     25 H25        207.8351  51.7493  68.7442 H              1 RES1               0.0000
     26 H26        208.8395  52.3905  70.0424 H              1 RES1               0.0000
     27 H27        207.3015  58.7424  67.6886 H              1 RES1               0.0000
     28 H28        208.4413  56.8700  64.0314 H              1 RES1               0.0000
     29 H29        207.6065  58.8462  65.2447 H              1 RES1               0.0000
@<TRIPOS>BOND
    1    1    2 1     
    2    1    3 1     
    3    1    4 1     
    4    1    5 1     
    5    2    6 ar    
    6    2    7 ar    
    7    3    8 1     
    8    3    9 2     
    9    4   10 1     
   10    4   11 2     
   11    5   12 1     
   12    5   18 1     
   13    5   19 1     
   14    6   13 ar    
   15    6   20 1     
   16    7   14 ar    
   17    7   21 1     
   18    8   15 1     
   19    8   22 1     
   20   10   15 1     
   21   10   23 1     
   22   12   24 1     
   23   12   25 1     
   24   12   26 1     
   25   13   16 ar    
   26   13   27 1     
   27   14   16 ar    
   28   14   28 1     
   29   15   17 2     
   30   16   29 1     
@<TRIPOS>SUBSTRUCTURE
      1 RES1           1
@<TRIPOS>SET
DONOR_HYDROGENS      STATIC     ATOMS    <user>   **** ""
2 22 23
ATOM$RED        STATIC     ATOMS    COLORGROUP SYSTEM
2 22 23
@<TRIPOS>COMMENT
> <Gold.Version>
2022.3.0

> <Gold.Id.Protein>
unknown|4d1n_clean|pdb

> <Gold.Protein.RotatedTorsions>
[ 9562 9508 9507 9505 ] final   34.19 input   60.00 | X-H torsion
[ 7906 7874 7873 7870 ] final   42.76 input   60.00 | X-H torsion

> <Gold.Protein.ActiveResidues>
 ASP403  THR404  ILE407  TYR408  ALA410  LYS411  TRP414  GLN425  TRP426  SER427 
 LYS428  LEU429  GLN430  VAL431  PHE432  ASP433  TYR453  SER462  ALA463  ILE464 

> <Gold.Protein.RotatedAtoms>
  204.9468   51.0844   61.9735 H   0  0  0  0  0  0  0  0  0  0  0  0  # atno 7906 bound_to 7874
  208.8649   52.6762   73.2638 H   0  0  0  0  0  0  0  0  0  0  0  0  # atno 9562 bound_to 9508
  207.5534   51.8030   73.6705 LP  0  0  0  0  0  0  0  0  0  0  0  0  # atno 27207 bound_to 9508
  208.6214   51.2189   72.5819 LP  0  0  0  0  0  0  0  0  0  0  0  0  # atno 27208 bound_to 9508
  204.5815   50.1883   60.6655 LP  0  0  0  0  0  0  0  0  0  0  0  0  # atno 27219 bound_to 7874
  204.9714   51.7649   60.4958 LP  0  0  0  0  0  0  0  0  0  0  0  0  # atno 27220 bound_to 7874

> <Gold.Score>
     Fitness  S(hb_ext) S(vdw_ext)  S(hb_int)    S(int)      intcor
     15.23       0.02      12.06       0.00      -1.37      -0.76

> <Gold.Goldscore.Fitness>
15.2302

> <Gold.Goldscore.Internal.Vdw>
-1.5253

> <Gold.Goldscore.Internal.Torsion>
-0.6007

> <Gold.Goldscore.External.Vdw>
12.0565

> <Gold.Goldscore.Internal.HBond>
0.0000

> <Gold.Goldscore.External.HBond>
0.0200

> <Gold.Goldscore.Internal.Correction>
-0.7585

> <Gold.Goldscore.Hbonds>
donor molecule, donor type, donor heavy atom, donor atom, acceptor molecule, acceptor atom, score
      P1  H  8084  8134       L1    11  0.01

> <Gold.Goldscore.Internal.Vdw.Weighted>
-1.5253

> <Gold.Goldscore.Internal.Torsion.Weighted>
-0.6007

> <Gold.Goldscore.External.Vdw.Weighted>
16.5777

> <Gold.Goldscore.Internal.HBond.Weighted>
0.0000

> <Gold.Goldscore.External.HBond.Weighted>
0.0200

> <Gold.Goldscore.Internal.Correction.Weighted>
-0.7585

> <Gold.Rescore>
     Score     S(PLP)   S(hbond)     S(cho)   S(metal)  DE(clash)   DE(tors)     intcor
     16.33     -11.55       2.12       0.00       0.00       1.22       0.18       ----

> <Gold.PLP.Fitness>
16.3324

> <Gold.PLP.PLP>
-11.5539

> <Gold.PLP.part.hbond>
-2.8052

> <Gold.PLP.part.metal>
0.0000

> <Gold.PLP.part.buried>
-2.4797

> <Gold.PLP.part.nonpolar>
-9.2539

> <Gold.PLP.part.repulsive>
3.5607

> <Gold.PLP.ligand.clash>
1.2170

> <Gold.PLP.ligand.torsion>
0.1822

> <Gold.PLP.Chemscore.Hbond>
2.1200

> <Gold.PLP.Chemscore.CHOScore>
0.0000

> <Gold.PLP.Chemscore.Metal>
0.0000

> <Gold.Chemscore.Hbonds>
donor molecule, donor type, donor heavy atom, donor atom, acceptor molecule, acceptor atom, score
      P1  H  8001  8055       L1     9  0.12
      P1  H  8084  8134       L1    11  0.58

> <Gold.PLP.Chemscore.Internal.Correction>
   9.000000E+99

