#       Name:                CT1002167954
#       Creating user name   hitesit
#       Creation time:       Sun Apr 16 20:20:11 2023


#       File generated by GOLD software.
#

@<TRIPOS>MOLECULE
CT1002167954|ligand_prepared|mol2|1|dock3
    29    30     1
SMALL
NO_CHARGES


@<TRIPOS>ATOM
      1 C1         209.4317  54.2043  67.9451 C.3            1 RES1               0.0000
      2 C2         208.5219  53.5077  68.9774 C.ar           1 RES1               0.0000
      3 C3         210.6498  54.7044  68.7160 C.2            1 RES1               0.0000
      4 C4         209.7535  53.1570  66.8847 C.2            1 RES1               0.0000
      5 C5         208.7677  55.4098  67.2399 C.3            1 RES1               0.0000
      6 C6         208.5998  52.1326  69.1769 C.ar           1 RES1               0.0000
      7 C7         207.6033  54.2259  69.7383 C.ar           1 RES1               0.0000
      8 N8         211.8241  54.0317  68.5475 N.am           1 RES1               0.0000
      9 O9         210.5719  55.6503  69.4903 O.2            1 RES1               0.0000
     10 N10        211.0538  52.7410  66.7670 N.am           1 RES1               0.0000
     11 O11        208.8899  52.6762  66.1613 O.2            1 RES1               0.0000
     12 C12        209.5230  55.8942  66.0122 C.3            1 RES1               0.0000
     13 C13        207.7908  51.4988  70.1055 C.ar           1 RES1               0.0000
     14 C14        206.7951  53.5901  70.6662 C.ar           1 RES1               0.0000
     15 C15        212.0983  53.1082  67.5709 C.2            1 RES1               0.0000
     16 C16        206.8883  52.2271  70.8510 C.ar           1 RES1               0.0000
     17 O17        213.2289  52.6490  67.4368 O.2            1 RES1               0.0000
     18 H18        207.7509  55.1275  66.9404 H              1 RES1               0.0000
     19 H19        208.6889  56.2378  67.9553 H              1 RES1               0.0000
     20 H20        209.3023  51.5427  68.5977 H              1 RES1               0.0000
     21 H21        207.5118  55.2990  69.6091 H              1 RES1               0.0000
     22 H22        212.5671  54.2338  69.2089 H              1 RES1               0.0000
     23 H23        211.2624  52.0980  66.0097 H              1 RES1               0.0000
     24 H24        209.0146  56.7409  65.5558 H              1 RES1               0.0000
     25 H25        210.5307  56.2069  66.2778 H              1 RES1               0.0000
     26 H26        209.5983  55.1033  65.2689 H              1 RES1               0.0000
     27 H27        207.8671  50.4257  70.2461 H              1 RES1               0.0000
     28 H28        206.0858  54.1672  71.2503 H              1 RES1               0.0000
     29 H29        206.2550  51.7304  71.5786 H              1 RES1               0.0000
@<TRIPOS>BOND
    1    1    2 1     
    2    1    3 1     
    3    1    4 1     
    4    1    5 1     
    5    2    6 ar    
    6    2    7 ar    
    7    3    8 1     
    8    3    9 2     
    9    4   10 1     
   10    4   11 2     
   11    5   12 1     
   12    5   18 1     
   13    5   19 1     
   14    6   13 ar    
   15    6   20 1     
   16    7   14 ar    
   17    7   21 1     
   18    8   15 1     
   19    8   22 1     
   20   10   15 1     
   21   10   23 1     
   22   12   24 1     
   23   12   25 1     
   24   12   26 1     
   25   13   16 ar    
   26   13   27 1     
   27   14   16 ar    
   28   14   28 1     
   29   15   17 2     
   30   16   29 1     
@<TRIPOS>SUBSTRUCTURE
      1 RES1           1
@<TRIPOS>SET
DONOR_HYDROGENS      STATIC     ATOMS    <user>   **** ""
2 22 23
ATOM$RED        STATIC     ATOMS    COLORGROUP SYSTEM
2 22 23
@<TRIPOS>COMMENT
> <Gold.Version>
2022.3.0

> <Gold.Id.Protein>
unknown|4d1n_clean|pdb

> <Gold.Protein.RotatedTorsions>
[ 9562 9508 9507 9505 ] final   78.93 input   60.00 | X-H torsion
[ 7906 7874 7873 7870 ] final  107.40 input   60.00 | X-H torsion

> <Gold.Protein.ActiveResidues>
 ASP403  THR404  ILE407  TYR408  ALA410  LYS411  TRP414  GLN425  TRP426  SER427 
 LYS428  LEU429  GLN430  VAL431  PHE432  ASP433  TYR453  SER462  ALA463  ILE464 

> <Gold.Protein.RotatedAtoms>
  205.0848   51.8598   61.3558 H   0  0  0  0  0  0  0  0  0  0  0  0  # atno 7906 bound_to 7874
  209.1463   52.2157   72.7983 H   0  0  0  0  0  0  0  0  0  0  0  0  # atno 9562 bound_to 9508
  207.8834   52.4265   73.8025 LP  0  0  0  0  0  0  0  0  0  0  0  0  # atno 27207 bound_to 9508
  208.0080   51.0591   72.9186 LP  0  0  0  0  0  0  0  0  0  0  0  0  # atno 27208 bound_to 9508
  204.7116   50.3053   61.6585 LP  0  0  0  0  0  0  0  0  0  0  0  0  # atno 27219 bound_to 7874
  204.7023   50.8667   60.1251 LP  0  0  0  0  0  0  0  0  0  0  0  0  # atno 27220 bound_to 7874

> <Gold.Score>
     Fitness  S(hb_ext) S(vdw_ext)  S(hb_int)    S(int)      intcor
     25.29       0.30      18.72       0.00      -0.74      -0.79

> <Gold.Goldscore.Fitness>
25.2901

> <Gold.Goldscore.Internal.Vdw>
-0.8868

> <Gold.Goldscore.Internal.Torsion>
-0.6408

> <Gold.Goldscore.External.Vdw>
18.7154

> <Gold.Goldscore.Internal.HBond>
0.0000

> <Gold.Goldscore.External.HBond>
0.2990

> <Gold.Goldscore.Internal.Correction>
-0.7850

> <Gold.Goldscore.Hbonds>
donor molecule, donor type, donor heavy atom, donor atom, acceptor molecule, acceptor atom, score
      P1  H  8001  8055       L1    11  0.02
      P1  H  8084  8134       L1     9  0.05
      P1  H  8145  8191       L1    17  0.08

> <Gold.Goldscore.Internal.Vdw.Weighted>
-0.8868

> <Gold.Goldscore.Internal.Torsion.Weighted>
-0.6408

> <Gold.Goldscore.External.Vdw.Weighted>
25.7337

> <Gold.Goldscore.Internal.HBond.Weighted>
0.0000

> <Gold.Goldscore.External.HBond.Weighted>
0.2990

> <Gold.Goldscore.Internal.Correction.Weighted>
-0.7850

> <Gold.Rescore>
     Score     S(PLP)   S(hbond)     S(cho)   S(metal)  DE(clash)   DE(tors)     intcor
     25.62     -21.10       1.63       0.00       0.00       0.00       0.18       ----

> <Gold.PLP.Fitness>
25.6177

> <Gold.PLP.PLP>
-21.0981

> <Gold.PLP.part.hbond>
-4.0000

> <Gold.PLP.part.metal>
0.0000

> <Gold.PLP.part.buried>
-1.1783

> <Gold.PLP.part.nonpolar>
-18.9501

> <Gold.PLP.part.repulsive>
3.0703

> <Gold.PLP.ligand.clash>
0.0000

> <Gold.PLP.ligand.torsion>
0.1822

> <Gold.PLP.Chemscore.Hbond>
1.6280

> <Gold.PLP.Chemscore.CHOScore>
0.0000

> <Gold.PLP.Chemscore.Metal>
0.0000

> <Gold.Chemscore.Hbonds>
donor molecule, donor type, donor heavy atom, donor atom, acceptor molecule, acceptor atom, score
      P1  H  8001  8055       L1    11  0.42
      P1  H  8084  8134       L1     9  0.24
      P1  H  8145  8191       L1    17  0.88

> <Gold.PLP.Chemscore.Internal.Correction>
   9.000000E+99

