#       Name:                CT1002167954
#       Creating user name   hitesit
#       Creation time:       Sun Apr 16 02:30:52 2023


#       File generated by GOLD software.
#

@<TRIPOS>MOLECULE
CT1002167954|ligand_prepared|mol2|1|dock2
    29    30     1
SMALL
NO_CHARGES


@<TRIPOS>ATOM
      1 C1         234.2628 354.7659 -115.9112 C.3            1 RES1               0.0000
      2 C2         235.4475 355.4045 -115.1580 C.ar           1 RES1               0.0000
      3 C3         234.6108 353.2904 -116.0849 C.2            1 RES1               0.0000
      4 C4         233.0271 355.0169 -115.0540 C.2            1 RES1               0.0000
      5 C5         234.0075 355.3781 -117.3082 C.3            1 RES1               0.0000
      6 C6         236.5510 355.8893 -115.8537 C.ar           1 RES1               0.0000
      7 C7         235.4503 355.5180 -113.7703 C.ar           1 RES1               0.0000
      8 N8         233.9480 352.3889 -115.3052 N.am           1 RES1               0.0000
      9 O9         235.4816 352.9269 -116.8658 O.2            1 RES1               0.0000
     10 N10        232.4009 353.9327 -114.4971 N.am           1 RES1               0.0000
     11 O11        232.5999 356.1451 -114.8422 O.2            1 RES1               0.0000
     12 C12        232.5863 355.1833 -117.8126 C.3            1 RES1               0.0000
     13 C13        237.6173 356.4694 -115.1867 C.ar           1 RES1               0.0000
     14 C14        236.5177 356.0982 -113.1052 C.ar           1 RES1               0.0000
     15 C15        232.8233 352.6327 -114.5587 C.2            1 RES1               0.0000
     16 C16        237.6012 356.5746 -113.8122 C.ar           1 RES1               0.0000
     17 O17        232.2364 351.7192 -113.9858 O.2            1 RES1               0.0000
     18 H18        234.2236 356.4528 -117.2676 H              1 RES1               0.0000
     19 H19        234.7021 354.9233 -118.0253 H              1 RES1               0.0000
     20 H20        236.5825 355.8130 -116.9355 H              1 RES1               0.0000
     21 H21        234.6090 355.1492 -113.1934 H              1 RES1               0.0000
     22 H22        234.3233 351.4463 -115.2744 H              1 RES1               0.0000
     23 H23        231.5401 354.1113 -113.9897 H              1 RES1               0.0000
     24 H24        232.4613 355.6314 -118.7961 H              1 RES1               0.0000
     25 H25        232.3459 354.1250 -117.8894 H              1 RES1               0.0000
     26 H26        231.8703 355.6454 -117.1361 H              1 RES1               0.0000
     27 H27        238.4682 356.8415 -115.7476 H              1 RES1               0.0000
     28 H28        236.5011 356.1784 -112.0233 H              1 RES1               0.0000
     29 H29        238.4364 357.0294 -113.2899 H              1 RES1               0.0000
@<TRIPOS>BOND
    1    1    2 1     
    2    1    3 1     
    3    1    4 1     
    4    1    5 1     
    5    2    6 ar    
    6    2    7 ar    
    7    3    8 1     
    8    3    9 2     
    9    4   10 1     
   10    4   11 2     
   11    5   12 1     
   12    5   18 1     
   13    5   19 1     
   14    6   13 ar    
   15    6   20 1     
   16    7   14 ar    
   17    7   21 1     
   18    8   15 1     
   19    8   22 1     
   20   10   15 1     
   21   10   23 1     
   22   12   24 1     
   23   12   25 1     
   24   12   26 1     
   25   13   16 ar    
   26   13   27 1     
   27   14   16 ar    
   28   14   28 1     
   29   15   17 2     
   30   16   29 1     
@<TRIPOS>SUBSTRUCTURE
      1 RES1           1
@<TRIPOS>SET
DONOR_HYDROGENS      STATIC     ATOMS    <user>   **** ""
2 22 23
ATOM$RED        STATIC     ATOMS    COLORGROUP SYSTEM
2 22 23
@<TRIPOS>COMMENT
> <Gold.Version>
2022.3.0

> <Gold.Id.Protein>
unknown|7ts3_clean|pdb

> <Gold.Protein.RotatedTorsions>
[ 17121 17111 17112 17113 ] final   -3.60 input   42.04 | X-H torsion
[ 17169 17155 17156 17157 ] final -122.22 input  103.88 | X-H torsion
[ 18263 18249 18250 18251 ] final  126.61 input   32.50 | X-H torsion
[ 18345 18297 18298 18299 ] final   36.58 input   28.05 | X-H torsion
[ 18431 18389 18390 18391 ] final -177.06 input   99.92 | X-H torsion
[ 18439 18400 18399 18397 ] final   11.72 input   59.97 | X-H torsion
[ 18499 18465 18466 18467 ] final   60.21 input   91.01 | X-H torsion
[ 18649 18619 18620 18621 ] final -106.51 input  125.07 | X-H torsion
[ 7445 7437 7438 7439 ] final  151.63 input   89.33 | X-H torsion
[ 18231 18209 18210 18211 ] final  135.77 input   30.89 | X-H torsion
[ 7393 7379 7380 7381 ] final  -48.99 input   98.82 | X-H torsion
[ 18539 18525 18526 18527 ] final -158.45 input  129.79 | X-H torsion
[ 18235 18214 18213 18210 ] final  -39.97 input   60.00 | X-H torsion
[ 18179 18139 18140 18141 ] final  149.69 input   56.47 | X-H torsion
[ 17229 17217 17218 17219 ] final  -65.73 input   53.60 | X-H torsion
[ 10082 10067 10068 10069 ] final   -1.24 input   26.25 | X-H torsion
[ 16913 16892 16891 16889 ] final  -72.30 input   59.99 | X-H torsion
[ 11371 11350 11349 11346 ] final  123.06 input   59.99 | X-H torsion
[ 11429 11395 11396 11397 ] final   58.68 input   50.42 | X-H torsion
[ 26033 25995 25994 25992 ] final  178.22 input   60.01 | X-H torsion
[ 17337 17321 17322 17323 ] final   14.08 input   80.81 | X-H torsion
[ 17281 17265 17266 17267 ] final   24.82 input   66.93 | X-H torsion
[ 22383 22351 22352 22353 ] final  149.80 input   47.53 | X-H torsion
[ 27271 16988 16987 16986 ] final   85.04 input   -0.00 | X-H torsion
[ 27274 17062 17061 17060 ] final   38.02 input   -0.00 | X-H torsion
[ 27278 18142 18141 18140 ] final  -98.22 input    0.00 | X-H torsion
[ 27281 18252 18251 18250 ] final  -86.58 input    0.00 | X-H torsion
[ 27284 18300 18299 18298 ] final   25.43 input   -0.00 | X-H torsion
[ 27287 18392 18391 18390 ] final  -57.90 input   -0.00 | X-H torsion
[ 27292 18468 18467 18466 ] final   28.03 input   -0.00 | X-H torsion
[ 27305 18212 18211 18210 ] final  -58.53 input   -0.00 | X-H torsion
[ 27308 16952 16951 16950 ] final   34.57 input   -0.00 | X-H torsion
[ 27313 17114 17113 17112 ] final    0.62 input   -0.00 | X-H torsion
[ 27315 17158 17157 17156 ] final   57.37 input   -0.00 | X-H torsion
[ 27320 10070 10069 10068 ] final    2.77 input   -0.00 | X-H torsion
[ 27326 11348 11347 11346 ] final  -70.70 input   -0.00 | X-H torsion
[ 27341 7254 7253 7252 ] final   58.75 input    0.00 | X-H torsion
[ 27344 17268 17267 17266 ] final   52.21 input   -0.00 | X-H torsion
[ 27346 25921 25920 25919 ] final  -22.89 input    0.00 | X-H torsion

> <Gold.Protein.ActiveResidues>
 MET341  HIS342  TRP414  ARG419  CYS420  VAL421  GLY422  LEU429  LEU460  SER462 
 ALA463  ILE464  SER482  GLN483  ARG486  TYR567  GLY568  LEU569  PRO570  ALA571 
 VAL572  SER573  ASN574  MET575  PRO588  PHE589  SER590  GLY591  TRP592  TYR593 
 MET594  GLY595  GLU597  ILE598  ARG601  ASP602  ARG608  ILE653  VAL654  TRP683 
 PHE709  GLU710  TYR711  HEM801  H4B802 

> <Gold.Protein.RotatedAtoms>
  229.3976  359.8581 -111.6853 H   0  0  0  0  0  0  0  0  0  0  0  0  # atno 7393 bound_to 7379
  228.2034  358.8918 -113.7046 H   0  0  0  0  0  0  0  0  0  0  0  0  # atno 7445 bound_to 7437
  229.5196  346.7465 -113.4370 H   0  0  0  0  0  0  0  0  0  0  0  0  # atno 10082 bound_to 10067
  244.2945  352.8374 -118.1050 H   0  0  0  0  0  0  0  0  0  0  0  0  # atno 11371 bound_to 11350
  243.2937  350.0406 -118.1148 H   0  0  0  0  0  0  0  0  0  0  0  0  # atno 11429 bound_to 11395
  238.7693  353.3184 -122.8611 H   0  0  0  0  0  0  0  0  0  0  0  0  # atno 16913 bound_to 16892
  236.6635  350.4935 -118.3494 H   0  0  0  0  0  0  0  0  0  0  0  0  # atno 17121 bound_to 17111
  237.2474  349.9543 -116.3244 H   0  0  0  0  0  0  0  0  0  0  0  0  # atno 17169 bound_to 17155
  239.7745  349.7830 -113.2237 H   0  0  0  0  0  0  0  0  0  0  0  0  # atno 17229 bound_to 17217
  241.4941  350.0699 -111.9325 H   0  0  0  0  0  0  0  0  0  0  0  0  # atno 17281 bound_to 17265
  241.9122  349.5699 -109.6334 H   0  0  0  0  0  0  0  0  0  0  0  0  # atno 17337 bound_to 17321
  236.2615  347.1475 -111.2100 H   0  0  0  0  0  0  0  0  0  0  0  0  # atno 18179 bound_to 18139
  233.4628  347.1859 -113.9913 H   0  0  0  0  0  0  0  0  0  0  0  0  # atno 18231 bound_to 18209
  232.0317  346.0743 -115.2215 H   0  0  0  0  0  0  0  0  0  0  0  0  # atno 18235 bound_to 18214
  231.3296  350.3236 -115.7200 H   0  0  0  0  0  0  0  0  0  0  0  0  # atno 18263 bound_to 18249
  228.7953  352.3522 -117.9040 H   0  0  0  0  0  0  0  0  0  0  0  0  # atno 18345 bound_to 18297
  230.2053  353.0586 -121.3192 H   0  0  0  0  0  0  0  0  0  0  0  0  # atno 18431 bound_to 18389
  236.6109  353.0931 -123.2526 H   0  0  0  0  0  0  0  0  0  0  0  0  # atno 18439 bound_to 18400
  230.7066  357.4029 -120.8806 H   0  0  0  0  0  0  0  0  0  0  0  0  # atno 18499 bound_to 18465
  228.6838  358.6916 -123.7607 H   0  0  0  0  0  0  0  0  0  0  0  0  # atno 18539 bound_to 18525
  233.3608  361.8867 -122.7419 H   0  0  0  0  0  0  0  0  0  0  0  0  # atno 18649 bound_to 18619
  225.3807  355.9226 -122.8015 H   0  0  0  0  0  0  0  0  0  0  0  0  # atno 22383 bound_to 22351
  240.6124  359.3170 -110.7300 H   0  0  0  0  0  0  0  0  0  0  0  0  # atno 26033 bound_to 25995
  235.8787  349.2101 -122.2651 LP  0  0  0  0  0  0  0  0  0  0  0  0  # atno 27271 bound_to 16988
  235.6932  348.3094 -120.7973 LP  0  0  0  0  0  0  0  0  0  0  0  0  # atno 27272 bound_to 16988
  232.9485  349.8532 -118.2292 LP  0  0  0  0  0  0  0  0  0  0  0  0  # atno 27274 bound_to 17062
  233.9535  350.0385 -116.8308 LP  0  0  0  0  0  0  0  0  0  0  0  0  # atno 27275 bound_to 17062
  235.2784  349.6031 -118.9235 LP  0  0  0  0  0  0  0  0  0  0  0  0  # atno 27276 bound_to 17111
  236.4448  349.5218 -114.8342 LP  0  0  0  0  0  0  0  0  0  0  0  0  # atno 27277 bound_to 17155
  235.1550  349.7420 -114.1724 LP  0  0  0  0  0  0  0  0  0  0  0  0  # atno 27278 bound_to 18142
  235.7281  348.2277 -114.7876 LP  0  0  0  0  0  0  0  0  0  0  0  0  # atno 27279 bound_to 18142
  231.2624  349.0378 -116.9075 LP  0  0  0  0  0  0  0  0  0  0  0  0  # atno 27280 bound_to 18249
  230.3687  349.2671 -119.3781 LP  0  0  0  0  0  0  0  0  0  0  0  0  # atno 27281 bound_to 18252
  228.6612  348.9787 -119.3455 LP  0  0  0  0  0  0  0  0  0  0  0  0  # atno 27282 bound_to 18252
  229.3731  350.7617 -118.3425 LP  0  0  0  0  0  0  0  0  0  0  0  0  # atno 27283 bound_to 18297
  229.5325  353.8467 -118.2628 LP  0  0  0  0  0  0  0  0  0  0  0  0  # atno 27284 bound_to 18300
  229.2478  355.2185 -119.2812 LP  0  0  0  0  0  0  0  0  0  0  0  0  # atno 27285 bound_to 18300
  228.6354  353.8230 -121.2708 LP  0  0  0  0  0  0  0  0  0  0  0  0  # atno 27286 bound_to 18389
  227.8687  355.8403 -122.8587 LP  0  0  0  0  0  0  0  0  0  0  0  0  # atno 27287 bound_to 18392
  227.3159  356.3606 -121.3019 LP  0  0  0  0  0  0  0  0  0  0  0  0  # atno 27288 bound_to 18392
  236.5874  353.4093 -121.6569 LP  0  0  0  0  0  0  0  0  0  0  0  0  # atno 27289 bound_to 18400
  236.9659  354.5890 -122.7207 LP  0  0  0  0  0  0  0  0  0  0  0  0  # atno 27290 bound_to 18400
  229.1320  356.6640 -121.0715 LP  0  0  0  0  0  0  0  0  0  0  0  0  # atno 27291 bound_to 18465
  231.6517  358.2911 -122.2512 LP  0  0  0  0  0  0  0  0  0  0  0  0  # atno 27292 bound_to 18468
  231.7729  359.5734 -123.4093 LP  0  0  0  0  0  0  0  0  0  0  0  0  # atno 27293 bound_to 18468
  232.6590  360.3761 -123.2686 LP  0  0  0  0  0  0  0  0  0  0  0  0  # atno 27294 bound_to 18619
  227.2926  359.2813 -112.2643 LP  0  0  0  0  0  0  0  0  0  0  0  0  # atno 27303 bound_to 7437
  232.6676  348.5788 -113.2961 LP  0  0  0  0  0  0  0  0  0  0  0  0  # atno 27304 bound_to 18209
  230.1612  347.6373 -114.4280 LP  0  0  0  0  0  0  0  0  0  0  0  0  # atno 27305 bound_to 18212
  229.8805  349.2940 -114.0077 LP  0  0  0  0  0  0  0  0  0  0  0  0  # atno 27306 bound_to 18212
  230.1701  360.8259 -112.9166 LP  0  0  0  0  0  0  0  0  0  0  0  0  # atno 27307 bound_to 7379
  230.3918  350.1139 -124.0710 LP  0  0  0  0  0  0  0  0  0  0  0  0  # atno 27308 bound_to 16952
  231.5470  350.5422 -122.8535 LP  0  0  0  0  0  0  0  0  0  0  0  0  # atno 27309 bound_to 16952
  229.4109  360.1419 -123.1162 LP  0  0  0  0  0  0  0  0  0  0  0  0  # atno 27310 bound_to 18525
  232.4046  345.4576 -116.6810 LP  0  0  0  0  0  0  0  0  0  0  0  0  # atno 27311 bound_to 18214
  231.0794  346.3950 -116.5021 LP  0  0  0  0  0  0  0  0  0  0  0  0  # atno 27312 bound_to 18214
  238.6029  348.1378 -117.5246 LP  0  0  0  0  0  0  0  0  0  0  0  0  # atno 27313 bound_to 17114
  239.3292  348.9441 -116.1746 LP  0  0  0  0  0  0  0  0  0  0  0  0  # atno 27314 bound_to 17114
  237.3696  348.2696 -113.2011 LP  0  0  0  0  0  0  0  0  0  0  0  0  # atno 27315 bound_to 17158
  238.4264  348.7224 -111.9057 LP  0  0  0  0  0  0  0  0  0  0  0  0  # atno 27316 bound_to 17158
  236.3994  346.9183 -112.9391 LP  0  0  0  0  0  0  0  0  0  0  0  0  # atno 27317 bound_to 18139
  240.2638  349.1818 -114.7906 LP  0  0  0  0  0  0  0  0  0  0  0  0  # atno 27318 bound_to 17217
  228.1446  345.7898 -113.9251 LP  0  0  0  0  0  0  0  0  0  0  0  0  # atno 27319 bound_to 10067
  231.2965  346.4825 -113.3341 LP  0  0  0  0  0  0  0  0  0  0  0  0  # atno 27320 bound_to 10070
  232.4765  346.1582 -112.1084 LP  0  0  0  0  0  0  0  0  0  0  0  0  # atno 27321 bound_to 10070
  240.2124  352.6680 -123.2382 LP  0  0  0  0  0  0  0  0  0  0  0  0  # atno 27322 bound_to 16892
  239.3153  352.0287 -122.0327 LP  0  0  0  0  0  0  0  0  0  0  0  0  # atno 27323 bound_to 16892
  242.0451  350.0246 -114.4891 LP  0  0  0  0  0  0  0  0  0  0  0  0  # atno 27326 bound_to 11348
  241.4743  351.3904 -115.3884 LP  0  0  0  0  0  0  0  0  0  0  0  0  # atno 27327 bound_to 11348
  244.5240  351.2288 -118.1877 LP  0  0  0  0  0  0  0  0  0  0  0  0  # atno 27333 bound_to 11350
  245.8067  352.2385 -118.1431 LP  0  0  0  0  0  0  0  0  0  0  0  0  # atno 27334 bound_to 11350
  242.8557  350.1544 -116.4209 LP  0  0  0  0  0  0  0  0  0  0  0  0  # atno 27335 bound_to 11395
  241.1215  360.6374 -109.9271 LP  0  0  0  0  0  0  0  0  0  0  0  0  # atno 27336 bound_to 25995
  239.8588  359.7702 -109.3611 LP  0  0  0  0  0  0  0  0  0  0  0  0  # atno 27337 bound_to 25995
  242.3079  351.1079 -110.3592 LP  0  0  0  0  0  0  0  0  0  0  0  0  # atno 27340 bound_to 17321
  233.6752  361.4062 -111.8436 LP  0  0  0  0  0  0  0  0  0  0  0  0  # atno 27341 bound_to 7254
  232.0271  361.9179 -111.9923 LP  0  0  0  0  0  0  0  0  0  0  0  0  # atno 27342 bound_to 7254
  242.3822  348.8095 -112.7482 LP  0  0  0  0  0  0  0  0  0  0  0  0  # atno 27343 bound_to 17265
  244.7724  351.7347 -109.7822 LP  0  0  0  0  0  0  0  0  0  0  0  0  # atno 27344 bound_to 17268
  244.2789  350.8410 -108.3829 LP  0  0  0  0  0  0  0  0  0  0  0  0  # atno 27345 bound_to 17268
  241.2686  352.8082 -105.3617 LP  0  0  0  0  0  0  0  0  0  0  0  0  # atno 27346 bound_to 25921
  242.0737  353.5997 -106.6752 LP  0  0  0  0  0  0  0  0  0  0  0  0  # atno 27347 bound_to 25921

> <Gold.Score>
     Fitness  S(hb_ext) S(vdw_ext)  S(hb_int)    S(int)      intcor
     50.06       0.23      37.55       0.00      -1.81      -0.77

> <Gold.Goldscore.Fitness>
50.0602

> <Gold.Goldscore.Internal.Vdw>
-1.4526

> <Gold.Goldscore.Internal.Torsion>
-1.1193

> <Gold.Goldscore.External.Vdw>
37.5532

> <Gold.Goldscore.Internal.HBond>
0.0000

> <Gold.Goldscore.External.HBond>
0.2310

> <Gold.Goldscore.Internal.Correction>
-0.7653

> <Gold.Goldscore.Hbonds>
donor molecule, donor type, donor heavy atom, donor atom, acceptor molecule, acceptor atom, score
      P1  H 18249 18263       L1    17  0.08
      L1  H     8    22       P1 17155  0.01

> <Gold.Goldscore.Internal.Vdw.Weighted>
-1.4526

> <Gold.Goldscore.Internal.Torsion.Weighted>
-1.1193

> <Gold.Goldscore.External.Vdw.Weighted>
51.6357

> <Gold.Goldscore.Internal.HBond.Weighted>
0.0000

> <Gold.Goldscore.External.HBond.Weighted>
0.2310

> <Gold.Goldscore.Internal.Correction.Weighted>
-0.7653

> <Gold.Rescore>
     Score     S(PLP)   S(hbond)     S(cho)   S(metal)  DE(clash)   DE(tors)     intcor
     44.99     -40.28       0.19       0.00       1.00       0.07       0.89       ----

> <Gold.PLP.Fitness>
44.9937

> <Gold.PLP.PLP>
-40.2797

> <Gold.PLP.part.hbond>
-2.9432

> <Gold.PLP.part.metal>
-1.0000

> <Gold.PLP.part.buried>
16.8551

> <Gold.PLP.part.nonpolar>
-58.4817

> <Gold.PLP.part.repulsive>
5.8832

> <Gold.PLP.ligand.clash>
0.0702

> <Gold.PLP.ligand.torsion>
0.8918

> <Gold.PLP.Chemscore.Hbond>
0.1893

> <Gold.PLP.Chemscore.CHOScore>
0.0000

> <Gold.PLP.Chemscore.Metal>
1.0000

> <Gold.Chemscore.Hbonds>
donor molecule, donor type, donor heavy atom, donor atom, acceptor molecule, acceptor atom, score
      P1  H 18249 18263       L1    17  0.24
      P1  M 26926 26926       L1    11  1.00

> <Gold.PLP.Chemscore.Internal.Correction>
   9.000000E+99

