#       Name:                CT1002167954
#       Creating user name   hitesit
#       Creation time:       Sun Apr 16 02:30:56 2023


#       File generated by GOLD software.
#

@<TRIPOS>MOLECULE
CT1002167954|ligand_prepared|mol2|1|dock8
    29    30     1
SMALL
NO_CHARGES


@<TRIPOS>ATOM
      1 C1         239.8551 356.0363 -115.2955 C.3            1 RES1               0.0000
      2 C2         238.4177 355.6223 -115.6714 C.ar           1 RES1               0.0000
      3 C3         239.7248 357.0900 -114.1996 C.2            1 RES1               0.0000
      4 C4         240.5639 354.7614 -114.8516 C.2            1 RES1               0.0000
      5 C5         240.6572 356.6449 -116.4692 C.3            1 RES1               0.0000
      6 C6         238.1691 354.9043 -116.8373 C.ar           1 RES1               0.0000
      7 C7         237.3324 355.9483 -114.8624 C.ar           1 RES1               0.0000
      8 N8         240.0368 356.7182 -112.9252 N.am           1 RES1               0.0000
      9 O9         239.3165 358.2187 -114.4438 O.2            1 RES1               0.0000
     10 N10        240.9545 354.6669 -113.5415 N.am           1 RES1               0.0000
     11 O11        240.7728 353.8311 -115.6205 O.2            1 RES1               0.0000
     12 C12        242.0629 357.0830 -116.0893 C.3            1 RES1               0.0000
     13 C13        236.8825 354.5233 -117.1806 C.ar           1 RES1               0.0000
     14 C14        236.0465 355.5666 -115.2077 C.ar           1 RES1               0.0000
     15 C15        240.6958 355.5747 -112.5510 C.2            1 RES1               0.0000
     16 C16        235.8205 354.8538 -116.3660 C.ar           1 RES1               0.0000
     17 O17        241.0321 355.3938 -111.3843 O.2            1 RES1               0.0000
     18 H18        240.7242 355.9022 -117.2738 H              1 RES1               0.0000
     19 H19        240.1102 357.5125 -116.8585 H              1 RES1               0.0000
     20 H20        238.9920 354.6374 -117.4920 H              1 RES1               0.0000
     21 H21        237.4863 356.5095 -113.9470 H              1 RES1               0.0000
     22 H22        239.7541 357.3485 -112.1815 H              1 RES1               0.0000
     23 H23        241.4877 353.8435 -113.2806 H              1 RES1               0.0000
     24 H24        242.5817 357.5025 -116.9487 H              1 RES1               0.0000
     25 H25        242.0332 357.8402 -115.3086 H              1 RES1               0.0000
     26 H26        242.6435 356.2395 -115.7215 H              1 RES1               0.0000
     27 H27        236.7098 353.9636 -118.0940 H              1 RES1               0.0000
     28 H28        235.2136 355.8293 -114.5639 H              1 RES1               0.0000
     29 H29        234.8128 354.5549 -116.6350 H              1 RES1               0.0000
@<TRIPOS>BOND
    1    1    2 1     
    2    1    3 1     
    3    1    4 1     
    4    1    5 1     
    5    2    6 ar    
    6    2    7 ar    
    7    3    8 1     
    8    3    9 2     
    9    4   10 1     
   10    4   11 2     
   11    5   12 1     
   12    5   18 1     
   13    5   19 1     
   14    6   13 ar    
   15    6   20 1     
   16    7   14 ar    
   17    7   21 1     
   18    8   15 1     
   19    8   22 1     
   20   10   15 1     
   21   10   23 1     
   22   12   24 1     
   23   12   25 1     
   24   12   26 1     
   25   13   16 ar    
   26   13   27 1     
   27   14   16 ar    
   28   14   28 1     
   29   15   17 2     
   30   16   29 1     
@<TRIPOS>SUBSTRUCTURE
      1 RES1           1
@<TRIPOS>SET
DONOR_HYDROGENS      STATIC     ATOMS    <user>   **** ""
2 22 23
ATOM$RED        STATIC     ATOMS    COLORGROUP SYSTEM
2 22 23
@<TRIPOS>COMMENT
> <Gold.Version>
2022.3.0

> <Gold.Id.Protein>
unknown|7ts3_clean|pdb

> <Gold.Protein.RotatedTorsions>
[ 17121 17111 17112 17113 ] final   17.56 input   42.04 | X-H torsion
[ 17169 17155 17156 17157 ] final  127.15 input  103.88 | X-H torsion
[ 18263 18249 18250 18251 ] final   28.88 input   32.50 | X-H torsion
[ 18345 18297 18298 18299 ] final  163.66 input   28.05 | X-H torsion
[ 18431 18389 18390 18391 ] final  121.69 input   99.92 | X-H torsion
[ 18439 18400 18399 18397 ] final  -58.61 input   59.97 | X-H torsion
[ 18499 18465 18466 18467 ] final  121.04 input   91.01 | X-H torsion
[ 18649 18619 18620 18621 ] final   15.35 input  125.07 | X-H torsion
[ 7445 7437 7438 7439 ] final   19.57 input   89.33 | X-H torsion
[ 18231 18209 18210 18211 ] final  170.54 input   30.89 | X-H torsion
[ 7393 7379 7380 7381 ] final  172.36 input   98.82 | X-H torsion
[ 18539 18525 18526 18527 ] final -118.83 input  129.79 | X-H torsion
[ 18235 18214 18213 18210 ] final  -24.13 input   60.00 | X-H torsion
[ 18179 18139 18140 18141 ] final  -99.44 input   56.47 | X-H torsion
[ 17229 17217 17218 17219 ] final -175.54 input   53.60 | X-H torsion
[ 10082 10067 10068 10069 ] final   -0.46 input   26.25 | X-H torsion
[ 16913 16892 16891 16889 ] final -163.68 input   59.99 | X-H torsion
[ 11371 11350 11349 11346 ] final  -21.67 input   59.99 | X-H torsion
[ 11429 11395 11396 11397 ] final  -74.97 input   50.42 | X-H torsion
[ 26033 25995 25994 25992 ] final -150.59 input   60.01 | X-H torsion
[ 17337 17321 17322 17323 ] final  163.95 input   80.81 | X-H torsion
[ 17281 17265 17266 17267 ] final   38.99 input   66.93 | X-H torsion
[ 22383 22351 22352 22353 ] final  -81.94 input   47.53 | X-H torsion
[ 27271 16988 16987 16986 ] final  175.61 input   -0.00 | X-H torsion
[ 27274 17062 17061 17060 ] final   88.22 input   -0.00 | X-H torsion
[ 27278 18142 18141 18140 ] final -139.66 input    0.00 | X-H torsion
[ 27281 18252 18251 18250 ] final -131.34 input    0.00 | X-H torsion
[ 27284 18300 18299 18298 ] final  135.87 input   -0.00 | X-H torsion
[ 27287 18392 18391 18390 ] final   75.70 input   -0.00 | X-H torsion
[ 27292 18468 18467 18466 ] final -121.19 input   -0.00 | X-H torsion
[ 27305 18212 18211 18210 ] final  144.37 input   -0.00 | X-H torsion
[ 27308 16952 16951 16950 ] final  -17.15 input   -0.00 | X-H torsion
[ 27313 17114 17113 17112 ] final -129.67 input   -0.00 | X-H torsion
[ 27315 17158 17157 17156 ] final  169.17 input   -0.00 | X-H torsion
[ 27320 10070 10069 10068 ] final   90.44 input   -0.00 | X-H torsion
[ 27326 11348 11347 11346 ] final  -61.45 input   -0.00 | X-H torsion
[ 27341 7254 7253 7252 ] final  -72.74 input    0.00 | X-H torsion
[ 27344 17268 17267 17266 ] final  160.49 input   -0.00 | X-H torsion
[ 27346 25921 25920 25919 ] final   59.18 input    0.00 | X-H torsion

> <Gold.Protein.ActiveResidues>
 MET341  HIS342  TRP414  ARG419  CYS420  VAL421  GLY422  LEU429  LEU460  SER462 
 ALA463  ILE464  SER482  GLN483  ARG486  TYR567  GLY568  LEU569  PRO570  ALA571 
 VAL572  SER573  ASN574  MET575  PRO588  PHE589  SER590  GLY591  TRP592  TYR593 
 MET594  GLY595  GLU597  ILE598  ARG601  ASP602  ARG608  ILE653  VAL654  TRP683 
 PHE709  GLU710  TYR711  HEM801  H4B802 

> <Gold.Protein.RotatedAtoms>
  230.1485  361.1454 -112.3894 H   0  0  0  0  0  0  0  0  0  0  0  0  # atno 7393 bound_to 7379
  227.8040  358.8040 -112.1395 H   0  0  0  0  0  0  0  0  0  0  0  0  # atno 7445 bound_to 7437
  229.5255  346.7428 -113.4467 H   0  0  0  0  0  0  0  0  0  0  0  0  # atno 10082 bound_to 10067
  244.9221  351.1700 -118.1902 H   0  0  0  0  0  0  0  0  0  0  0  0  # atno 11371 bound_to 11350
  243.0969  349.5221 -116.5645 H   0  0  0  0  0  0  0  0  0  0  0  0  # atno 11429 bound_to 11395
  239.9599  353.0229 -123.3996 H   0  0  0  0  0  0  0  0  0  0  0  0  # atno 16913 bound_to 16892
  236.8059  350.2849 -118.5491 H   0  0  0  0  0  0  0  0  0  0  0  0  # atno 17121 bound_to 17111
  236.3432  350.4045 -115.2802 H   0  0  0  0  0  0  0  0  0  0  0  0  # atno 17169 bound_to 17155
  239.3915  348.9525 -114.3469 H   0  0  0  0  0  0  0  0  0  0  0  0  # atno 17229 bound_to 17217
  241.5652  350.1901 -112.0980 H   0  0  0  0  0  0  0  0  0  0  0  0  # atno 17281 bound_to 17265
  241.8679  351.0569 -110.4596 H   0  0  0  0  0  0  0  0  0  0  0  0  # atno 17337 bound_to 17321
  236.1381  346.1934 -112.3128 H   0  0  0  0  0  0  0  0  0  0  0  0  # atno 18179 bound_to 18139
  233.8230  347.5717 -113.9548 H   0  0  0  0  0  0  0  0  0  0  0  0  # atno 18231 bound_to 18209
  231.8169  346.2174 -115.2281 H   0  0  0  0  0  0  0  0  0  0  0  0  # atno 18235 bound_to 18214
  231.5721  350.1415 -117.0291 H   0  0  0  0  0  0  0  0  0  0  0  0  # atno 18263 bound_to 18249
  228.5995  350.8223 -118.2711 H   0  0  0  0  0  0  0  0  0  0  0  0  # atno 18345 bound_to 18297
  229.7233  353.1628 -122.0708 H   0  0  0  0  0  0  0  0  0  0  0  0  # atno 18431 bound_to 18389
  236.4786  352.8565 -122.2095 H   0  0  0  0  0  0  0  0  0  0  0  0  # atno 18439 bound_to 18400
  230.1223  357.3933 -120.1971 H   0  0  0  0  0  0  0  0  0  0  0  0  # atno 18499 bound_to 18465
  229.2094  358.5605 -123.5110 H   0  0  0  0  0  0  0  0  0  0  0  0  # atno 18539 bound_to 18525
  233.1105  360.8234 -123.8314 H   0  0  0  0  0  0  0  0  0  0  0  0  # atno 18649 bound_to 18619
  225.3355  356.5299 -124.2843 H   0  0  0  0  0  0  0  0  0  0  0  0  # atno 22383 bound_to 22351
  240.2261  359.1447 -110.4575 H   0  0  0  0  0  0  0  0  0  0  0  0  # atno 26033 bound_to 25995
  236.0159  349.4533 -121.0664 LP  0  0  0  0  0  0  0  0  0  0  0  0  # atno 27271 bound_to 16988
  235.5559  348.0661 -121.9959 LP  0  0  0  0  0  0  0  0  0  0  0  0  # atno 27272 bound_to 16988
  233.2499  349.2322 -117.9775 LP  0  0  0  0  0  0  0  0  0  0  0  0  # atno 27274 bound_to 17062
  233.6521  350.6595 -117.0825 LP  0  0  0  0  0  0  0  0  0  0  0  0  # atno 27275 bound_to 17062
  235.1376  349.8092 -118.7261 LP  0  0  0  0  0  0  0  0  0  0  0  0  # atno 27276 bound_to 17111
  237.3287  349.0816 -115.8550 LP  0  0  0  0  0  0  0  0  0  0  0  0  # atno 27277 bound_to 17155
  234.8833  349.6076 -114.7050 LP  0  0  0  0  0  0  0  0  0  0  0  0  # atno 27278 bound_to 18142
  235.9998  348.3622 -114.2550 LP  0  0  0  0  0  0  0  0  0  0  0  0  # atno 27279 bound_to 18142
  231.0288  349.2133 -115.6465 LP  0  0  0  0  0  0  0  0  0  0  0  0  # atno 27280 bound_to 18249
  230.0463  349.6169 -119.8347 LP  0  0  0  0  0  0  0  0  0  0  0  0  # atno 27281 bound_to 18252
  228.9836  348.6289 -118.8890 LP  0  0  0  0  0  0  0  0  0  0  0  0  # atno 27282 bound_to 18252
  229.5638  352.2520 -117.9849 LP  0  0  0  0  0  0  0  0  0  0  0  0  # atno 27283 bound_to 18297
  230.1402  354.8584 -119.0572 LP  0  0  0  0  0  0  0  0  0  0  0  0  # atno 27284 bound_to 18300
  228.6401  354.2068 -118.4868 LP  0  0  0  0  0  0  0  0  0  0  0  0  # atno 27285 bound_to 18300
  229.1077  353.7209 -120.5343 LP  0  0  0  0  0  0  0  0  0  0  0  0  # atno 27286 bound_to 18389
  227.4167  355.6869 -121.3399 LP  0  0  0  0  0  0  0  0  0  0  0  0  # atno 27287 bound_to 18392
  227.7679  356.5140 -122.8206 LP  0  0  0  0  0  0  0  0  0  0  0  0  # atno 27288 bound_to 18392
  236.8687  354.4151 -121.9541 LP  0  0  0  0  0  0  0  0  0  0  0  0  # atno 27289 bound_to 18400
  236.8179  353.8216 -123.4745 LP  0  0  0  0  0  0  0  0  0  0  0  0  # atno 27290 bound_to 18400
  229.6988  356.6734 -121.7346 LP  0  0  0  0  0  0  0  0  0  0  0  0  # atno 27291 bound_to 18465
  231.7985  359.7775 -122.9982 LP  0  0  0  0  0  0  0  0  0  0  0  0  # atno 27292 bound_to 18468
  231.6261  358.0870 -122.6623 LP  0  0  0  0  0  0  0  0  0  0  0  0  # atno 27293 bound_to 18468
  232.9040  361.4175 -122.2016 LP  0  0  0  0  0  0  0  0  0  0  0  0  # atno 27294 bound_to 18619
  227.6819  359.3668 -113.7900 LP  0  0  0  0  0  0  0  0  0  0  0  0  # atno 27303 bound_to 7437
  232.3168  348.2031 -113.3317 LP  0  0  0  0  0  0  0  0  0  0  0  0  # atno 27304 bound_to 18209
  229.6402  349.2430 -114.2484 LP  0  0  0  0  0  0  0  0  0  0  0  0  # atno 27305 bound_to 18212
  230.4014  347.6883 -114.1873 LP  0  0  0  0  0  0  0  0  0  0  0  0  # atno 27306 bound_to 18212
  229.4324  359.5612 -112.2248 LP  0  0  0  0  0  0  0  0  0  0  0  0  # atno 27307 bound_to 7379
  230.7939  350.7395 -124.2038 LP  0  0  0  0  0  0  0  0  0  0  0  0  # atno 27308 bound_to 16952
  231.1449  349.9166 -122.7207 LP  0  0  0  0  0  0  0  0  0  0  0  0  # atno 27309 bound_to 16952
  228.8940  360.2709 -123.3617 LP  0  0  0  0  0  0  0  0  0  0  0  0  # atno 27310 bound_to 18525
  232.5331  345.4265 -116.4574 LP  0  0  0  0  0  0  0  0  0  0  0  0  # atno 27311 bound_to 18214
  231.1670  346.2821 -116.7191 LP  0  0  0  0  0  0  0  0  0  0  0  0  # atno 27312 bound_to 18214
  239.1133  348.2614 -116.0433 LP  0  0  0  0  0  0  0  0  0  0  0  0  # atno 27313 bound_to 17114
  238.8188  348.8205 -117.6559 LP  0  0  0  0  0  0  0  0  0  0  0  0  # atno 27314 bound_to 17114
  238.5193  347.9067 -112.4244 LP  0  0  0  0  0  0  0  0  0  0  0  0  # atno 27315 bound_to 17158
  237.2766  349.0853 -112.6825 LP  0  0  0  0  0  0  0  0  0  0  0  0  # atno 27316 bound_to 17158
  236.5190  347.8428 -111.8704 LP  0  0  0  0  0  0  0  0  0  0  0  0  # atno 27317 bound_to 18139
  240.6372  349.9916 -113.6955 LP  0  0  0  0  0  0  0  0  0  0  0  0  # atno 27318 bound_to 17217
  228.1388  345.7933 -113.9155 LP  0  0  0  0  0  0  0  0  0  0  0  0  # atno 27319 bound_to 10067
  231.4936  346.9191 -112.2343 LP  0  0  0  0  0  0  0  0  0  0  0  0  # atno 27320 bound_to 10070
  232.2795  345.7215 -113.2081 LP  0  0  0  0  0  0  0  0  0  0  0  0  # atno 27321 bound_to 10070
  239.7296  351.9259 -122.2201 LP  0  0  0  0  0  0  0  0  0  0  0  0  # atno 27322 bound_to 16892
  238.5991  353.0685 -122.5086 LP  0  0  0  0  0  0  0  0  0  0  0  0  # atno 27323 bound_to 16892
  242.1318  350.1154 -114.4280 LP  0  0  0  0  0  0  0  0  0  0  0  0  # atno 27326 bound_to 11348
  241.3875  351.2997 -115.4494 LP  0  0  0  0  0  0  0  0  0  0  0  0  # atno 27327 bound_to 11348
  245.6645  352.6162 -118.1238 LP  0  0  0  0  0  0  0  0  0  0  0  0  # atno 27333 bound_to 11350
  244.0338  352.5313 -118.1211 LP  0  0  0  0  0  0  0  0  0  0  0  0  # atno 27334 bound_to 11350
  243.0442  350.6508 -117.9052 LP  0  0  0  0  0  0  0  0  0  0  0  0  # atno 27335 bound_to 11395
  241.2610  360.3955 -110.3501 LP  0  0  0  0  0  0  0  0  0  0  0  0  # atno 27336 bound_to 25995
  240.1084  360.1856 -109.2126 LP  0  0  0  0  0  0  0  0  0  0  0  0  # atno 27337 bound_to 25995
  242.3513  349.6483 -109.5482 LP  0  0  0  0  0  0  0  0  0  0  0  0  # atno 27340 bound_to 17321
  232.4757  362.4318 -111.7895 LP  0  0  0  0  0  0  0  0  0  0  0  0  # atno 27341 bound_to 7254
  233.2266  360.8923 -112.0464 LP  0  0  0  0  0  0  0  0  0  0  0  0  # atno 27342 bound_to 7254
  242.3121  348.6908 -112.5847 LP  0  0  0  0  0  0  0  0  0  0  0  0  # atno 27343 bound_to 17265
  243.9485  351.7636 -108.6459 LP  0  0  0  0  0  0  0  0  0  0  0  0  # atno 27344 bound_to 17268
  245.1028  350.8121 -109.5191 LP  0  0  0  0  0  0  0  0  0  0  0  0  # atno 27345 bound_to 17268
  240.8562  353.3565 -106.2685 LP  0  0  0  0  0  0  0  0  0  0  0  0  # atno 27346 bound_to 25921
  242.4862  353.0515 -105.7684 LP  0  0  0  0  0  0  0  0  0  0  0  0  # atno 27347 bound_to 25921

> <Gold.Score>
     Fitness  S(hb_ext) S(vdw_ext)  S(hb_int)    S(int)      intcor
     41.26      11.65      22.69       0.00      -1.59      -0.76

> <Gold.Goldscore.Fitness>
41.2604

> <Gold.Goldscore.Internal.Vdw>
-1.9848

> <Gold.Goldscore.Internal.Torsion>
-0.3716

> <Gold.Goldscore.External.Vdw>
22.6945

> <Gold.Goldscore.Internal.HBond>
0.0000

> <Gold.Goldscore.External.HBond>
11.6469

> <Gold.Goldscore.Internal.Correction>
-0.7650

> <Gold.Goldscore.Hbonds>
donor molecule, donor type, donor heavy atom, donor atom, acceptor molecule, acceptor atom, score
      L1  H     8    22       P1 26916  0.95
      L1  H    10    23       P1 17272  0.99

> <Gold.Goldscore.Internal.Vdw.Weighted>
-1.9848

> <Gold.Goldscore.Internal.Torsion.Weighted>
-0.3716

> <Gold.Goldscore.External.Vdw.Weighted>
31.2049

> <Gold.Goldscore.Internal.HBond.Weighted>
0.0000

> <Gold.Goldscore.External.HBond.Weighted>
11.6469

> <Gold.Goldscore.Internal.Correction.Weighted>
-0.7650

> <Gold.Rescore>
     Score     S(PLP)   S(hbond)     S(cho)   S(metal)  DE(clash)   DE(tors)     intcor
     31.22     -30.17       0.89       0.00       0.00       0.55       0.54       ----

> <Gold.PLP.Fitness>
31.2179

> <Gold.PLP.PLP>
-30.1683

> <Gold.PLP.part.hbond>
-2.0000

> <Gold.PLP.part.metal>
0.0000

> <Gold.PLP.part.buried>
-4.1164

> <Gold.PLP.part.nonpolar>
-25.0822

> <Gold.PLP.part.repulsive>
2.2200

> <Gold.PLP.ligand.clash>
0.5453

> <Gold.PLP.ligand.torsion>
0.5446

> <Gold.PLP.Chemscore.Hbond>
0.8947

> <Gold.PLP.Chemscore.CHOScore>
0.0000

> <Gold.PLP.Chemscore.Metal>
0.0000

> <Gold.Chemscore.Hbonds>
donor molecule, donor type, donor heavy atom, donor atom, acceptor molecule, acceptor atom, score
      L1  H     8    22       P1 26916  0.52
      L1  H    10    23       P1 17272  0.81

> <Gold.PLP.Chemscore.Internal.Correction>
   9.000000E+99

