#       Name:                CT1002167954
#       Creating user name   hitesit
#       Creation time:       Sun Apr 16 02:30:58 2023


#       File generated by GOLD software.
#

@<TRIPOS>MOLECULE
CT1002167954|ligand_prepared|mol2|1|dock10
    29    30     1
SMALL
NO_CHARGES


@<TRIPOS>ATOM
      1 C1         239.5689 357.9074 -119.0483 C.3            1 RES1               0.0000
      2 C2         239.3549 357.1922 -117.6987 C.ar           1 RES1               0.0000
      3 C3         240.6093 358.9948 -118.7966 C.2            1 RES1               0.0000
      4 C4         240.0171 356.8337 -120.0337 C.2            1 RES1               0.0000
      5 C5         238.2915 358.5711 -119.6132 C.3            1 RES1               0.0000
      6 C6         238.0810 356.7990 -117.2993 C.ar           1 RES1               0.0000
      7 C7         240.4198 356.9169 -116.8451 C.ar           1 RES1               0.0000
      8 N8         241.8681 358.7889 -119.2794 N.am           1 RES1               0.0000
      9 O9         240.3398 359.9997 -118.1502 O.2            1 RES1               0.0000
     10 N10        241.2877 356.9170 -120.5400 N.am           1 RES1               0.0000
     11 O11        239.2871 355.9071 -120.3635 O.2            1 RES1               0.0000
     12 C12        238.5565 359.5335 -120.7603 C.3            1 RES1               0.0000
     13 C13        237.8795 356.1513 -116.0917 C.ar           1 RES1               0.0000
     14 C14        240.2160 356.2693 -115.6378 C.ar           1 RES1               0.0000
     15 C15        242.2440 357.8286 -120.1839 C.2            1 RES1               0.0000
     16 C16        238.9467 355.8857 -115.2604 C.ar           1 RES1               0.0000
     17 O17        243.3823 357.8059 -120.6431 O.2            1 RES1               0.0000
     18 H18        237.6100 357.7854 -119.9618 H              1 RES1               0.0000
     19 H19        237.7893 359.1159 -118.8042 H              1 RES1               0.0000
     20 H20        237.2287 357.0017 -117.9392 H              1 RES1               0.0000
     21 H21        241.4270 357.2104 -117.1208 H              1 RES1               0.0000
     22 H22        242.5973 359.4058 -118.9361 H              1 RES1               0.0000
     23 H23        241.5445 356.2364 -121.2479 H              1 RES1               0.0000
     24 H24        237.6273 359.9710 -121.1192 H              1 RES1               0.0000
     25 H25        239.2111 360.3421 -120.4420 H              1 RES1               0.0000
     26 H26        239.0328 359.0195 -121.5927 H              1 RES1               0.0000
     27 H27        236.8784 355.8527 -115.7988 H              1 RES1               0.0000
     28 H28        241.0588 356.0628 -114.9864 H              1 RES1               0.0000
     29 H29        238.7886 355.3779 -114.3147 H              1 RES1               0.0000
@<TRIPOS>BOND
    1    1    2 1     
    2    1    3 1     
    3    1    4 1     
    4    1    5 1     
    5    2    6 ar    
    6    2    7 ar    
    7    3    8 1     
    8    3    9 2     
    9    4   10 1     
   10    4   11 2     
   11    5   12 1     
   12    5   18 1     
   13    5   19 1     
   14    6   13 ar    
   15    6   20 1     
   16    7   14 ar    
   17    7   21 1     
   18    8   15 1     
   19    8   22 1     
   20   10   15 1     
   21   10   23 1     
   22   12   24 1     
   23   12   25 1     
   24   12   26 1     
   25   13   16 ar    
   26   13   27 1     
   27   14   16 ar    
   28   14   28 1     
   29   15   17 2     
   30   16   29 1     
@<TRIPOS>SUBSTRUCTURE
      1 RES1           1
@<TRIPOS>SET
DONOR_HYDROGENS      STATIC     ATOMS    <user>   **** ""
2 22 23
ATOM$RED        STATIC     ATOMS    COLORGROUP SYSTEM
2 22 23
@<TRIPOS>COMMENT
> <Gold.Version>
2022.3.0

> <Gold.Id.Protein>
unknown|7ts3_clean|pdb

> <Gold.Protein.RotatedTorsions>
[ 17121 17111 17112 17113 ] final   10.70 input   42.04 | X-H torsion
[ 17169 17155 17156 17157 ] final  -99.87 input  103.88 | X-H torsion
[ 18263 18249 18250 18251 ] final -167.04 input   32.50 | X-H torsion
[ 18345 18297 18298 18299 ] final -168.80 input   28.05 | X-H torsion
[ 18431 18389 18390 18391 ] final  -54.86 input   99.92 | X-H torsion
[ 18439 18400 18399 18397 ] final  175.23 input   59.97 | X-H torsion
[ 18499 18465 18466 18467 ] final   72.19 input   91.01 | X-H torsion
[ 18649 18619 18620 18621 ] final  -19.45 input  125.07 | X-H torsion
[ 7445 7437 7438 7439 ] final    9.56 input   89.33 | X-H torsion
[ 18231 18209 18210 18211 ] final   64.89 input   30.89 | X-H torsion
[ 7393 7379 7380 7381 ] final   -7.96 input   98.82 | X-H torsion
[ 18539 18525 18526 18527 ] final  -50.38 input  129.79 | X-H torsion
[ 18235 18214 18213 18210 ] final    0.24 input   60.00 | X-H torsion
[ 18179 18139 18140 18141 ] final  136.67 input   56.47 | X-H torsion
[ 17229 17217 17218 17219 ] final  -81.89 input   53.60 | X-H torsion
[ 10082 10067 10068 10069 ] final  140.47 input   26.25 | X-H torsion
[ 16913 16892 16891 16889 ] final   20.83 input   59.99 | X-H torsion
[ 11371 11350 11349 11346 ] final  118.87 input   59.99 | X-H torsion
[ 11429 11395 11396 11397 ] final  139.39 input   50.42 | X-H torsion
[ 26033 25995 25994 25992 ] final  121.72 input   60.01 | X-H torsion
[ 17337 17321 17322 17323 ] final  -71.94 input   80.81 | X-H torsion
[ 17281 17265 17266 17267 ] final  -70.29 input   66.93 | X-H torsion
[ 22383 22351 22352 22353 ] final -162.12 input   47.53 | X-H torsion
[ 27271 16988 16987 16986 ] final   88.46 input   -0.00 | X-H torsion
[ 27274 17062 17061 17060 ] final -111.47 input   -0.00 | X-H torsion
[ 27278 18142 18141 18140 ] final  155.78 input    0.00 | X-H torsion
[ 27281 18252 18251 18250 ] final -103.23 input    0.00 | X-H torsion
[ 27284 18300 18299 18298 ] final   97.52 input   -0.00 | X-H torsion
[ 27287 18392 18391 18390 ] final   60.82 input   -0.00 | X-H torsion
[ 27292 18468 18467 18466 ] final  -34.57 input   -0.00 | X-H torsion
[ 27305 18212 18211 18210 ] final -123.90 input   -0.00 | X-H torsion
[ 27308 16952 16951 16950 ] final   65.38 input   -0.00 | X-H torsion
[ 27313 17114 17113 17112 ] final  155.13 input   -0.00 | X-H torsion
[ 27315 17158 17157 17156 ] final   57.67 input   -0.00 | X-H torsion
[ 27320 10070 10069 10068 ] final -157.53 input   -0.00 | X-H torsion
[ 27326 11348 11347 11346 ] final   56.65 input   -0.00 | X-H torsion
[ 27341 7254 7253 7252 ] final   93.59 input    0.00 | X-H torsion
[ 27344 17268 17267 17266 ] final -104.77 input   -0.00 | X-H torsion
[ 27346 25921 25920 25919 ] final  171.32 input    0.00 | X-H torsion

> <Gold.Protein.ActiveResidues>
 MET341  HIS342  TRP414  ARG419  CYS420  VAL421  GLY422  LEU429  LEU460  SER462 
 ALA463  ILE464  SER482  GLN483  ARG486  TYR567  GLY568  LEU569  PRO570  ALA571 
 VAL572  SER573  ASN574  MET575  PRO588  PHE589  SER590  GLY591  TRP592  TYR593 
 MET594  GLY595  GLU597  ILE598  ARG601  ASP602  ARG608  ILE653  VAL654  TRP683 
 PHE709  GLU710  TYR711  HEM801  H4B802 

> <Gold.Protein.RotatedAtoms>
  229.4289  359.5466 -112.2174 H   0  0  0  0  0  0  0  0  0  0  0  0  # atno 7393 bound_to 7379
  227.6842  358.8979 -112.1129 H   0  0  0  0  0  0  0  0  0  0  0  0  # atno 7445 bound_to 7437
  228.5520  345.7297 -114.3228 H   0  0  0  0  0  0  0  0  0  0  0  0  # atno 10082 bound_to 10067
  244.2423  352.7931 -118.1070 H   0  0  0  0  0  0  0  0  0  0  0  0  # atno 11371 bound_to 11350
  242.8043  350.9093 -117.5225 H   0  0  0  0  0  0  0  0  0  0  0  0  # atno 11429 bound_to 11395
  238.9525  352.2708 -122.0142 H   0  0  0  0  0  0  0  0  0  0  0  0  # atno 16913 bound_to 16892
  236.7715  350.3575 -118.4817 H   0  0  0  0  0  0  0  0  0  0  0  0  # atno 17121 bound_to 17111
  237.3627  349.6354 -116.2771 H   0  0  0  0  0  0  0  0  0  0  0  0  # atno 17169 bound_to 17155
  239.5721  349.6471 -113.2738 H   0  0  0  0  0  0  0  0  0  0  0  0  # atno 17229 bound_to 17217
  241.7416  348.8103 -111.7604 H   0  0  0  0  0  0  0  0  0  0  0  0  # atno 17281 bound_to 17265
  242.9269  350.2116 -109.6929 H   0  0  0  0  0  0  0  0  0  0  0  0  # atno 17337 bound_to 17321
  236.3127  347.3372 -111.2541 H   0  0  0  0  0  0  0  0  0  0  0  0  # atno 18179 bound_to 18139
  232.4746  347.2315 -113.7158 H   0  0  0  0  0  0  0  0  0  0  0  0  # atno 18231 bound_to 18209
  231.4956  346.3985 -115.3707 H   0  0  0  0  0  0  0  0  0  0  0  0  # atno 18235 bound_to 18214
  231.0273  349.4191 -115.5113 H   0  0  0  0  0  0  0  0  0  0  0  0  # atno 18263 bound_to 18249
  228.9947  350.6919 -118.3382 H   0  0  0  0  0  0  0  0  0  0  0  0  # atno 18345 bound_to 18297
  229.0580  353.7440 -120.5442 H   0  0  0  0  0  0  0  0  0  0  0  0  # atno 18431 bound_to 18389
  236.8850  354.4661 -122.0402 H   0  0  0  0  0  0  0  0  0  0  0  0  # atno 18439 bound_to 18400
  230.6480  357.4375 -120.7082 H   0  0  0  0  0  0  0  0  0  0  0  0  # atno 18499 bound_to 18465
  229.8211  359.2033 -123.0720 H   0  0  0  0  0  0  0  0  0  0  0  0  # atno 18539 bound_to 18525
  233.3668  361.2835 -123.7975 H   0  0  0  0  0  0  0  0  0  0  0  0  # atno 18649 bound_to 18619
  224.9865  355.8755 -123.4091 H   0  0  0  0  0  0  0  0  0  0  0  0  # atno 22383 bound_to 22351
  241.1799  359.9953 -110.6765 H   0  0  0  0  0  0  0  0  0  0  0  0  # atno 26033 bound_to 25995
  235.8923  349.2509 -122.2365 LP  0  0  0  0  0  0  0  0  0  0  0  0  # atno 27271 bound_to 16988
  235.6796  348.2686 -120.8258 LP  0  0  0  0  0  0  0  0  0  0  0  0  # atno 27272 bound_to 16988
  233.8043  350.4580 -116.9276 LP  0  0  0  0  0  0  0  0  0  0  0  0  # atno 27274 bound_to 17062
  233.0977  349.4337 -118.1324 LP  0  0  0  0  0  0  0  0  0  0  0  0  # atno 27275 bound_to 17062
  235.1716  349.7376 -118.7928 LP  0  0  0  0  0  0  0  0  0  0  0  0  # atno 27276 bound_to 17111
  236.3321  349.8335 -114.8805 LP  0  0  0  0  0  0  0  0  0  0  0  0  # atno 27277 bound_to 17155
  235.0218  348.8562 -115.2265 LP  0  0  0  0  0  0  0  0  0  0  0  0  # atno 27278 bound_to 18142
  235.8613  349.1136 -113.7335 LP  0  0  0  0  0  0  0  0  0  0  0  0  # atno 27279 bound_to 18142
  231.5536  349.9091 -117.1085 LP  0  0  0  0  0  0  0  0  0  0  0  0  # atno 27280 bound_to 18249
  230.3025  349.4204 -119.5651 LP  0  0  0  0  0  0  0  0  0  0  0  0  # atno 27281 bound_to 18252
  228.7274  348.8254 -119.1586 LP  0  0  0  0  0  0  0  0  0  0  0  0  # atno 27282 bound_to 18252
  229.1789  352.3791 -117.9196 LP  0  0  0  0  0  0  0  0  0  0  0  0  # atno 27283 bound_to 18297
  230.2460  354.4092 -118.7244 LP  0  0  0  0  0  0  0  0  0  0  0  0  # atno 27284 bound_to 18300
  228.5343  354.6559 -118.8196 LP  0  0  0  0  0  0  0  0  0  0  0  0  # atno 27285 bound_to 18300
  229.7595  353.1515 -122.0301 LP  0  0  0  0  0  0  0  0  0  0  0  0  # atno 27286 bound_to 18389
  227.4777  355.5074 -121.4597 LP  0  0  0  0  0  0  0  0  0  0  0  0  # atno 27287 bound_to 18392
  227.7069  356.6936 -122.7008 LP  0  0  0  0  0  0  0  0  0  0  0  0  # atno 27288 bound_to 18392
  236.7932  353.7237 -123.4848 LP  0  0  0  0  0  0  0  0  0  0  0  0  # atno 27289 bound_to 18400
  236.4839  352.8912 -122.1144 LP  0  0  0  0  0  0  0  0  0  0  0  0  # atno 27290 bound_to 18400
  229.1889  356.6305 -121.2387 LP  0  0  0  0  0  0  0  0  0  0  0  0  # atno 27291 bound_to 18465
  231.7436  359.1479 -121.9921 LP  0  0  0  0  0  0  0  0  0  0  0  0  # atno 27292 bound_to 18468
  231.6810  358.7166 -123.6684 LP  0  0  0  0  0  0  0  0  0  0  0  0  # atno 27293 bound_to 18468
  232.6530  360.9669 -122.2347 LP  0  0  0  0  0  0  0  0  0  0  0  0  # atno 27294 bound_to 18619
  227.7987  359.2753 -113.8159 LP  0  0  0  0  0  0  0  0  0  0  0  0  # atno 27303 bound_to 7437
  233.6302  348.5344 -113.5645 LP  0  0  0  0  0  0  0  0  0  0  0  0  # atno 27304 bound_to 18209
  229.4924  348.1537 -114.8289 LP  0  0  0  0  0  0  0  0  0  0  0  0  # atno 27305 bound_to 18212
  230.5493  348.7776 -113.6068 LP  0  0  0  0  0  0  0  0  0  0  0  0  # atno 27306 bound_to 18212
  230.1393  361.1320 -112.3938 LP  0  0  0  0  0  0  0  0  0  0  0  0  # atno 27307 bound_to 7379
  230.3544  349.7891 -123.7473 LP  0  0  0  0  0  0  0  0  0  0  0  0  # atno 27308 bound_to 16952
  231.5845  350.8670 -123.1772 LP  0  0  0  0  0  0  0  0  0  0  0  0  # atno 27309 bound_to 16952
  228.2924  359.6387 -123.7935 LP  0  0  0  0  0  0  0  0  0  0  0  0  # atno 27310 bound_to 18525
  232.6257  345.4599 -116.0718 LP  0  0  0  0  0  0  0  0  0  0  0  0  # atno 27311 bound_to 18214
  231.3978  346.0665 -116.9612 LP  0  0  0  0  0  0  0  0  0  0  0  0  # atno 27312 bound_to 18214
  239.3433  349.2097 -116.4490 LP  0  0  0  0  0  0  0  0  0  0  0  0  # atno 27313 bound_to 17114
  238.5889  347.8722 -117.2502 LP  0  0  0  0  0  0  0  0  0  0  0  0  # atno 27314 bound_to 17114
  237.3719  348.2659 -113.2017 LP  0  0  0  0  0  0  0  0  0  0  0  0  # atno 27315 bound_to 17158
  238.4240  348.7261 -111.9051 LP  0  0  0  0  0  0  0  0  0  0  0  0  # atno 27316 bound_to 17158
  236.3497  346.7344 -112.8963 LP  0  0  0  0  0  0  0  0  0  0  0  0  # atno 27317 bound_to 18139
  240.4610  349.3144 -114.7418 LP  0  0  0  0  0  0  0  0  0  0  0  0  # atno 27318 bound_to 17217
  229.0987  346.7924 -113.0517 LP  0  0  0  0  0  0  0  0  0  0  0  0  # atno 27319 bound_to 10067
  232.5665  345.9679 -112.3169 LP  0  0  0  0  0  0  0  0  0  0  0  0  # atno 27320 bound_to 10070
  231.2066  346.6728 -113.1255 LP  0  0  0  0  0  0  0  0  0  0  0  0  # atno 27321 bound_to 10070
  239.0717  353.4213 -123.1586 LP  0  0  0  0  0  0  0  0  0  0  0  0  # atno 27322 bound_to 16892
  240.2714  352.3304 -122.9653 LP  0  0  0  0  0  0  0  0  0  0  0  0  # atno 27323 bound_to 16892
  242.0341  351.5269 -114.8805 LP  0  0  0  0  0  0  0  0  0  0  0  0  # atno 27326 bound_to 11348
  241.4853  349.8882 -114.9970 LP  0  0  0  0  0  0  0  0  0  0  0  0  # atno 27327 bound_to 11348
  244.5890  351.2056 -118.1891 LP  0  0  0  0  0  0  0  0  0  0  0  0  # atno 27333 bound_to 11350
  245.7943  352.3063 -118.1397 LP  0  0  0  0  0  0  0  0  0  0  0  0  # atno 27334 bound_to 11350
  243.3244  349.3226 -116.9879 LP  0  0  0  0  0  0  0  0  0  0  0  0  # atno 27335 bound_to 11395
  240.4943  360.5297 -109.3012 LP  0  0  0  0  0  0  0  0  0  0  0  0  # atno 27336 bound_to 25995
  239.9142  359.1945 -110.0410 LP  0  0  0  0  0  0  0  0  0  0  0  0  # atno 27337 bound_to 25995
  241.3119  350.4780 -110.3008 LP  0  0  0  0  0  0  0  0  0  0  0  0  # atno 27340 bound_to 17321
  233.3976  360.9943 -111.9925 LP  0  0  0  0  0  0  0  0  0  0  0  0  # atno 27341 bound_to 7254
  232.3048  362.3298 -111.8435 LP  0  0  0  0  0  0  0  0  0  0  0  0  # atno 27342 bound_to 7254
  242.1379  350.0534 -112.9181 LP  0  0  0  0  0  0  0  0  0  0  0  0  # atno 27343 bound_to 17265
  244.5043  350.6230 -108.5280 LP  0  0  0  0  0  0  0  0  0  0  0  0  # atno 27344 bound_to 17268
  244.5469  351.9527 -109.6370 LP  0  0  0  0  0  0  0  0  0  0  0  0  # atno 27345 bound_to 17268
  242.2496  353.5363 -106.5707 LP  0  0  0  0  0  0  0  0  0  0  0  0  # atno 27346 bound_to 25921
  241.0928  352.8716 -105.4662 LP  0  0  0  0  0  0  0  0  0  0  0  0  # atno 27347 bound_to 25921

> <Gold.Score>
     Fitness  S(hb_ext) S(vdw_ext)  S(hb_int)    S(int)      intcor
     27.12       0.75      19.68       0.00      -0.69      -0.76

> <Gold.Goldscore.Fitness>
27.1220

> <Gold.Goldscore.Internal.Vdw>
-0.8010

> <Gold.Goldscore.Internal.Torsion>
-0.6453

> <Gold.Goldscore.External.Vdw>
19.6834

> <Gold.Goldscore.Internal.HBond>
0.0000

> <Gold.Goldscore.External.HBond>
0.7452

> <Gold.Goldscore.Internal.Correction>
-0.7585

> <Gold.Goldscore.Hbonds>
donor molecule, donor type, donor heavy atom, donor atom, acceptor molecule, acceptor atom, score
      P1  H 11402 11435       L1    11  0.02
      P1  H 18400 18439       L1    11  0.03
      P1  H 11629 11678       L1    17  0.10

> <Gold.Goldscore.Internal.Vdw.Weighted>
-0.8010

> <Gold.Goldscore.Internal.Torsion.Weighted>
-0.6453

> <Gold.Goldscore.External.Vdw.Weighted>
27.0646

> <Gold.Goldscore.Internal.HBond.Weighted>
0.0000

> <Gold.Goldscore.External.HBond.Weighted>
0.7452

> <Gold.Goldscore.Internal.Correction.Weighted>
-0.7585

> <Gold.Rescore>
     Score     S(PLP)   S(hbond)     S(cho)   S(metal)  DE(clash)   DE(tors)     intcor
     18.17     -14.62       1.94       0.00       0.00       0.13       1.07       ----

> <Gold.PLP.Fitness>
18.1674

> <Gold.PLP.PLP>
-14.6173

> <Gold.PLP.part.hbond>
-2.0580

> <Gold.PLP.part.metal>
0.0000

> <Gold.PLP.part.buried>
-2.1909

> <Gold.PLP.part.nonpolar>
-15.5916

> <Gold.PLP.part.repulsive>
5.1782

> <Gold.PLP.ligand.clash>
0.1261

> <Gold.PLP.ligand.torsion>
1.0659

> <Gold.PLP.Chemscore.Hbond>
1.9360

> <Gold.PLP.Chemscore.CHOScore>
0.0000

> <Gold.PLP.Chemscore.Metal>
0.0000

> <Gold.Chemscore.Hbonds>
donor molecule, donor type, donor heavy atom, donor atom, acceptor molecule, acceptor atom, score
      P1  H 11402 11435       L1    11  0.63
      P1  H 11629 11678       L1    17  0.62

> <Gold.PLP.Chemscore.Internal.Correction>
   9.000000E+99

