#       Name:                CT1002167954
#       Creating user name   hitesit
#       Creation time:       Sun Apr 16 02:30:56 2023


#       File generated by GOLD software.
#

@<TRIPOS>MOLECULE
CT1002167954|ligand_prepared|mol2|1|dock7
    29    30     1
SMALL
NO_CHARGES


@<TRIPOS>ATOM
      1 C1         234.0514 354.8506 -115.8385 C.3            1 RES1               0.0000
      2 C2         235.2563 354.7656 -116.7976 C.ar           1 RES1               0.0000
      3 C3         232.9293 355.5286 -116.6192 C.2            1 RES1               0.0000
      4 C4         233.7394 353.4188 -115.4175 C.2            1 RES1               0.0000
      5 C5         234.3278 355.6751 -114.5597 C.3            1 RES1               0.0000
      6 C6         235.7024 353.5339 -117.2674 C.ar           1 RES1               0.0000
      7 C7         235.9288 355.9081 -117.2227 C.ar           1 RES1               0.0000
      8 N8         231.8942 354.7487 -117.0436 N.am           1 RES1               0.0000
      9 O9         232.9715 356.7218 -116.8924 O.2            1 RES1               0.0000
     10 N10        232.5437 352.8792 -115.8136 N.am           1 RES1               0.0000
     11 O11        234.5253 352.7474 -114.7604 O.2            1 RES1               0.0000
     12 C12        235.6316 355.3126 -113.8662 C.3            1 RES1               0.0000
     13 C13        236.7800 353.4477 -118.1332 C.ar           1 RES1               0.0000
     14 C14        237.0064 355.8197 -118.0885 C.ar           1 RES1               0.0000
     15 C15        231.6204 353.4686 -116.6335 C.2            1 RES1               0.0000
     16 C16        237.4324 354.5904 -118.5446 C.ar           1 RES1               0.0000
     17 O17        230.5933 352.8984 -116.9898 O.2            1 RES1               0.0000
     18 H18        234.3526 356.7394 -114.8242 H              1 RES1               0.0000
     19 H19        233.4998 355.5238 -113.8561 H              1 RES1               0.0000
     20 H20        235.2031 352.6236 -116.9526 H              1 RES1               0.0000
     21 H21        235.6119 356.8858 -116.8759 H              1 RES1               0.0000
     22 H22        231.2656 355.1547 -117.7295 H              1 RES1               0.0000
     23 H23        232.3213 351.9522 -115.4648 H              1 RES1               0.0000
     24 H24        235.7766 355.9202 -112.9755 H              1 RES1               0.0000
     25 H25        235.6313 354.2667 -113.5666 H              1 RES1               0.0000
     26 H26        236.4791 355.4751 -114.5290 H              1 RES1               0.0000
     27 H27        237.1123 352.4778 -118.4882 H              1 RES1               0.0000
     28 H28        237.5173 356.7216 -118.4092 H              1 RES1               0.0000
     29 H29        238.2763 354.5227 -119.2232 H              1 RES1               0.0000
@<TRIPOS>BOND
    1    1    2 1     
    2    1    3 1     
    3    1    4 1     
    4    1    5 1     
    5    2    6 ar    
    6    2    7 ar    
    7    3    8 1     
    8    3    9 2     
    9    4   10 1     
   10    4   11 2     
   11    5   12 1     
   12    5   18 1     
   13    5   19 1     
   14    6   13 ar    
   15    6   20 1     
   16    7   14 ar    
   17    7   21 1     
   18    8   15 1     
   19    8   22 1     
   20   10   15 1     
   21   10   23 1     
   22   12   24 1     
   23   12   25 1     
   24   12   26 1     
   25   13   16 ar    
   26   13   27 1     
   27   14   16 ar    
   28   14   28 1     
   29   15   17 2     
   30   16   29 1     
@<TRIPOS>SUBSTRUCTURE
      1 RES1           1
@<TRIPOS>SET
DONOR_HYDROGENS      STATIC     ATOMS    <user>   **** ""
2 22 23
ATOM$RED        STATIC     ATOMS    COLORGROUP SYSTEM
2 22 23
@<TRIPOS>COMMENT
> <Gold.Version>
2022.3.0

> <Gold.Id.Protein>
unknown|7ts3_clean|pdb

> <Gold.Protein.RotatedTorsions>
[ 17121 17111 17112 17113 ] final  -36.14 input   42.04 | X-H torsion
[ 17169 17155 17156 17157 ] final -156.81 input  103.88 | X-H torsion
[ 18263 18249 18250 18251 ] final   45.95 input   32.50 | X-H torsion
[ 18345 18297 18298 18299 ] final  -47.60 input   28.05 | X-H torsion
[ 18431 18389 18390 18391 ] final  -76.51 input   99.92 | X-H torsion
[ 18439 18400 18399 18397 ] final -120.98 input   59.97 | X-H torsion
[ 18499 18465 18466 18467 ] final   88.99 input   91.01 | X-H torsion
[ 18649 18619 18620 18621 ] final   94.44 input  125.07 | X-H torsion
[ 7445 7437 7438 7439 ] final  134.66 input   89.33 | X-H torsion
[ 18231 18209 18210 18211 ] final  -22.24 input   30.89 | X-H torsion
[ 7393 7379 7380 7381 ] final    7.27 input   98.82 | X-H torsion
[ 18539 18525 18526 18527 ] final   30.86 input  129.79 | X-H torsion
[ 18235 18214 18213 18210 ] final -102.91 input   60.00 | X-H torsion
[ 18179 18139 18140 18141 ] final  -49.17 input   56.47 | X-H torsion
[ 17229 17217 17218 17219 ] final -170.67 input   53.60 | X-H torsion
[ 10082 10067 10068 10069 ] final   73.16 input   26.25 | X-H torsion
[ 16913 16892 16891 16889 ] final   23.87 input   59.99 | X-H torsion
[ 11371 11350 11349 11346 ] final  167.60 input   59.99 | X-H torsion
[ 11429 11395 11396 11397 ] final  115.72 input   50.42 | X-H torsion
[ 26033 25995 25994 25992 ] final   86.15 input   60.01 | X-H torsion
[ 17337 17321 17322 17323 ] final -167.61 input   80.81 | X-H torsion
[ 17281 17265 17266 17267 ] final -170.08 input   66.93 | X-H torsion
[ 22383 22351 22352 22353 ] final -153.14 input   47.53 | X-H torsion
[ 27271 16988 16987 16986 ] final  -43.05 input   -0.00 | X-H torsion
[ 27274 17062 17061 17060 ] final  111.05 input   -0.00 | X-H torsion
[ 27278 18142 18141 18140 ] final  -78.90 input    0.00 | X-H torsion
[ 27281 18252 18251 18250 ] final  114.44 input    0.00 | X-H torsion
[ 27284 18300 18299 18298 ] final  -66.81 input   -0.00 | X-H torsion
[ 27287 18392 18391 18390 ] final  -48.95 input   -0.00 | X-H torsion
[ 27292 18468 18467 18466 ] final  176.52 input   -0.00 | X-H torsion
[ 27305 18212 18211 18210 ] final -115.93 input   -0.00 | X-H torsion
[ 27308 16952 16951 16950 ] final  142.35 input   -0.00 | X-H torsion
[ 27313 17114 17113 17112 ] final   37.91 input   -0.00 | X-H torsion
[ 27315 17158 17157 17156 ] final  144.62 input   -0.00 | X-H torsion
[ 27320 10070 10069 10068 ] final  -92.01 input   -0.00 | X-H torsion
[ 27326 11348 11347 11346 ] final  -63.35 input   -0.00 | X-H torsion
[ 27341 7254 7253 7252 ] final   85.79 input    0.00 | X-H torsion
[ 27344 17268 17267 17266 ] final   48.12 input   -0.00 | X-H torsion
[ 27346 25921 25920 25919 ] final -137.42 input    0.00 | X-H torsion

> <Gold.Protein.ActiveResidues>
 MET341  HIS342  TRP414  ARG419  CYS420  VAL421  GLY422  LEU429  LEU460  SER462 
 ALA463  ILE464  SER482  GLN483  ARG486  TYR567  GLY568  LEU569  PRO570  ALA571 
 VAL572  SER573  ASN574  MET575  PRO588  PHE589  SER590  GLY591  TRP592  TYR593 
 MET594  GLY595  GLU597  ILE598  ARG601  ASP602  ARG608  ILE653  VAL654  TRP683 
 PHE709  GLU710  TYR711  HEM801  H4B802 

> <Gold.Protein.RotatedAtoms>
  229.4896  359.5285 -112.4422 H   0  0  0  0  0  0  0  0  0  0  0  0  # atno 7393 bound_to 7379
  228.3309  358.7385 -113.5358 H   0  0  0  0  0  0  0  0  0  0  0  0  # atno 7445 bound_to 7437
  229.4333  346.1433 -114.3070 H   0  0  0  0  0  0  0  0  0  0  0  0  # atno 10082 bound_to 10067
  244.9763  353.0324 -118.0983 H   0  0  0  0  0  0  0  0  0  0  0  0  # atno 11371 bound_to 11350
  242.9396  350.7660 -117.8326 H   0  0  0  0  0  0  0  0  0  0  0  0  # atno 11429 bound_to 11395
  238.9897  352.2381 -122.0093 H   0  0  0  0  0  0  0  0  0  0  0  0  # atno 16913 bound_to 16892
  236.2717  350.6901 -118.1273 H   0  0  0  0  0  0  0  0  0  0  0  0  # atno 17121 bound_to 17111
  236.9586  350.3675 -116.1770 H   0  0  0  0  0  0  0  0  0  0  0  0  # atno 17169 bound_to 17155
  239.3518  348.9662 -114.2843 H   0  0  0  0  0  0  0  0  0  0  0  0  # atno 17229 bound_to 17217
  242.4244  348.9669 -112.9057 H   0  0  0  0  0  0  0  0  0  0  0  0  # atno 17281 bound_to 17265
  242.2874  351.1234 -110.3754 H   0  0  0  0  0  0  0  0  0  0  0  0  # atno 17337 bound_to 17321
  236.3088  346.6489 -112.8900 H   0  0  0  0  0  0  0  0  0  0  0  0  # atno 18179 bound_to 18139
  232.4000  348.3787 -113.3057 H   0  0  0  0  0  0  0  0  0  0  0  0  # atno 18231 bound_to 18209
  232.6041  345.5425 -115.8100 H   0  0  0  0  0  0  0  0  0  0  0  0  # atno 18235 bound_to 18214
  231.5849  350.3324 -116.8461 H   0  0  0  0  0  0  0  0  0  0  0  0  # atno 18263 bound_to 18249
  229.8862  351.9293 -118.1048 H   0  0  0  0  0  0  0  0  0  0  0  0  # atno 18345 bound_to 18297
  229.3464  353.6238 -120.4333 H   0  0  0  0  0  0  0  0  0  0  0  0  # atno 18431 bound_to 18389
  236.6336  353.6082 -121.6177 H   0  0  0  0  0  0  0  0  0  0  0  0  # atno 18439 bound_to 18400
  230.5121  357.4562 -120.4880 H   0  0  0  0  0  0  0  0  0  0  0  0  # atno 18499 bound_to 18465
  229.2979  360.2195 -123.1552 H   0  0  0  0  0  0  0  0  0  0  0  0  # atno 18539 bound_to 18525
  232.5532  360.3671 -122.9686 H   0  0  0  0  0  0  0  0  0  0  0  0  # atno 18649 bound_to 18619
  224.9600  355.9118 -123.5410 H   0  0  0  0  0  0  0  0  0  0  0  0  # atno 22383 bound_to 22351
  241.2525  360.4237 -110.3049 H   0  0  0  0  0  0  0  0  0  0  0  0  # atno 26033 bound_to 25995
  235.5470  347.9325 -121.4385 LP  0  0  0  0  0  0  0  0  0  0  0  0  # atno 27271 bound_to 16988
  236.0249  349.5870 -121.6238 LP  0  0  0  0  0  0  0  0  0  0  0  0  # atno 27272 bound_to 16988
  233.4545  349.1042 -117.7340 LP  0  0  0  0  0  0  0  0  0  0  0  0  # atno 27274 bound_to 17062
  233.4475  350.7875 -117.3260 LP  0  0  0  0  0  0  0  0  0  0  0  0  # atno 27275 bound_to 17062
  235.6656  349.4088 -119.1431 LP  0  0  0  0  0  0  0  0  0  0  0  0  # atno 27276 bound_to 17111
  236.7271  349.1179 -114.9784 LP  0  0  0  0  0  0  0  0  0  0  0  0  # atno 27277 bound_to 17155
  235.3428  349.6719 -113.9621 LP  0  0  0  0  0  0  0  0  0  0  0  0  # atno 27278 bound_to 18142
  235.5403  348.2979 -114.9980 LP  0  0  0  0  0  0  0  0  0  0  0  0  # atno 27279 bound_to 18142
  231.0165  349.0294 -115.8228 LP  0  0  0  0  0  0  0  0  0  0  0  0  # atno 27280 bound_to 18249
  228.6798  349.1878 -119.5817 LP  0  0  0  0  0  0  0  0  0  0  0  0  # atno 27281 bound_to 18252
  230.3501  349.0580 -119.1420 LP  0  0  0  0  0  0  0  0  0  0  0  0  # atno 27282 bound_to 18252
  228.3104  351.1736 -118.1469 LP  0  0  0  0  0  0  0  0  0  0  0  0  # atno 27283 bound_to 18297
  228.5318  354.4674 -118.6774 LP  0  0  0  0  0  0  0  0  0  0  0  0  # atno 27284 bound_to 18300
  230.2485  354.5977 -118.8666 LP  0  0  0  0  0  0  0  0  0  0  0  0  # atno 27285 bound_to 18300
  229.4770  353.2692 -122.1387 LP  0  0  0  0  0  0  0  0  0  0  0  0  # atno 27286 bound_to 18389
  227.8685  355.7160 -122.8055 LP  0  0  0  0  0  0  0  0  0  0  0  0  # atno 27287 bound_to 18392
  227.3161  356.4849 -121.3551 LP  0  0  0  0  0  0  0  0  0  0  0  0  # atno 27288 bound_to 18392
  236.9631  354.5264 -122.9196 LP  0  0  0  0  0  0  0  0  0  0  0  0  # atno 27289 bound_to 18400
  236.5673  352.9530 -123.1053 LP  0  0  0  0  0  0  0  0  0  0  0  0  # atno 27290 bound_to 18400
  229.3207  356.6124 -121.4524 LP  0  0  0  0  0  0  0  0  0  0  0  0  # atno 27291 bound_to 18465
  231.7291  359.1781 -123.6605 LP  0  0  0  0  0  0  0  0  0  0  0  0  # atno 27292 bound_to 18468
  231.6955  358.6864 -122.0000 LP  0  0  0  0  0  0  0  0  0  0  0  0  # atno 27293 bound_to 18468
  233.4499  361.8644 -123.0465 LP  0  0  0  0  0  0  0  0  0  0  0  0  # atno 27294 bound_to 18619
  227.1683  359.4306 -112.4289 LP  0  0  0  0  0  0  0  0  0  0  0  0  # atno 27303 bound_to 7437
  233.7029  347.4169 -113.9639 LP  0  0  0  0  0  0  0  0  0  0  0  0  # atno 27304 bound_to 18209
  229.5524  348.0503 -114.8162 LP  0  0  0  0  0  0  0  0  0  0  0  0  # atno 27305 bound_to 18212
  230.4892  348.8810 -113.6195 LP  0  0  0  0  0  0  0  0  0  0  0  0  # atno 27306 bound_to 18212
  230.0798  361.1497 -112.1729 LP  0  0  0  0  0  0  0  0  0  0  0  0  # atno 27307 bound_to 7379
  230.9245  349.7333 -122.8343 LP  0  0  0  0  0  0  0  0  0  0  0  0  # atno 27308 bound_to 16952
  231.0143  350.9228 -124.0902 LP  0  0  0  0  0  0  0  0  0  0  0  0  # atno 27309 bound_to 16952
  228.8070  358.6394 -123.7117 LP  0  0  0  0  0  0  0  0  0  0  0  0  # atno 27310 bound_to 18525
  231.6064  345.9054 -117.0439 LP  0  0  0  0  0  0  0  0  0  0  0  0  # atno 27311 bound_to 18214
  231.3015  346.4825 -115.5470 LP  0  0  0  0  0  0  0  0  0  0  0  0  # atno 27312 bound_to 18214
  238.7467  348.6494 -117.6804 LP  0  0  0  0  0  0  0  0  0  0  0  0  # atno 27313 bound_to 17114
  239.1854  348.4325 -116.0189 LP  0  0  0  0  0  0  0  0  0  0  0  0  # atno 27314 bound_to 17114
  238.3299  347.7607 -112.7044 LP  0  0  0  0  0  0  0  0  0  0  0  0  # atno 27315 bound_to 17158
  237.4660  349.2313 -112.4024 LP  0  0  0  0  0  0  0  0  0  0  0  0  # atno 27316 bound_to 17158
  236.3536  347.4015 -111.3111 LP  0  0  0  0  0  0  0  0  0  0  0  0  # atno 27317 bound_to 18139
  240.6758  349.9782 -113.7565 LP  0  0  0  0  0  0  0  0  0  0  0  0  # atno 27318 bound_to 17217
  228.2297  346.3846 -113.0672 LP  0  0  0  0  0  0  0  0  0  0  0  0  # atno 27319 bound_to 10067
  232.3036  345.7162 -113.1806 LP  0  0  0  0  0  0  0  0  0  0  0  0  # atno 27320 bound_to 10070
  231.4695  346.9245 -112.2618 LP  0  0  0  0  0  0  0  0  0  0  0  0  # atno 27321 bound_to 10070
  239.0317  353.4184 -123.1286 LP  0  0  0  0  0  0  0  0  0  0  0  0  # atno 27322 bound_to 16892
  240.2739  352.3662 -123.0002 LP  0  0  0  0  0  0  0  0  0  0  0  0  # atno 27323 bound_to 16892
  242.1148  350.0954 -114.4395 LP  0  0  0  0  0  0  0  0  0  0  0  0  # atno 27326 bound_to 11348
  241.4046  351.3196 -115.4380 LP  0  0  0  0  0  0  0  0  0  0  0  0  # atno 27327 bound_to 11348
  244.0103  351.7248 -118.1609 LP  0  0  0  0  0  0  0  0  0  0  0  0  # atno 27333 bound_to 11350
  245.6334  351.5461 -118.1767 LP  0  0  0  0  0  0  0  0  0  0  0  0  # atno 27334 bound_to 11350
  243.1948  349.4598 -116.6911 LP  0  0  0  0  0  0  0  0  0  0  0  0  # atno 27335 bound_to 11395
  240.0750  360.1439 -109.2176 LP  0  0  0  0  0  0  0  0  0  0  0  0  # atno 27336 bound_to 25995
  240.2605  359.1488 -110.4989 LP  0  0  0  0  0  0  0  0  0  0  0  0  # atno 27337 bound_to 25995
  241.9395  349.5830 -109.6308 LP  0  0  0  0  0  0  0  0  0  0  0  0  # atno 27340 bound_to 17321
  233.4817  361.0698 -111.9596 LP  0  0  0  0  0  0  0  0  0  0  0  0  # atno 27341 bound_to 7254
  232.2206  362.2542 -111.8763 LP  0  0  0  0  0  0  0  0  0  0  0  0  # atno 27342 bound_to 7254
  241.4635  349.8987 -111.7871 LP  0  0  0  0  0  0  0  0  0  0  0  0  # atno 27343 bound_to 17265
  244.8093  351.6872 -109.7967 LP  0  0  0  0  0  0  0  0  0  0  0  0  # atno 27344 bound_to 17268
  244.2420  350.8885 -108.3684 LP  0  0  0  0  0  0  0  0  0  0  0  0  # atno 27345 bound_to 17268
  242.5359  353.1780 -105.9781 LP  0  0  0  0  0  0  0  0  0  0  0  0  # atno 27346 bound_to 25921
  240.8065  353.2299 -106.0587 LP  0  0  0  0  0  0  0  0  0  0  0  0  # atno 27347 bound_to 25921

> <Gold.Score>
     Fitness  S(hb_ext) S(vdw_ext)  S(hb_int)    S(int)      intcor
     45.91       1.09      36.06       0.00      -4.76      -0.76

> <Gold.Goldscore.Fitness>
45.9146

> <Gold.Goldscore.Internal.Vdw>
-4.9320

> <Gold.Goldscore.Internal.Torsion>
-0.5952

> <Gold.Goldscore.External.Vdw>
36.0607

> <Gold.Goldscore.Internal.HBond>
0.0000

> <Gold.Goldscore.External.HBond>
1.0935

> <Gold.Goldscore.Internal.Correction>
-0.7650

> <Gold.Goldscore.Hbonds>
donor molecule, donor type, donor heavy atom, donor atom, acceptor molecule, acceptor atom, score
      P1  H 18297 18345       L1    17  0.54
      L1  H     8    22       P1 18300  0.01

> <Gold.Goldscore.Internal.Vdw.Weighted>
-4.9320

> <Gold.Goldscore.Internal.Torsion.Weighted>
-0.5952

> <Gold.Goldscore.External.Vdw.Weighted>
49.5834

> <Gold.Goldscore.Internal.HBond.Weighted>
0.0000

> <Gold.Goldscore.External.HBond.Weighted>
1.0935

> <Gold.Goldscore.Internal.Correction.Weighted>
-0.7650

> <Gold.Rescore>
     Score     S(PLP)   S(hbond)     S(cho)   S(metal)  DE(clash)   DE(tors)     intcor
     31.34     -30.64       1.15       0.00       0.00       0.74       1.01       ----

> <Gold.PLP.Fitness>
31.3395

> <Gold.PLP.PLP>
-30.6408

> <Gold.PLP.part.hbond>
-3.9330

> <Gold.PLP.part.metal>
0.0000

> <Gold.PLP.part.buried>
17.3367

> <Gold.PLP.part.nonpolar>
-43.7558

> <Gold.PLP.part.repulsive>
1.4339

> <Gold.PLP.ligand.clash>
0.7398

> <Gold.PLP.ligand.torsion>
1.0125

> <Gold.PLP.Chemscore.Hbond>
1.1545

> <Gold.PLP.Chemscore.CHOScore>
0.0000

> <Gold.PLP.Chemscore.Metal>
0.0000

> <Gold.Chemscore.Hbonds>
donor molecule, donor type, donor heavy atom, donor atom, acceptor molecule, acceptor atom, score
      P1  H 18297 18345       L1    17  0.96

> <Gold.PLP.Chemscore.Internal.Correction>
   9.000000E+99

