#       Name:                CT1002167954
#       Creating user name   hitesit
#       Creation time:       Sun Apr 16 02:30:51 2023


#       File generated by GOLD software.
#

@<TRIPOS>MOLECULE
CT1002167954|ligand_prepared|mol2|1|dock1
    29    30     1
SMALL
NO_CHARGES


@<TRIPOS>ATOM
      1 C1         239.5110 356.3521 -114.8328 C.3            1 RES1               0.0000
      2 C2         238.1057 355.8916 -115.2709 C.ar           1 RES1               0.0000
      3 C3         239.3057 357.2719 -113.6328 C.2            1 RES1               0.0000
      4 C4         240.2964 355.0839 -114.5174 C.2            1 RES1               0.0000
      5 C5         240.2812 357.1322 -115.9236 C.3            1 RES1               0.0000
      6 C6         237.8942 355.3776 -116.5468 C.ar           1 RES1               0.0000
      7 C7         237.0136 355.9721 -114.4110 C.ar           1 RES1               0.0000
      8 N8         239.6316 356.7857 -112.4010 N.am           1 RES1               0.0000
      9 O9         238.8281 358.3925 -113.7609 O.2            1 RES1               0.0000
     10 N10        240.6827 354.8739 -113.2196 N.am           1 RES1               0.0000
     11 O11        240.5698 354.2564 -115.3781 O.2            1 RES1               0.0000
     12 C12        241.5719 357.7656 -115.4285 C.3            1 RES1               0.0000
     13 C13        236.6370 354.9565 -116.9475 C.ar           1 RES1               0.0000
     14 C14        235.7572 355.5506 -114.8139 C.ar           1 RES1               0.0000
     15 C15        240.3594 355.6522 -112.1416 C.2            1 RES1               0.0000
     16 C16        235.5679 355.0422 -116.0814 C.ar           1 RES1               0.0000
     17 O17        240.6981 355.3686 -110.9962 O.2            1 RES1               0.0000
     18 H18        240.5173 356.4472 -116.7473 H              1 RES1               0.0000
     19 H19        239.6300 357.9211 -116.3198 H              1 RES1               0.0000
     20 H20        238.7230 355.3048 -117.2430 H              1 RES1               0.0000
     21 H21        237.1388 356.3696 -113.4095 H              1 RES1               0.0000
     22 H22        239.3038 357.3137 -111.5984 H              1 RES1               0.0000
     23 H23        241.2654 354.0623 -113.0404 H              1 RES1               0.0000
     24 H24        242.0724 358.3003 -116.2330 H              1 RES1               0.0000
     25 H25        241.3717 358.4718 -114.6254 H              1 RES1               0.0000
     26 H26        242.2537 357.0067 -115.0504 H              1 RES1               0.0000
     27 H27        236.4931 354.5585 -117.9466 H              1 RES1               0.0000
     28 H28        234.9185 355.6205 -114.1291 H              1 RES1               0.0000
     29 H29        234.5833 354.7119 -116.3954 H              1 RES1               0.0000
@<TRIPOS>BOND
    1    1    2 1     
    2    1    3 1     
    3    1    4 1     
    4    1    5 1     
    5    2    6 ar    
    6    2    7 ar    
    7    3    8 1     
    8    3    9 2     
    9    4   10 1     
   10    4   11 2     
   11    5   12 1     
   12    5   18 1     
   13    5   19 1     
   14    6   13 ar    
   15    6   20 1     
   16    7   14 ar    
   17    7   21 1     
   18    8   15 1     
   19    8   22 1     
   20   10   15 1     
   21   10   23 1     
   22   12   24 1     
   23   12   25 1     
   24   12   26 1     
   25   13   16 ar    
   26   13   27 1     
   27   14   16 ar    
   28   14   28 1     
   29   15   17 2     
   30   16   29 1     
@<TRIPOS>SUBSTRUCTURE
      1 RES1           1
@<TRIPOS>SET
DONOR_HYDROGENS      STATIC     ATOMS    <user>   **** ""
2 22 23
ATOM$RED        STATIC     ATOMS    COLORGROUP SYSTEM
2 22 23
@<TRIPOS>COMMENT
> <Gold.Version>
2022.3.0

> <Gold.Id.Protein>
unknown|7ts3_clean|pdb

> <Gold.Protein.RotatedTorsions>
[ 17121 17111 17112 17113 ] final  -52.69 input   42.04 | X-H torsion
[ 17169 17155 17156 17157 ] final  134.67 input  103.88 | X-H torsion
[ 18263 18249 18250 18251 ] final  -12.63 input   32.50 | X-H torsion
[ 18345 18297 18298 18299 ] final -145.44 input   28.05 | X-H torsion
[ 18431 18389 18390 18391 ] final  137.54 input   99.92 | X-H torsion
[ 18439 18400 18399 18397 ] final  -18.92 input   59.97 | X-H torsion
[ 18499 18465 18466 18467 ] final -159.12 input   91.01 | X-H torsion
[ 18649 18619 18620 18621 ] final -167.98 input  125.07 | X-H torsion
[ 7445 7437 7438 7439 ] final   99.63 input   89.33 | X-H torsion
[ 18231 18209 18210 18211 ] final -103.56 input   30.89 | X-H torsion
[ 7393 7379 7380 7381 ] final  104.19 input   98.82 | X-H torsion
[ 18539 18525 18526 18527 ] final  -81.52 input  129.79 | X-H torsion
[ 18235 18214 18213 18210 ] final  -47.86 input   60.00 | X-H torsion
[ 18179 18139 18140 18141 ] final   61.03 input   56.47 | X-H torsion
[ 17229 17217 17218 17219 ] final -108.11 input   53.60 | X-H torsion
[ 10082 10067 10068 10069 ] final -102.89 input   26.25 | X-H torsion
[ 16913 16892 16891 16889 ] final -107.37 input   59.99 | X-H torsion
[ 11371 11350 11349 11346 ] final -129.46 input   59.99 | X-H torsion
[ 11429 11395 11396 11397 ] final  -74.30 input   50.42 | X-H torsion
[ 26033 25995 25994 25992 ] final   83.81 input   60.01 | X-H torsion
[ 17337 17321 17322 17323 ] final  -51.31 input   80.81 | X-H torsion
[ 17281 17265 17266 17267 ] final  -36.05 input   66.93 | X-H torsion
[ 22383 22351 22352 22353 ] final  113.71 input   47.53 | X-H torsion
[ 27271 16988 16987 16986 ] final   28.53 input   -0.00 | X-H torsion
[ 27274 17062 17061 17060 ] final  135.66 input   -0.00 | X-H torsion
[ 27278 18142 18141 18140 ] final    0.43 input    0.00 | X-H torsion
[ 27281 18252 18251 18250 ] final -124.55 input    0.00 | X-H torsion
[ 27284 18300 18299 18298 ] final   85.02 input   -0.00 | X-H torsion
[ 27287 18392 18391 18390 ] final -102.59 input   -0.00 | X-H torsion
[ 27292 18468 18467 18466 ] final -103.21 input   -0.00 | X-H torsion
[ 27305 18212 18211 18210 ] final   67.21 input   -0.00 | X-H torsion
[ 27308 16952 16951 16950 ] final -113.24 input   -0.00 | X-H torsion
[ 27313 17114 17113 17112 ] final   47.92 input   -0.00 | X-H torsion
[ 27315 17158 17157 17156 ] final  157.29 input   -0.00 | X-H torsion
[ 27320 10070 10069 10068 ] final    9.85 input   -0.00 | X-H torsion
[ 27326 11348 11347 11346 ] final   57.72 input   -0.00 | X-H torsion
[ 27341 7254 7253 7252 ] final  -53.26 input    0.00 | X-H torsion
[ 27344 17268 17267 17266 ] final -118.32 input   -0.00 | X-H torsion
[ 27346 25921 25920 25919 ] final  -65.57 input    0.00 | X-H torsion

> <Gold.Protein.ActiveResidues>
 MET341  HIS342  TRP414  ARG419  CYS420  VAL421  GLY422  LEU429  LEU460  SER462 
 ALA463  ILE464  SER482  GLN483  ARG486  TYR567  GLY568  LEU569  PRO570  ALA571 
 VAL572  SER573  ASN574  MET575  PRO588  PHE589  SER590  GLY591  TRP592  TYR593 
 MET594  GLY595  GLU597  ILE598  ARG601  ASP602  ARG608  ILE653  VAL654  TRP683 
 PHE709  GLU710  TYR711  HEM801  H4B802 

> <Gold.Protein.RotatedAtoms>
  230.0941  360.4840 -113.1205 H   0  0  0  0  0  0  0  0  0  0  0  0  # atno 7393 bound_to 7379
  228.4237  358.5297 -113.0545 H   0  0  0  0  0  0  0  0  0  0  0  0  # atno 7445 bound_to 7437
  228.2575  346.4294 -113.0347 H   0  0  0  0  0  0  0  0  0  0  0  0  # atno 10082 bound_to 10067
  245.7486  352.4348 -118.1311 H   0  0  0  0  0  0  0  0  0  0  0  0  # atno 11371 bound_to 11350
  243.1012  349.5150 -116.5708 H   0  0  0  0  0  0  0  0  0  0  0  0  # atno 11429 bound_to 11395
  239.1846  353.4116 -123.2312 H   0  0  0  0  0  0  0  0  0  0  0  0  # atno 16913 bound_to 16892
  236.0262  350.7144 -118.0738 H   0  0  0  0  0  0  0  0  0  0  0  0  # atno 17121 bound_to 17111
  236.3792  350.4621 -115.3740 H   0  0  0  0  0  0  0  0  0  0  0  0  # atno 17169 bound_to 17155
  239.3258  349.4028 -113.4760 H   0  0  0  0  0  0  0  0  0  0  0  0  # atno 17229 bound_to 17217
  241.5157  349.2460 -111.5990 H   0  0  0  0  0  0  0  0  0  0  0  0  # atno 17281 bound_to 17265
  242.7840  349.9495 -109.5905 H   0  0  0  0  0  0  0  0  0  0  0  0  # atno 17337 bound_to 17321
  236.5414  347.8912 -112.1642 H   0  0  0  0  0  0  0  0  0  0  0  0  # atno 18179 bound_to 18139
  233.5048  348.6455 -113.5056 H   0  0  0  0  0  0  0  0  0  0  0  0  # atno 18231 bound_to 18209
  232.1343  345.9995 -115.2443 H   0  0  0  0  0  0  0  0  0  0  0  0  # atno 18235 bound_to 18214
  231.4414  349.5459 -117.1964 H   0  0  0  0  0  0  0  0  0  0  0  0  # atno 18263 bound_to 18249
  229.3503  350.7333 -118.3586 H   0  0  0  0  0  0  0  0  0  0  0  0  # atno 18345 bound_to 18297
  229.9119  353.0954 -121.9326 H   0  0  0  0  0  0  0  0  0  0  0  0  # atno 18431 bound_to 18389
  236.5155  352.8328 -122.8432 H   0  0  0  0  0  0  0  0  0  0  0  0  # atno 18439 bound_to 18400
  229.1585  356.8800 -120.5236 H   0  0  0  0  0  0  0  0  0  0  0  0  # atno 18499 bound_to 18465
  229.6414  358.8004 -123.2409 H   0  0  0  0  0  0  0  0  0  0  0  0  # atno 18539 bound_to 18525
  232.8748  361.3815 -122.1743 H   0  0  0  0  0  0  0  0  0  0  0  0  # atno 18649 bound_to 18619
  225.8255  356.1953 -122.6222 H   0  0  0  0  0  0  0  0  0  0  0  0  # atno 22383 bound_to 22351
  241.2475  360.4466 -110.2747 H   0  0  0  0  0  0  0  0  0  0  0  0  # atno 26033 bound_to 25995
  235.6445  348.4260 -122.3177 LP  0  0  0  0  0  0  0  0  0  0  0  0  # atno 27271 bound_to 16988
  235.9273  349.0935 -120.7446 LP  0  0  0  0  0  0  0  0  0  0  0  0  # atno 27272 bound_to 16988
  233.6734  349.1141 -117.4369 LP  0  0  0  0  0  0  0  0  0  0  0  0  # atno 27274 bound_to 17062
  233.2286  350.7776 -117.6230 LP  0  0  0  0  0  0  0  0  0  0  0  0  # atno 27275 bound_to 17062
  235.9083  349.3848 -119.1959 LP  0  0  0  0  0  0  0  0  0  0  0  0  # atno 27276 bound_to 17111
  237.2935  349.0253 -115.7633 LP  0  0  0  0  0  0  0  0  0  0  0  0  # atno 27277 bound_to 17155
  235.9976  348.7888 -113.8457 LP  0  0  0  0  0  0  0  0  0  0  0  0  # atno 27278 bound_to 18142
  234.8855  349.1810 -115.1143 LP  0  0  0  0  0  0  0  0  0  0  0  0  # atno 27279 bound_to 18142
  231.1547  349.7870 -115.4853 LP  0  0  0  0  0  0  0  0  0  0  0  0  # atno 27280 bound_to 18249
  230.1226  349.5788 -119.7777 LP  0  0  0  0  0  0  0  0  0  0  0  0  # atno 27281 bound_to 18252
  228.9073  348.6670 -118.9459 LP  0  0  0  0  0  0  0  0  0  0  0  0  # atno 27282 bound_to 18252
  228.8325  352.3387 -117.8997 LP  0  0  0  0  0  0  0  0  0  0  0  0  # atno 27283 bound_to 18297
  230.1982  354.2647 -118.6130 LP  0  0  0  0  0  0  0  0  0  0  0  0  # atno 27284 bound_to 18300
  228.5821  354.8005 -118.9310 LP  0  0  0  0  0  0  0  0  0  0  0  0  # atno 27285 bound_to 18300
  228.9228  353.7869 -120.6698 LP  0  0  0  0  0  0  0  0  0  0  0  0  # atno 27286 bound_to 18389
  227.7742  356.4913 -122.8314 LP  0  0  0  0  0  0  0  0  0  0  0  0  # atno 27287 bound_to 18392
  227.4104  355.7096 -121.3292 LP  0  0  0  0  0  0  0  0  0  0  0  0  # atno 27288 bound_to 18392
  236.7101  353.8909 -121.6229 LP  0  0  0  0  0  0  0  0  0  0  0  0  # atno 27289 bound_to 18400
  236.9393  354.3697 -123.1672 LP  0  0  0  0  0  0  0  0  0  0  0  0  # atno 27290 bound_to 18400
  230.6339  357.1714 -121.4179 LP  0  0  0  0  0  0  0  0  0  0  0  0  # atno 27291 bound_to 18465
  231.8024  359.7875 -122.7277 LP  0  0  0  0  0  0  0  0  0  0  0  0  # atno 27292 bound_to 18468
  231.6222  358.0770 -122.9328 LP  0  0  0  0  0  0  0  0  0  0  0  0  # atno 27293 bound_to 18468
  233.1350  360.8709 -123.8246 LP  0  0  0  0  0  0  0  0  0  0  0  0  # atno 27294 bound_to 18619
  227.0778  359.6342 -112.8980 LP  0  0  0  0  0  0  0  0  0  0  0  0  # atno 27303 bound_to 7437
  232.6267  347.1571 -113.7692 LP  0  0  0  0  0  0  0  0  0  0  0  0  # atno 27304 bound_to 18209
  230.4630  348.9197 -113.6276 LP  0  0  0  0  0  0  0  0  0  0  0  0  # atno 27305 bound_to 18212
  229.5787  348.0116 -114.8080 LP  0  0  0  0  0  0  0  0  0  0  0  0  # atno 27306 bound_to 18212
  229.4858  360.2110 -111.5066 LP  0  0  0  0  0  0  0  0  0  0  0  0  # atno 27307 bound_to 7379
  231.5820  350.8785 -123.1944 LP  0  0  0  0  0  0  0  0  0  0  0  0  # atno 27308 bound_to 16952
  230.3569  349.7776 -123.7301 LP  0  0  0  0  0  0  0  0  0  0  0  0  # atno 27309 bound_to 16952
  228.4692  360.0349 -123.6274 LP  0  0  0  0  0  0  0  0  0  0  0  0  # atno 27310 bound_to 18525
  232.3237  345.4881 -116.7779 LP  0  0  0  0  0  0  0  0  0  0  0  0  # atno 27311 bound_to 18214
  231.0571  346.4399 -116.3823 LP  0  0  0  0  0  0  0  0  0  0  0  0  # atno 27312 bound_to 18214
  238.8042  348.7881 -117.6637 LP  0  0  0  0  0  0  0  0  0  0  0  0  # atno 27313 bound_to 17114
  239.1279  348.2938 -116.0355 LP  0  0  0  0  0  0  0  0  0  0  0  0  # atno 27314 bound_to 17114
  238.4400  347.8206 -112.5601 LP  0  0  0  0  0  0  0  0  0  0  0  0  # atno 27315 bound_to 17158
  237.3559  349.1714 -112.5467 LP  0  0  0  0  0  0  0  0  0  0  0  0  # atno 27316 bound_to 17158
  236.1281  346.1976 -112.0144 LP  0  0  0  0  0  0  0  0  0  0  0  0  # atno 27317 bound_to 18139
  240.7012  349.5525 -114.5445 LP  0  0  0  0  0  0  0  0  0  0  0  0  # atno 27318 bound_to 17217
  229.3891  346.1024 -114.3218 LP  0  0  0  0  0  0  0  0  0  0  0  0  # atno 27319 bound_to 10067
  231.2555  346.5543 -113.2662 LP  0  0  0  0  0  0  0  0  0  0  0  0  # atno 27320 bound_to 10070
  232.5176  346.0863 -112.1762 LP  0  0  0  0  0  0  0  0  0  0  0  0  # atno 27321 bound_to 10070
  240.2528  352.2392 -122.8679 LP  0  0  0  0  0  0  0  0  0  0  0  0  # atno 27322 bound_to 16892
  238.8565  352.3637 -122.0304 LP  0  0  0  0  0  0  0  0  0  0  0  0  # atno 27323 bound_to 16892
  242.0235  351.5311 -114.8918 LP  0  0  0  0  0  0  0  0  0  0  0  0  # atno 27326 bound_to 11348
  241.4959  349.8840 -114.9857 LP  0  0  0  0  0  0  0  0  0  0  0  0  # atno 27327 bound_to 11348
  244.1434  352.6990 -118.1133 LP  0  0  0  0  0  0  0  0  0  0  0  0  # atno 27333 bound_to 11350
  244.7221  351.1740 -118.1912 LP  0  0  0  0  0  0  0  0  0  0  0  0  # atno 27334 bound_to 11350
  243.0400  350.6576 -117.8992 LP  0  0  0  0  0  0  0  0  0  0  0  0  # atno 27335 bound_to 11395
  240.0519  360.1136 -109.2227 LP  0  0  0  0  0  0  0  0  0  0  0  0  # atno 27336 bound_to 25995
  240.2886  359.1561 -110.5242 LP  0  0  0  0  0  0  0  0  0  0  0  0  # atno 27337 bound_to 25995
  241.4521  350.7353 -110.4012 LP  0  0  0  0  0  0  0  0  0  0  0  0  # atno 27340 bound_to 17321
  232.7533  362.5008 -111.7259 LP  0  0  0  0  0  0  0  0  0  0  0  0  # atno 27341 bound_to 7254
  232.9491  360.8233 -112.1100 LP  0  0  0  0  0  0  0  0  0  0  0  0  # atno 27342 bound_to 7254
  242.3609  349.6231 -113.0775 LP  0  0  0  0  0  0  0  0  0  0  0  0  # atno 27343 bound_to 17265
  244.3689  350.7404 -108.4301 LP  0  0  0  0  0  0  0  0  0  0  0  0  # atno 27344 bound_to 17268
  244.6824  351.8353 -109.7350 LP  0  0  0  0  0  0  0  0  0  0  0  0  # atno 27345 bound_to 17268
  241.8952  352.7713 -105.3025 LP  0  0  0  0  0  0  0  0  0  0  0  0  # atno 27346 bound_to 25921
  241.4472  353.6367 -106.7344 LP  0  0  0  0  0  0  0  0  0  0  0  0  # atno 27347 bound_to 25921

> <Gold.Score>
     Fitness  S(hb_ext) S(vdw_ext)  S(hb_int)    S(int)      intcor
     42.08      11.44      23.06       0.00      -1.07      -0.77

> <Gold.Goldscore.Fitness>
42.0799

> <Gold.Goldscore.Internal.Vdw>
-1.3482

> <Gold.Goldscore.Internal.Torsion>
-0.4938

> <Gold.Goldscore.External.Vdw>
23.0620

> <Gold.Goldscore.Internal.HBond>
0.0000

> <Gold.Goldscore.External.HBond>
11.4429

> <Gold.Goldscore.Internal.Correction>
-0.7686

> <Gold.Goldscore.Hbonds>
donor molecule, donor type, donor heavy atom, donor atom, acceptor molecule, acceptor atom, score
      L1  H     8    22       P1 26916  0.99
      L1  H    10    23       P1 17272  0.91

> <Gold.Goldscore.Internal.Vdw.Weighted>
-1.3482

> <Gold.Goldscore.Internal.Torsion.Weighted>
-0.4938

> <Gold.Goldscore.External.Vdw.Weighted>
31.7103

> <Gold.Goldscore.Internal.HBond.Weighted>
0.0000

> <Gold.Goldscore.External.HBond.Weighted>
11.4429

> <Gold.Goldscore.Internal.Correction.Weighted>
-0.7686

> <Gold.Rescore>
     Score     S(PLP)   S(hbond)     S(cho)   S(metal)  DE(clash)   DE(tors)     intcor
     31.75     -32.40       0.39       0.00       0.00       0.00       0.90       ----

> <Gold.PLP.Fitness>
31.7517

> <Gold.PLP.PLP>
-32.3999

> <Gold.PLP.part.hbond>
-1.6047

> <Gold.PLP.part.metal>
0.0000

> <Gold.PLP.part.buried>
-4.9540

> <Gold.PLP.part.nonpolar>
-27.7468

> <Gold.PLP.part.repulsive>
2.9877

> <Gold.PLP.ligand.clash>
0.0000

> <Gold.PLP.ligand.torsion>
0.9017

> <Gold.PLP.Chemscore.Hbond>
0.3851

> <Gold.PLP.Chemscore.CHOScore>
0.0000

> <Gold.PLP.Chemscore.Metal>
0.0000

> <Gold.Chemscore.Hbonds>
donor molecule, donor type, donor heavy atom, donor atom, acceptor molecule, acceptor atom, score
      L1  H     8    22       P1 26916  1.00
      L1  H    10    23       P1 17272  0.34

> <Gold.PLP.Chemscore.Internal.Correction>
   9.000000E+99

