#       Name:                CT1002167954
#       Creating user name   hitesit
#       Creation time:       Sun Apr 16 02:30:57 2023


#       File generated by GOLD software.
#

@<TRIPOS>MOLECULE
CT1002167954|ligand_prepared|mol2|1|dock9
    29    30     1
SMALL
NO_CHARGES


@<TRIPOS>ATOM
      1 C1         240.6195 358.3724 -118.0126 C.3            1 RES1               0.0000
      2 C2         239.3667 357.5390 -117.6740 C.ar           1 RES1               0.0000
      3 C3         240.2370 359.8322 -117.7868 C.2            1 RES1               0.0000
      4 C4         241.7273 357.8702 -117.0932 C.2            1 RES1               0.0000
      5 C5         241.1012 358.2111 -119.4733 C.3            1 RES1               0.0000
      6 C6         239.2040 356.9872 -116.4068 C.ar           1 RES1               0.0000
      7 C7         238.3657 357.3160 -118.6158 C.ar           1 RES1               0.0000
      8 N8         240.7399 360.4535 -116.6819 N.am           1 RES1               0.0000
      9 O9         239.4739 360.4174 -118.5454 O.2            1 RES1               0.0000
     10 N10        242.2185 358.7332 -116.1489 N.am           1 RES1               0.0000
     11 O11        242.1677 356.7296 -117.1670 O.2            1 RES1               0.0000
     12 C12        242.4625 358.8330 -119.7422 C.3            1 RES1               0.0000
     13 C13        238.0799 356.2419 -116.0915 C.ar           1 RES1               0.0000
     14 C14        237.2425 356.5703 -118.2984 C.ar           1 RES1               0.0000
     15 C15        241.7537 359.9920 -115.8814 C.2            1 RES1               0.0000
     16 C16        237.0983 356.0333 -117.0368 C.ar           1 RES1               0.0000
     17 O17        242.2112 360.6876 -114.9791 O.2            1 RES1               0.0000
     18 H18        241.1477 357.1418 -119.7137 H              1 RES1               0.0000
     19 H19        240.3638 358.6732 -120.1413 H              1 RES1               0.0000
     20 H20        239.9671 357.1386 -115.6507 H              1 RES1               0.0000
     21 H21        238.4584 357.7279 -119.6150 H              1 RES1               0.0000
     22 H22        240.3237 361.3436 -116.4272 H              1 RES1               0.0000
     23 H23        243.0034 358.4070 -115.5941 H              1 RES1               0.0000
     24 H24        242.7527 358.6915 -120.7812 H              1 RES1               0.0000
     25 H25        242.4457 359.9015 -119.5376 H              1 RES1               0.0000
     26 H26        243.2250 358.3792 -119.1125 H              1 RES1               0.0000
     27 H27        237.9718 355.8204 -115.0976 H              1 RES1               0.0000
     28 H28        236.4728 356.4081 -119.0457 H              1 RES1               0.0000
     29 H29        236.2177 355.4498 -116.7895 H              1 RES1               0.0000
@<TRIPOS>BOND
    1    1    2 1     
    2    1    3 1     
    3    1    4 1     
    4    1    5 1     
    5    2    6 ar    
    6    2    7 ar    
    7    3    8 1     
    8    3    9 2     
    9    4   10 1     
   10    4   11 2     
   11    5   12 1     
   12    5   18 1     
   13    5   19 1     
   14    6   13 ar    
   15    6   20 1     
   16    7   14 ar    
   17    7   21 1     
   18    8   15 1     
   19    8   22 1     
   20   10   15 1     
   21   10   23 1     
   22   12   24 1     
   23   12   25 1     
   24   12   26 1     
   25   13   16 ar    
   26   13   27 1     
   27   14   16 ar    
   28   14   28 1     
   29   15   17 2     
   30   16   29 1     
@<TRIPOS>SUBSTRUCTURE
      1 RES1           1
@<TRIPOS>SET
DONOR_HYDROGENS      STATIC     ATOMS    <user>   **** ""
2 22 23
ATOM$RED        STATIC     ATOMS    COLORGROUP SYSTEM
2 22 23
@<TRIPOS>COMMENT
> <Gold.Version>
2022.3.0

> <Gold.Id.Protein>
unknown|7ts3_clean|pdb

> <Gold.Protein.RotatedTorsions>
[ 17121 17111 17112 17113 ] final -123.70 input   42.04 | X-H torsion
[ 17169 17155 17156 17157 ] final  -46.25 input  103.88 | X-H torsion
[ 18263 18249 18250 18251 ] final  -46.58 input   32.50 | X-H torsion
[ 18345 18297 18298 18299 ] final -145.63 input   28.05 | X-H torsion
[ 18431 18389 18390 18391 ] final  -23.84 input   99.92 | X-H torsion
[ 18439 18400 18399 18397 ] final  -69.10 input   59.97 | X-H torsion
[ 18499 18465 18466 18467 ] final  162.96 input   91.01 | X-H torsion
[ 18649 18619 18620 18621 ] final   29.05 input  125.07 | X-H torsion
[ 7445 7437 7438 7439 ] final    1.60 input   89.33 | X-H torsion
[ 18231 18209 18210 18211 ] final  -23.86 input   30.89 | X-H torsion
[ 7393 7379 7380 7381 ] final -100.76 input   98.82 | X-H torsion
[ 18539 18525 18526 18527 ] final   76.87 input  129.79 | X-H torsion
[ 18235 18214 18213 18210 ] final  -53.62 input   60.00 | X-H torsion
[ 18179 18139 18140 18141 ] final  102.05 input   56.47 | X-H torsion
[ 17229 17217 17218 17219 ] final  132.19 input   53.60 | X-H torsion
[ 10082 10067 10068 10069 ] final -141.05 input   26.25 | X-H torsion
[ 16913 16892 16891 16889 ] final  112.31 input   59.99 | X-H torsion
[ 11371 11350 11349 11346 ] final  -20.90 input   59.99 | X-H torsion
[ 11429 11395 11396 11397 ] final  169.86 input   50.42 | X-H torsion
[ 26033 25995 25994 25992 ] final  -35.70 input   60.01 | X-H torsion
[ 17337 17321 17322 17323 ] final  -82.89 input   80.81 | X-H torsion
[ 17281 17265 17266 17267 ] final  -93.18 input   66.93 | X-H torsion
[ 22383 22351 22352 22353 ] final  107.18 input   47.53 | X-H torsion
[ 27271 16988 16987 16986 ] final  165.09 input   -0.00 | X-H torsion
[ 27274 17062 17061 17060 ] final  -73.58 input   -0.00 | X-H torsion
[ 27278 18142 18141 18140 ] final -160.40 input    0.00 | X-H torsion
[ 27281 18252 18251 18250 ] final   31.55 input    0.00 | X-H torsion
[ 27284 18300 18299 18298 ] final  -34.66 input   -0.00 | X-H torsion
[ 27287 18392 18391 18390 ] final  179.31 input   -0.00 | X-H torsion
[ 27292 18468 18467 18466 ] final   37.99 input   -0.00 | X-H torsion
[ 27305 18212 18211 18210 ] final  -81.94 input   -0.00 | X-H torsion
[ 27308 16952 16951 16950 ] final   32.13 input   -0.00 | X-H torsion
[ 27313 17114 17113 17112 ] final  -43.89 input   -0.00 | X-H torsion
[ 27315 17158 17157 17156 ] final  -52.56 input   -0.00 | X-H torsion
[ 27320 10070 10069 10068 ] final  117.44 input   -0.00 | X-H torsion
[ 27326 11348 11347 11346 ] final  102.59 input   -0.00 | X-H torsion
[ 27341 7254 7253 7252 ] final  -81.01 input    0.00 | X-H torsion
[ 27344 17268 17267 17266 ] final  -75.34 input   -0.00 | X-H torsion
[ 27346 25921 25920 25919 ] final -153.36 input    0.00 | X-H torsion

> <Gold.Protein.ActiveResidues>
 MET341  HIS342  TRP414  ARG419  CYS420  VAL421  GLY422  LEU429  LEU460  SER462 
 ALA463  ILE464  SER482  GLN483  ARG486  TYR567  GLY568  LEU569  PRO570  ALA571 
 VAL572  SER573  ASN574  MET575  PRO588  PHE589  SER590  GLY591  TRP592  TYR593 
 MET594  GLY595  GLU597  ILE598  ARG601  ASP602  ARG608  ILE653  VAL654  TRP683 
 PHE709  GLU710  TYR711  HEM801  H4B802 

> <Gold.Protein.RotatedAtoms>
  229.6245  360.5599 -111.4675 H   0  0  0  0  0  0  0  0  0  0  0  0  # atno 7393 bound_to 7379
  227.5900  358.9767 -112.1106 H   0  0  0  0  0  0  0  0  0  0  0  0  # atno 7445 bound_to 7437
  228.0136  346.0727 -113.4130 H   0  0  0  0  0  0  0  0  0  0  0  0  # atno 10082 bound_to 10067
  244.9095  351.1695 -118.1902 H   0  0  0  0  0  0  0  0  0  0  0  0  # atno 11371 bound_to 11350
  242.6941  350.8906 -117.0653 H   0  0  0  0  0  0  0  0  0  0  0  0  # atno 11429 bound_to 11395
  240.1298  352.0573 -122.6197 H   0  0  0  0  0  0  0  0  0  0  0  0  # atno 16913 bound_to 16892
  235.1627  350.2549 -118.3581 H   0  0  0  0  0  0  0  0  0  0  0  0  # atno 17121 bound_to 17111
  237.3133  349.0175 -115.7763 H   0  0  0  0  0  0  0  0  0  0  0  0  # atno 17169 bound_to 17155
  240.0270  349.0454 -114.7889 H   0  0  0  0  0  0  0  0  0  0  0  0  # atno 17229 bound_to 17217
  241.9365  348.6330 -111.9883 H   0  0  0  0  0  0  0  0  0  0  0  0  # atno 17281 bound_to 17265
  242.9609  350.3600 -109.7643 H   0  0  0  0  0  0  0  0  0  0  0  0  # atno 17337 bound_to 17321
  236.4443  347.7423 -111.5675 H   0  0  0  0  0  0  0  0  0  0  0  0  # atno 18179 bound_to 18139
  232.4158  348.3980 -113.3033 H   0  0  0  0  0  0  0  0  0  0  0  0  # atno 18231 bound_to 18209
  232.2057  345.9446 -115.2715 H   0  0  0  0  0  0  0  0  0  0  0  0  # atno 18235 bound_to 18214
  231.2705  349.0924 -117.0055 H   0  0  0  0  0  0  0  0  0  0  0  0  # atno 18263 bound_to 18249
  229.3474  350.7324 -118.3586 H   0  0  0  0  0  0  0  0  0  0  0  0  # atno 18345 bound_to 18297
  228.7409  353.8395 -120.8802 H   0  0  0  0  0  0  0  0  0  0  0  0  # atno 18431 bound_to 18389
  236.4880  352.9326 -122.0564 H   0  0  0  0  0  0  0  0  0  0  0  0  # atno 18439 bound_to 18400
  229.5341  357.1535 -120.1815 H   0  0  0  0  0  0  0  0  0  0  0  0  # atno 18499 bound_to 18465
  228.6876  360.2239 -123.4727 H   0  0  0  0  0  0  0  0  0  0  0  0  # atno 18539 bound_to 18525
  232.9935  360.6631 -123.7608 H   0  0  0  0  0  0  0  0  0  0  0  0  # atno 18649 bound_to 18619
  225.9048  356.2586 -122.6242 H   0  0  0  0  0  0  0  0  0  0  0  0  # atno 22383 bound_to 22351
  240.0618  360.1169 -109.2259 H   0  0  0  0  0  0  0  0  0  0  0  0  # atno 26033 bound_to 25995
  236.0294  349.5252 -121.2073 LP  0  0  0  0  0  0  0  0  0  0  0  0  # atno 27271 bound_to 16988
  235.5425  347.9943 -121.8550 LP  0  0  0  0  0  0  0  0  0  0  0  0  # atno 27272 bound_to 16988
  233.4901  350.7718 -117.2726 LP  0  0  0  0  0  0  0  0  0  0  0  0  # atno 27274 bound_to 17062
  233.4119  349.1199 -117.7873 LP  0  0  0  0  0  0  0  0  0  0  0  0  # atno 27275 bound_to 17062
  236.7619  349.8389 -118.9149 LP  0  0  0  0  0  0  0  0  0  0  0  0  # atno 27276 bound_to 17111
  236.3804  350.4375 -115.3700 LP  0  0  0  0  0  0  0  0  0  0  0  0  # atno 27277 bound_to 17155
  234.8489  349.4119 -114.9453 LP  0  0  0  0  0  0  0  0  0  0  0  0  # atno 27278 bound_to 18142
  236.0342  348.5579 -114.0147 LP  0  0  0  0  0  0  0  0  0  0  0  0  # atno 27279 bound_to 18142
  231.3194  350.2238 -115.6692 LP  0  0  0  0  0  0  0  0  0  0  0  0  # atno 27280 bound_to 18249
  229.2063  348.5644 -118.7763 LP  0  0  0  0  0  0  0  0  0  0  0  0  # atno 27281 bound_to 18252
  229.8236  349.6814 -119.9473 LP  0  0  0  0  0  0  0  0  0  0  0  0  # atno 27282 bound_to 18252
  228.8353  352.3396 -117.8997 LP  0  0  0  0  0  0  0  0  0  0  0  0  # atno 27283 bound_to 18297
  228.7213  354.1108 -118.4188 LP  0  0  0  0  0  0  0  0  0  0  0  0  # atno 27284 bound_to 18300
  230.0590  354.9543 -119.1252 LP  0  0  0  0  0  0  0  0  0  0  0  0  # atno 27285 bound_to 18300
  230.0702  353.0579 -121.7008 LP  0  0  0  0  0  0  0  0  0  0  0  0  # atno 27286 bound_to 18389
  227.4252  356.9298 -121.8950 LP  0  0  0  0  0  0  0  0  0  0  0  0  # atno 27287 bound_to 18392
  227.7594  355.2712 -122.2656 LP  0  0  0  0  0  0  0  0  0  0  0  0  # atno 27288 bound_to 18392
  236.9018  354.5053 -122.0973 LP  0  0  0  0  0  0  0  0  0  0  0  0  # atno 27289 bound_to 18400
  236.7753  353.6548 -123.4855 LP  0  0  0  0  0  0  0  0  0  0  0  0  # atno 27290 bound_to 18400
  230.2695  356.9060 -121.7498 LP  0  0  0  0  0  0  0  0  0  0  0  0  # atno 27291 bound_to 18465
  231.6411  358.2013 -122.3713 LP  0  0  0  0  0  0  0  0  0  0  0  0  # atno 27292 bound_to 18468
  231.7835  359.6632 -123.2892 LP  0  0  0  0  0  0  0  0  0  0  0  0  # atno 27293 bound_to 18468
  233.0187  361.5745 -122.2706 LP  0  0  0  0  0  0  0  0  0  0  0  0  # atno 27294 bound_to 18619
  227.8906  359.1985 -113.8182 LP  0  0  0  0  0  0  0  0  0  0  0  0  # atno 27303 bound_to 7437
  233.6874  347.3982 -113.9663 LP  0  0  0  0  0  0  0  0  0  0  0  0  # atno 27304 bound_to 18209
  229.8930  347.7201 -114.6395 LP  0  0  0  0  0  0  0  0  0  0  0  0  # atno 27305 bound_to 18212
  230.1487  349.2112 -113.7961 LP  0  0  0  0  0  0  0  0  0  0  0  0  # atno 27306 bound_to 18212
  229.9471  360.1364 -113.1305 LP  0  0  0  0  0  0  0  0  0  0  0  0  # atno 27307 bound_to 7379
  230.4023  350.1436 -124.0902 LP  0  0  0  0  0  0  0  0  0  0  0  0  # atno 27308 bound_to 16952
  231.5366  350.5124 -122.8343 LP  0  0  0  0  0  0  0  0  0  0  0  0  # atno 27309 bound_to 16952
  229.4071  358.6351 -123.3995 LP  0  0  0  0  0  0  0  0  0  0  0  0  # atno 27310 bound_to 18525
  232.2588  345.5162 -116.8410 LP  0  0  0  0  0  0  0  0  0  0  0  0  # atno 27311 bound_to 18214
  231.0501  346.4670 -116.2918 LP  0  0  0  0  0  0  0  0  0  0  0  0  # atno 27312 bound_to 18214
  238.6266  347.7569 -116.9911 LP  0  0  0  0  0  0  0  0  0  0  0  0  # atno 27313 bound_to 17114
  239.3055  349.3250 -116.7082 LP  0  0  0  0  0  0  0  0  0  0  0  0  # atno 27314 bound_to 17114
  237.6477  349.2550 -112.2197 LP  0  0  0  0  0  0  0  0  0  0  0  0  # atno 27315 bound_to 17158
  238.1482  347.7370 -112.8871 LP  0  0  0  0  0  0  0  0  0  0  0  0  # atno 27316 bound_to 17158
  236.2222  346.3418 -112.5926 LP  0  0  0  0  0  0  0  0  0  0  0  0  # atno 27317 bound_to 18139
  240.0176  349.9010 -113.2646 LP  0  0  0  0  0  0  0  0  0  0  0  0  # atno 27318 bound_to 17217
  229.6296  346.4542 -113.9488 LP  0  0  0  0  0  0  0  0  0  0  0  0  # atno 27319 bound_to 10067
  231.7974  346.7912 -111.9999 LP  0  0  0  0  0  0  0  0  0  0  0  0  # atno 27320 bound_to 10070
  231.9757  345.8495 -113.4425 LP  0  0  0  0  0  0  0  0  0  0  0  0  # atno 27321 bound_to 10070
  238.6781  352.6193 -122.1458 LP  0  0  0  0  0  0  0  0  0  0  0  0  # atno 27322 bound_to 16892
  239.4795  353.3474 -123.3683 LP  0  0  0  0  0  0  0  0  0  0  0  0  # atno 27323 bound_to 16892
  241.5420  351.4453 -115.3366 LP  0  0  0  0  0  0  0  0  0  0  0  0  # atno 27326 bound_to 11348
  241.9773  349.9697 -114.5409 LP  0  0  0  0  0  0  0  0  0  0  0  0  # atno 27327 bound_to 11348
  245.6714  352.6055 -118.1244 LP  0  0  0  0  0  0  0  0  0  0  0  0  # atno 27333 bound_to 11350
  244.0396  352.5426 -118.1206 LP  0  0  0  0  0  0  0  0  0  0  0  0  # atno 27334 bound_to 11350
  243.4298  349.3405 -117.4257 LP  0  0  0  0  0  0  0  0  0  0  0  0  # atno 27335 bound_to 11395
  240.2826  359.1545 -110.5189 LP  0  0  0  0  0  0  0  0  0  0  0  0  # atno 27336 bound_to 25995
  241.2523  360.4473 -110.2845 LP  0  0  0  0  0  0  0  0  0  0  0  0  # atno 27337 bound_to 25995
  241.2785  350.3324 -110.2307 LP  0  0  0  0  0  0  0  0  0  0  0  0  # atno 27340 bound_to 17321
  232.3691  362.3750 -111.8215 LP  0  0  0  0  0  0  0  0  0  0  0  0  # atno 27341 bound_to 7254
  233.3332  360.9491 -112.0145 LP  0  0  0  0  0  0  0  0  0  0  0  0  # atno 27342 bound_to 7254
  241.9454  350.2285 -112.6931 LP  0  0  0  0  0  0  0  0  0  0  0  0  # atno 27343 bound_to 17265
  244.7925  350.5013 -108.8374 LP  0  0  0  0  0  0  0  0  0  0  0  0  # atno 27344 bound_to 17268
  244.2588  352.0744 -109.3276 LP  0  0  0  0  0  0  0  0  0  0  0  0  # atno 27345 bound_to 17268
  242.5158  353.3018 -106.1831 LP  0  0  0  0  0  0  0  0  0  0  0  0  # atno 27346 bound_to 25921
  240.8266  353.1062 -105.8538 LP  0  0  0  0  0  0  0  0  0  0  0  0  # atno 27347 bound_to 25921

> <Gold.Score>
     Fitness  S(hb_ext) S(vdw_ext)  S(hb_int)    S(int)      intcor
     25.80       6.00      14.96       0.00      -0.78      -0.76

> <Gold.Goldscore.Fitness>
25.7974

> <Gold.Goldscore.Internal.Vdw>
-1.0097

> <Gold.Goldscore.Internal.Torsion>
-0.5253

> <Gold.Goldscore.External.Vdw>
14.9628

> <Gold.Goldscore.Internal.HBond>
0.0000

> <Gold.Goldscore.External.HBond>
6.0000

> <Gold.Goldscore.Internal.Correction>
-0.7585

> <Gold.Goldscore.Hbonds>
donor molecule, donor type, donor heavy atom, donor atom, acceptor molecule, acceptor atom, score
      L1  H     8    22       P1 27146  1.00

> <Gold.Goldscore.Internal.Vdw.Weighted>
-1.0097

> <Gold.Goldscore.Internal.Torsion.Weighted>
-0.5253

> <Gold.Goldscore.External.Vdw.Weighted>
20.5739

> <Gold.Goldscore.Internal.HBond.Weighted>
0.0000

> <Gold.Goldscore.External.HBond.Weighted>
6.0000

> <Gold.Goldscore.Internal.Correction.Weighted>
-0.7585

> <Gold.Rescore>
     Score     S(PLP)   S(hbond)     S(cho)   S(metal)  DE(clash)   DE(tors)     intcor
     18.91     -21.18       0.00       0.00       0.00       1.80       0.23       ----

> <Gold.PLP.Fitness>
18.9088

> <Gold.PLP.PLP>
-21.1754

> <Gold.PLP.part.hbond>
-0.8835

> <Gold.PLP.part.metal>
0.0000

> <Gold.PLP.part.buried>
-4.9458

> <Gold.PLP.part.nonpolar>
-15.4955

> <Gold.PLP.part.repulsive>
0.2873

> <Gold.PLP.ligand.clash>
1.8036

> <Gold.PLP.ligand.torsion>
0.2315

> <Gold.PLP.Chemscore.Hbond>
0.0000

> <Gold.PLP.Chemscore.CHOScore>
0.0000

> <Gold.PLP.Chemscore.Metal>
0.0000

> <Gold.Chemscore.Hbonds>
donor molecule, donor type, donor heavy atom, donor atom, acceptor molecule, acceptor atom, score
      L1  H     8    22       P1 27146  1.00

> <Gold.PLP.Chemscore.Internal.Correction>
   9.000000E+99

