#       Name:                CT1002167954
#       Creating user name   hitesit
#       Creation time:       Sun Apr 16 02:30:55 2023


#       File generated by GOLD software.
#

@<TRIPOS>MOLECULE
CT1002167954|ligand_prepared|mol2|1|dock6
    29    30     1
SMALL
NO_CHARGES


@<TRIPOS>ATOM
      1 C1         238.9361 357.8426 -119.4742 C.3            1 RES1               0.0000
      2 C2         238.3091 357.0786 -118.2901 C.ar           1 RES1               0.0000
      3 C3         240.4363 357.5707 -119.4132 C.2            1 RES1               0.0000
      4 C4         238.2581 357.3109 -120.7320 C.2            1 RES1               0.0000
      5 C5         238.7114 359.3717 -119.4203 C.3            1 RES1               0.0000
      6 C6         239.0814 356.2231 -117.5101 C.ar           1 RES1               0.0000
      7 C7         236.9628 357.2208 -117.9646 C.ar           1 RES1               0.0000
      8 N8         240.9620 356.7180 -120.3385 N.am           1 RES1               0.0000
      9 O9         241.1406 358.0661 -118.5420 O.2            1 RES1               0.0000
     10 N10        239.0255 356.6169 -121.6306 N.am           1 RES1               0.0000
     11 O11        237.0628 357.4722 -120.9452 O.2            1 RES1               0.0000
     12 C12        239.3680 360.1285 -120.5641 C.3            1 RES1               0.0000
     13 C13        238.5286 355.5369 -116.4415 C.ar           1 RES1               0.0000
     14 C14        236.4120 356.5334 -116.8957 C.ar           1 RES1               0.0000
     15 C15        240.3400 356.2699 -121.4761 C.2            1 RES1               0.0000
     16 C16        237.1939 355.6919 -116.1333 C.ar           1 RES1               0.0000
     17 O17        240.9477 355.5971 -122.3039 O.2            1 RES1               0.0000
     18 H18        237.6328 359.5709 -119.4382 H              1 RES1               0.0000
     19 H19        239.1072 359.7536 -118.4712 H              1 RES1               0.0000
     20 H20        240.1331 356.0866 -117.7390 H              1 RES1               0.0000
     21 H21        236.3284 357.8766 -118.5511 H              1 RES1               0.0000
     22 H22        241.9049 356.3823 -120.1691 H              1 RES1               0.0000
     23 H23        238.5751 356.3328 -122.4947 H              1 RES1               0.0000
     24 H24        239.1795 361.1966 -120.4784 H              1 RES1               0.0000
     25 H25        240.4449 359.9732 -120.5615 H              1 RES1               0.0000
     26 H26        238.9793 359.7917 -121.5229 H              1 RES1               0.0000
     27 H27        239.1479 354.8747 -115.8455 H              1 RES1               0.0000
     28 H28        235.3609 356.6580 -116.6571 H              1 RES1               0.0000
     29 H29        236.7612 355.1545 -115.2959 H              1 RES1               0.0000
@<TRIPOS>BOND
    1    1    2 1     
    2    1    3 1     
    3    1    4 1     
    4    1    5 1     
    5    2    6 ar    
    6    2    7 ar    
    7    3    8 1     
    8    3    9 2     
    9    4   10 1     
   10    4   11 2     
   11    5   12 1     
   12    5   18 1     
   13    5   19 1     
   14    6   13 ar    
   15    6   20 1     
   16    7   14 ar    
   17    7   21 1     
   18    8   15 1     
   19    8   22 1     
   20   10   15 1     
   21   10   23 1     
   22   12   24 1     
   23   12   25 1     
   24   12   26 1     
   25   13   16 ar    
   26   13   27 1     
   27   14   16 ar    
   28   14   28 1     
   29   15   17 2     
   30   16   29 1     
@<TRIPOS>SUBSTRUCTURE
      1 RES1           1
@<TRIPOS>SET
DONOR_HYDROGENS      STATIC     ATOMS    <user>   **** ""
2 22 23
ATOM$RED        STATIC     ATOMS    COLORGROUP SYSTEM
2 22 23
@<TRIPOS>COMMENT
> <Gold.Version>
2022.3.0

> <Gold.Id.Protein>
unknown|7ts3_clean|pdb

> <Gold.Protein.RotatedTorsions>
[ 17121 17111 17112 17113 ] final  -17.67 input   42.04 | X-H torsion
[ 17169 17155 17156 17157 ] final -133.84 input  103.88 | X-H torsion
[ 18263 18249 18250 18251 ] final   54.74 input   32.50 | X-H torsion
[ 18345 18297 18298 18299 ] final   20.80 input   28.05 | X-H torsion
[ 18431 18389 18390 18391 ] final -101.03 input   99.92 | X-H torsion
[ 18439 18400 18399 18397 ] final  130.99 input   59.97 | X-H torsion
[ 18499 18465 18466 18467 ] final -115.29 input   91.01 | X-H torsion
[ 18649 18619 18620 18621 ] final  -80.03 input  125.07 | X-H torsion
[ 7445 7437 7438 7439 ] final -118.61 input   89.33 | X-H torsion
[ 18231 18209 18210 18211 ] final -157.68 input   30.89 | X-H torsion
[ 7393 7379 7380 7381 ] final  -73.94 input   98.82 | X-H torsion
[ 18539 18525 18526 18527 ] final  -65.62 input  129.79 | X-H torsion
[ 18235 18214 18213 18210 ] final  -37.28 input   60.00 | X-H torsion
[ 18179 18139 18140 18141 ] final  128.26 input   56.47 | X-H torsion
[ 17229 17217 17218 17219 ] final  156.35 input   53.60 | X-H torsion
[ 10082 10067 10068 10069 ] final -141.13 input   26.25 | X-H torsion
[ 16913 16892 16891 16889 ] final  -19.53 input   59.99 | X-H torsion
[ 11371 11350 11349 11346 ] final  -30.54 input   59.99 | X-H torsion
[ 11429 11395 11396 11397 ] final  117.61 input   50.42 | X-H torsion
[ 26033 25995 25994 25992 ] final  -41.59 input   60.01 | X-H torsion
[ 17337 17321 17322 17323 ] final -144.55 input   80.81 | X-H torsion
[ 17281 17265 17266 17267 ] final   88.84 input   66.93 | X-H torsion
[ 22383 22351 22352 22353 ] final  -17.62 input   47.53 | X-H torsion
[ 27271 16988 16987 16986 ] final  154.38 input   -0.00 | X-H torsion
[ 27274 17062 17061 17060 ] final  -53.86 input   -0.00 | X-H torsion
[ 27278 18142 18141 18140 ] final  165.23 input    0.00 | X-H torsion
[ 27281 18252 18251 18250 ] final  134.34 input    0.00 | X-H torsion
[ 27284 18300 18299 18298 ] final -129.67 input   -0.00 | X-H torsion
[ 27287 18392 18391 18390 ] final   54.00 input   -0.00 | X-H torsion
[ 27292 18468 18467 18466 ] final   78.01 input   -0.00 | X-H torsion
[ 27305 18212 18211 18210 ] final  -40.25 input   -0.00 | X-H torsion
[ 27308 16952 16951 16950 ] final  138.30 input   -0.00 | X-H torsion
[ 27313 17114 17113 17112 ] final   64.35 input   -0.00 | X-H torsion
[ 27315 17158 17157 17156 ] final -141.85 input   -0.00 | X-H torsion
[ 27320 10070 10069 10068 ] final  -11.18 input   -0.00 | X-H torsion
[ 27326 11348 11347 11346 ] final   47.43 input   -0.00 | X-H torsion
[ 27341 7254 7253 7252 ] final  -11.68 input    0.00 | X-H torsion
[ 27344 17268 17267 17266 ] final   71.21 input   -0.00 | X-H torsion
[ 27346 25921 25920 25919 ] final  168.64 input    0.00 | X-H torsion

> <Gold.Protein.ActiveResidues>
 MET341  HIS342  TRP414  ARG419  CYS420  VAL421  GLY422  LEU429  LEU460  SER462 
 ALA463  ILE464  SER482  GLN483  ARG486  TYR567  GLY568  LEU569  PRO570  ALA571 
 VAL572  SER573  ASN574  MET575  PRO588  PHE589  SER590  GLY591  TRP592  TYR593 
 MET594  GLY595  GLU597  ILE598  ARG601  ASP602  ARG608  ILE653  VAL654  TRP683 
 PHE709  GLU710  TYR711  HEM801  H4B802 

> <Gold.Protein.RotatedAtoms>
  229.4759  360.1807 -111.4992 H   0  0  0  0  0  0  0  0  0  0  0  0  # atno 7393 bound_to 7379
  227.2353  359.6387 -113.4490 H   0  0  0  0  0  0  0  0  0  0  0  0  # atno 7445 bound_to 7437
  228.0135  346.0720 -113.4139 H   0  0  0  0  0  0  0  0  0  0  0  0  # atno 10082 bound_to 10067
  245.0655  351.1887 -118.1899 H   0  0  0  0  0  0  0  0  0  0  0  0  # atno 11371 bound_to 11350
  242.9277  350.7821 -117.8107 H   0  0  0  0  0  0  0  0  0  0  0  0  # atno 11429 bound_to 11395
  238.6208  352.7712 -122.2521 H   0  0  0  0  0  0  0  0  0  0  0  0  # atno 16913 bound_to 16892
  236.5149  350.6006 -118.2370 H   0  0  0  0  0  0  0  0  0  0  0  0  # atno 17121 bound_to 17111
  237.1619  350.1101 -116.3040 H   0  0  0  0  0  0  0  0  0  0  0  0  # atno 17169 bound_to 17155
  239.6984  348.9487 -114.6478 H   0  0  0  0  0  0  0  0  0  0  0  0  # atno 17229 bound_to 17217
  241.9542  350.2251 -112.7263 H   0  0  0  0  0  0  0  0  0  0  0  0  # atno 17281 bound_to 17265
  242.6010  351.0388 -110.2390 H   0  0  0  0  0  0  0  0  0  0  0  0  # atno 17337 bound_to 17321
  236.3463  347.4521 -111.3057 H   0  0  0  0  0  0  0  0  0  0  0  0  # atno 18179 bound_to 18139
  233.9152  348.0293 -113.8233 H   0  0  0  0  0  0  0  0  0  0  0  0  # atno 18231 bound_to 18209
  231.9958  346.0994 -115.2177 H   0  0  0  0  0  0  0  0  0  0  0  0  # atno 18235 bound_to 18214
  231.5811  350.4089 -116.7329 H   0  0  0  0  0  0  0  0  0  0  0  0  # atno 18263 bound_to 18249
  229.0327  352.4039 -117.9116 H   0  0  0  0  0  0  0  0  0  0  0  0  # atno 18345 bound_to 18297
  229.6819  353.4584 -120.4547 H   0  0  0  0  0  0  0  0  0  0  0  0  # atno 18431 bound_to 18389
  236.9617  354.5805 -122.7312 H   0  0  0  0  0  0  0  0  0  0  0  0  # atno 18439 bound_to 18400
  229.1205  356.6517 -121.1448 H   0  0  0  0  0  0  0  0  0  0  0  0  # atno 18499 bound_to 18465
  229.7591  358.9901 -123.1441 H   0  0  0  0  0  0  0  0  0  0  0  0  # atno 18539 bound_to 18525
  233.4764  361.8607 -123.1284 H   0  0  0  0  0  0  0  0  0  0  0  0  # atno 18649 bound_to 18619
  226.1018  357.0098 -123.9987 H   0  0  0  0  0  0  0  0  0  0  0  0  # atno 22383 bound_to 22351
  240.0072  360.0397 -109.2438 H   0  0  0  0  0  0  0  0  0  0  0  0  # atno 26033 bound_to 25995
  236.0347  349.5718 -121.3620 LP  0  0  0  0  0  0  0  0  0  0  0  0  # atno 27271 bound_to 16988
  235.5371  347.9476 -121.7003 LP  0  0  0  0  0  0  0  0  0  0  0  0  # atno 27272 bound_to 16988
  233.3106  350.8001 -117.5071 LP  0  0  0  0  0  0  0  0  0  0  0  0  # atno 27274 bound_to 17062
  233.5914  349.0916 -117.5529 LP  0  0  0  0  0  0  0  0  0  0  0  0  # atno 27275 bound_to 17062
  235.4253  349.4972 -119.0346 LP  0  0  0  0  0  0  0  0  0  0  0  0  # atno 27276 bound_to 17111
  236.5283  349.3695 -114.8542 LP  0  0  0  0  0  0  0  0  0  0  0  0  # atno 27277 bound_to 17155
  234.9588  348.9812 -115.1990 LP  0  0  0  0  0  0  0  0  0  0  0  0  # atno 27278 bound_to 18142
  235.9243  348.9886 -113.7610 LP  0  0  0  0  0  0  0  0  0  0  0  0  # atno 27279 bound_to 18142
  231.0201  348.9557 -115.9318 LP  0  0  0  0  0  0  0  0  0  0  0  0  # atno 27280 bound_to 18249
  228.8002  349.3783 -119.7787 LP  0  0  0  0  0  0  0  0  0  0  0  0  # atno 27281 bound_to 18252
  230.2298  348.8675 -118.9449 LP  0  0  0  0  0  0  0  0  0  0  0  0  # atno 27282 bound_to 18252
  229.1418  350.7113 -118.3351 LP  0  0  0  0  0  0  0  0  0  0  0  0  # atno 27283 bound_to 18297
  228.9018  355.1160 -119.1856 LP  0  0  0  0  0  0  0  0  0  0  0  0  # atno 27284 bound_to 18300
  229.8785  353.9491 -118.3584 LP  0  0  0  0  0  0  0  0  0  0  0  0  # atno 27285 bound_to 18300
  229.1483  353.4313 -122.1177 LP  0  0  0  0  0  0  0  0  0  0  0  0  # atno 27286 bound_to 18389
  227.5085  355.4377 -121.5292 LP  0  0  0  0  0  0  0  0  0  0  0  0  # atno 27287 bound_to 18392
  227.6761  356.7632 -122.6314 LP  0  0  0  0  0  0  0  0  0  0  0  0  # atno 27288 bound_to 18392
  236.6099  353.0793 -123.2499 LP  0  0  0  0  0  0  0  0  0  0  0  0  # atno 27289 bound_to 18400
  236.5900  353.4204 -121.6530 LP  0  0  0  0  0  0  0  0  0  0  0  0  # atno 27290 bound_to 18400
  230.6708  357.3929 -120.8152 LP  0  0  0  0  0  0  0  0  0  0  0  0  # atno 27291 bound_to 18465
  231.6223  358.0794 -122.9510 LP  0  0  0  0  0  0  0  0  0  0  0  0  # atno 27292 bound_to 18468
  231.8023  359.7851 -122.7095 LP  0  0  0  0  0  0  0  0  0  0  0  0  # atno 27293 bound_to 18468
  232.5457  360.4016 -122.8900 LP  0  0  0  0  0  0  0  0  0  0  0  0  # atno 27294 bound_to 18619
  228.2363  358.5531 -112.5135 LP  0  0  0  0  0  0  0  0  0  0  0  0  # atno 27303 bound_to 7437
  232.2270  347.7573 -113.4598 LP  0  0  0  0  0  0  0  0  0  0  0  0  # atno 27304 bound_to 18209
  230.3566  347.6676 -114.2367 LP  0  0  0  0  0  0  0  0  0  0  0  0  # atno 27305 bound_to 18212
  229.6850  349.2637 -114.1989 LP  0  0  0  0  0  0  0  0  0  0  0  0  # atno 27306 bound_to 18212
  230.0932  360.5090 -113.0993 LP  0  0  0  0  0  0  0  0  0  0  0  0  # atno 27307 bound_to 7379
  230.8808  349.7055 -122.8668 LP  0  0  0  0  0  0  0  0  0  0  0  0  # atno 27308 bound_to 16952
  231.0580  350.9506 -124.0577 LP  0  0  0  0  0  0  0  0  0  0  0  0  # atno 27309 bound_to 16952
  228.3534  359.8484 -123.7226 LP  0  0  0  0  0  0  0  0  0  0  0  0  # atno 27310 bound_to 18525
  232.4297  345.4495 -116.6456 LP  0  0  0  0  0  0  0  0  0  0  0  0  # atno 27311 bound_to 18214
  231.0904  346.3779 -116.5413 LP  0  0  0  0  0  0  0  0  0  0  0  0  # atno 27312 bound_to 18214
  238.9083  348.9977 -117.5831 LP  0  0  0  0  0  0  0  0  0  0  0  0  # atno 27313 bound_to 17114
  239.0238  348.0842 -116.1161 LP  0  0  0  0  0  0  0  0  0  0  0  0  # atno 27314 bound_to 17114
  238.5477  348.4710 -111.9813 LP  0  0  0  0  0  0  0  0  0  0  0  0  # atno 27315 bound_to 17158
  237.2483  348.5210 -113.1255 LP  0  0  0  0  0  0  0  0  0  0  0  0  # atno 27316 bound_to 17158
  236.3172  346.6231 -112.8463 LP  0  0  0  0  0  0  0  0  0  0  0  0  # atno 27317 bound_to 18139
  240.3379  349.9953 -113.4022 LP  0  0  0  0  0  0  0  0  0  0  0  0  # atno 27318 bound_to 17217
  229.6298  346.4549 -113.9479 LP  0  0  0  0  0  0  0  0  0  0  0  0  # atno 27319 bound_to 10067
  231.4029  346.3349 -113.4395 LP  0  0  0  0  0  0  0  0  0  0  0  0  # atno 27320 bound_to 10070
  232.3702  346.3058 -112.0030 LP  0  0  0  0  0  0  0  0  0  0  0  0  # atno 27321 bound_to 10070
  239.6511  353.2662 -123.4101 LP  0  0  0  0  0  0  0  0  0  0  0  0  # atno 27322 bound_to 16892
  240.0261  351.9816 -122.4742 LP  0  0  0  0  0  0  0  0  0  0  0  0  # atno 27323 bound_to 16892
  242.1216  351.4788 -114.7835 LP  0  0  0  0  0  0  0  0  0  0  0  0  # atno 27326 bound_to 11348
  241.3977  349.9362 -115.0940 LP  0  0  0  0  0  0  0  0  0  0  0  0  # atno 27327 bound_to 11348
  245.5760  352.7318 -118.1177 LP  0  0  0  0  0  0  0  0  0  0  0  0  # atno 27333 bound_to 11350
  243.9778  352.3969 -118.1275 LP  0  0  0  0  0  0  0  0  0  0  0  0  # atno 27334 bound_to 11350
  243.2062  349.4444 -116.7120 LP  0  0  0  0  0  0  0  0  0  0  0  0  # atno 27335 bound_to 11395
  240.3548  359.1778 -110.5792 LP  0  0  0  0  0  0  0  0  0  0  0  0  # atno 27336 bound_to 25995
  241.2351  360.5017 -110.2061 LP  0  0  0  0  0  0  0  0  0  0  0  0  # atno 27337 bound_to 25995
  241.6318  349.6661 -109.7647 LP  0  0  0  0  0  0  0  0  0  0  0  0  # atno 27340 bound_to 17321
  233.3415  362.3313 -111.6696 LP  0  0  0  0  0  0  0  0  0  0  0  0  # atno 27341 bound_to 7254
  232.3609  360.9928 -112.1663 LP  0  0  0  0  0  0  0  0  0  0  0  0  # atno 27342 bound_to 7254
  241.9279  348.6562 -111.9643 LP  0  0  0  0  0  0  0  0  0  0  0  0  # atno 27343 bound_to 17265
  244.5876  351.9215 -109.6696 LP  0  0  0  0  0  0  0  0  0  0  0  0  # atno 27344 bound_to 17268
  244.4637  350.6542 -108.4955 LP  0  0  0  0  0  0  0  0  0  0  0  0  # atno 27345 bound_to 17268
  242.2189  353.5500 -106.5932 LP  0  0  0  0  0  0  0  0  0  0  0  0  # atno 27346 bound_to 25921
  241.1235  352.8580 -105.4437 LP  0  0  0  0  0  0  0  0  0  0  0  0  # atno 27347 bound_to 25921

> <Gold.Score>
     Fitness  S(hb_ext) S(vdw_ext)  S(hb_int)    S(int)      intcor
     29.83       0.63      23.12       0.00      -2.59      -0.76

> <Gold.Goldscore.Fitness>
29.8277

> <Gold.Goldscore.Internal.Vdw>
-2.9803

> <Gold.Goldscore.Internal.Torsion>
-0.3732

> <Gold.Goldscore.External.Vdw>
23.1156

> <Gold.Goldscore.Internal.HBond>
0.0000

> <Gold.Goldscore.External.HBond>
0.6324

> <Gold.Goldscore.Internal.Correction>
-0.7650

> <Gold.Goldscore.Hbonds>
donor molecule, donor type, donor heavy atom, donor atom, acceptor molecule, acceptor atom, score
      P1  H 11402 11435       L1    17  0.01
      P1  H 19281 19330       L1    17  0.07
      L1  H    10    23       P1 18948  0.03

> <Gold.Goldscore.Internal.Vdw.Weighted>
-2.9803

> <Gold.Goldscore.Internal.Torsion.Weighted>
-0.3732

> <Gold.Goldscore.External.Vdw.Weighted>
31.7839

> <Gold.Goldscore.Internal.HBond.Weighted>
0.0000

> <Gold.Goldscore.External.HBond.Weighted>
0.6324

> <Gold.Goldscore.Internal.Correction.Weighted>
-0.7650

> <Gold.Rescore>
     Score     S(PLP)   S(hbond)     S(cho)   S(metal)  DE(clash)   DE(tors)     intcor
     22.45     -23.10       0.63       0.00       0.00       1.47       0.53       ----

> <Gold.PLP.Fitness>
22.4516

> <Gold.PLP.PLP>
-23.0983

> <Gold.PLP.part.hbond>
-6.2188

> <Gold.PLP.part.metal>
0.0000

> <Gold.PLP.part.buried>
3.0887

> <Gold.PLP.part.nonpolar>
-21.6561

> <Gold.PLP.part.repulsive>
1.1203

> <Gold.PLP.ligand.clash>
1.4712

> <Gold.PLP.ligand.torsion>
0.5276

> <Gold.PLP.Chemscore.Hbond>
0.6266

> <Gold.PLP.Chemscore.CHOScore>
0.0000

> <Gold.PLP.Chemscore.Metal>
0.0000

> <Gold.Chemscore.Hbonds>
donor molecule, donor type, donor heavy atom, donor atom, acceptor molecule, acceptor atom, score
      L1  H    10    23       P1 18948  0.42
      P1  H 11629 11679       L1    17  0.09
      P1  H 19281 19330       L1    17  0.75

> <Gold.PLP.Chemscore.Internal.Correction>
   9.000000E+99

