#       Name:                CT1002167954
#       Creating user name   hitesit
#       Creation time:       Sun Apr 16 02:30:54 2023


#       File generated by GOLD software.
#

@<TRIPOS>MOLECULE
CT1002167954|ligand_prepared|mol2|1|dock5
    29    30     1
SMALL
NO_CHARGES


@<TRIPOS>ATOM
      1 C1         234.5821 354.6087 -116.2383 C.3            1 RES1               0.0000
      2 C2         235.9292 355.2150 -115.7950 C.ar           1 RES1               0.0000
      3 C3         234.7393 353.0945 -116.1356 C.2            1 RES1               0.0000
      4 C4         233.5254 355.1892 -115.3049 C.2            1 RES1               0.0000
      5 C5         234.1844 354.9640 -117.6899 C.3            1 RES1               0.0000
      6 C6         236.1244 355.6216 -114.4785 C.ar           1 RES1               0.0000
      7 C7         236.9851 355.3712 -116.6891 C.ar           1 RES1               0.0000
      8 N8         234.1099 352.4624 -115.1039 N.am           1 RES1               0.0000
      9 O9         235.4370 352.4695 -116.9248 O.2            1 RES1               0.0000
     10 N10        232.8785 354.3311 -114.4547 N.am           1 RES1               0.0000
     11 O11        233.2589 356.3846 -115.2864 O.2            1 RES1               0.0000
     12 C12        232.7169 354.7164 -118.0017 C.3            1 RES1               0.0000
     13 C13        237.3323 356.1621 -114.0697 C.ar           1 RES1               0.0000
     14 C14        238.1922 355.9121 -116.2782 C.ar           1 RES1               0.0000
     15 C15        233.1447 352.9990 -114.2903 C.2            1 RES1               0.0000
     16 C16        238.3671 356.3073 -114.9690 C.ar           1 RES1               0.0000
     17 O17        232.5572 352.3044 -113.4660 O.2            1 RES1               0.0000
     18 H18        234.4097 356.0227 -117.8686 H              1 RES1               0.0000
     19 H19        234.7969 354.3699 -118.3793 H              1 RES1               0.0000
     20 H20        235.3207 355.5174 -113.7572 H              1 RES1               0.0000
     21 H21        236.8699 355.0683 -117.7242 H              1 RES1               0.0000
     22 H22        234.3822 351.5020 -114.9204 H              1 RES1               0.0000
     23 H23        232.1291 354.7214 -113.8922 H              1 RES1               0.0000
     24 H24        232.4914 354.9820 -119.0324 H              1 RES1               0.0000
     25 H25        232.4637 353.6680 -117.8587 H              1 RES1               0.0000
     26 H26        232.0788 355.3109 -117.3511 H              1 RES1               0.0000
     27 H27        237.4644 356.4728 -113.0386 H              1 RES1               0.0000
     28 H28        239.0037 356.0251 -116.9895 H              1 RES1               0.0000
     29 H29        239.3134 356.7304 -114.6484 H              1 RES1               0.0000
@<TRIPOS>BOND
    1    1    2 1     
    2    1    3 1     
    3    1    4 1     
    4    1    5 1     
    5    2    6 ar    
    6    2    7 ar    
    7    3    8 1     
    8    3    9 2     
    9    4   10 1     
   10    4   11 2     
   11    5   12 1     
   12    5   18 1     
   13    5   19 1     
   14    6   13 ar    
   15    6   20 1     
   16    7   14 ar    
   17    7   21 1     
   18    8   15 1     
   19    8   22 1     
   20   10   15 1     
   21   10   23 1     
   22   12   24 1     
   23   12   25 1     
   24   12   26 1     
   25   13   16 ar    
   26   13   27 1     
   27   14   16 ar    
   28   14   28 1     
   29   15   17 2     
   30   16   29 1     
@<TRIPOS>SUBSTRUCTURE
      1 RES1           1
@<TRIPOS>SET
DONOR_HYDROGENS      STATIC     ATOMS    <user>   **** ""
2 22 23
ATOM$RED        STATIC     ATOMS    COLORGROUP SYSTEM
2 22 23
@<TRIPOS>COMMENT
> <Gold.Version>
2022.3.0

> <Gold.Id.Protein>
unknown|7ts3_clean|pdb

> <Gold.Protein.RotatedTorsions>
[ 17121 17111 17112 17113 ] final  -97.41 input   42.04 | X-H torsion
[ 17169 17155 17156 17157 ] final   87.51 input  103.88 | X-H torsion
[ 18263 18249 18250 18251 ] final  -35.10 input   32.50 | X-H torsion
[ 18345 18297 18298 18299 ] final -123.57 input   28.05 | X-H torsion
[ 18431 18389 18390 18391 ] final   -8.20 input   99.92 | X-H torsion
[ 18439 18400 18399 18397 ] final   10.14 input   59.97 | X-H torsion
[ 18499 18465 18466 18467 ] final  -97.28 input   91.01 | X-H torsion
[ 18649 18619 18620 18621 ] final  167.73 input  125.07 | X-H torsion
[ 7445 7437 7438 7439 ] final -145.52 input   89.33 | X-H torsion
[ 18231 18209 18210 18211 ] final -103.83 input   30.89 | X-H torsion
[ 7393 7379 7380 7381 ] final  -38.61 input   98.82 | X-H torsion
[ 18539 18525 18526 18527 ] final   47.00 input  129.79 | X-H torsion
[ 18235 18214 18213 18210 ] final -109.52 input   60.00 | X-H torsion
[ 18179 18139 18140 18141 ] final -169.89 input   56.47 | X-H torsion
[ 17229 17217 17218 17219 ] final -123.37 input   53.60 | X-H torsion
[ 10082 10067 10068 10069 ] final -145.35 input   26.25 | X-H torsion
[ 16913 16892 16891 16889 ] final   30.66 input   59.99 | X-H torsion
[ 11371 11350 11349 11346 ] final   62.66 input   59.99 | X-H torsion
[ 11429 11395 11396 11397 ] final   56.19 input   50.42 | X-H torsion
[ 26033 25995 25994 25992 ] final -170.55 input   60.01 | X-H torsion
[ 17337 17321 17322 17323 ] final -142.70 input   80.81 | X-H torsion
[ 17281 17265 17266 17267 ] final  -17.25 input   66.93 | X-H torsion
[ 22383 22351 22352 22353 ] final  112.53 input   47.53 | X-H torsion
[ 27271 16988 16987 16986 ] final  174.90 input   -0.00 | X-H torsion
[ 27274 17062 17061 17060 ] final  179.75 input   -0.00 | X-H torsion
[ 27278 18142 18141 18140 ] final   38.06 input    0.00 | X-H torsion
[ 27281 18252 18251 18250 ] final   54.75 input    0.00 | X-H torsion
[ 27284 18300 18299 18298 ] final  -38.04 input   -0.00 | X-H torsion
[ 27287 18392 18391 18390 ] final  -91.50 input   -0.00 | X-H torsion
[ 27292 18468 18467 18466 ] final  -33.69 input   -0.00 | X-H torsion
[ 27305 18212 18211 18210 ] final  130.72 input   -0.00 | X-H torsion
[ 27308 16952 16951 16950 ] final  -12.75 input   -0.00 | X-H torsion
[ 27313 17114 17113 17112 ] final  -72.16 input   -0.00 | X-H torsion
[ 27315 17158 17157 17156 ] final  -64.02 input   -0.00 | X-H torsion
[ 27320 10070 10069 10068 ] final -177.69 input   -0.00 | X-H torsion
[ 27326 11348 11347 11346 ] final  134.42 input   -0.00 | X-H torsion
[ 27341 7254 7253 7252 ] final -132.30 input    0.00 | X-H torsion
[ 27344 17268 17267 17266 ] final  -25.83 input   -0.00 | X-H torsion
[ 27346 25921 25920 25919 ] final  152.31 input    0.00 | X-H torsion

> <Gold.Protein.ActiveResidues>
 MET341  HIS342  TRP414  ARG419  CYS420  VAL421  GLY422  LEU429  LEU460  SER462 
 ALA463  ILE464  SER482  GLN483  ARG486  TYR567  GLY568  LEU569  PRO570  ALA571 
 VAL572  SER573  ASN574  MET575  PRO588  PHE589  SER590  GLY591  TRP592  TYR593 
 MET594  GLY595  GLU597  ILE598  ARG601  ASP602  ARG608  ILE653  VAL654  TRP683 
 PHE709  GLU710  TYR711  HEM801  H4B802 

> <Gold.Protein.RotatedAtoms>
  229.3862  359.7477 -111.7997 H   0  0  0  0  0  0  0  0  0  0  0  0  # atno 7393 bound_to 7379
  227.5008  359.4901 -113.7266 H   0  0  0  0  0  0  0  0  0  0  0  0  # atno 7445 bound_to 7437
  228.0074  346.0350 -113.4667 H   0  0  0  0  0  0  0  0  0  0  0  0  # atno 10082 bound_to 10067
  243.9485  351.9628 -118.1468 H   0  0  0  0  0  0  0  0  0  0  0  0  # atno 11371 bound_to 11350
  243.3061  350.0044 -118.1083 H   0  0  0  0  0  0  0  0  0  0  0  0  # atno 11429 bound_to 11395
  239.0770  352.1699 -122.0055 H   0  0  0  0  0  0  0  0  0  0  0  0  # atno 16913 bound_to 16892
  235.3963  350.5138 -118.1645 H   0  0  0  0  0  0  0  0  0  0  0  0  # atno 17121 bound_to 17111
  236.3034  349.9421 -114.9014 H   0  0  0  0  0  0  0  0  0  0  0  0  # atno 17169 bound_to 17155
  239.2465  349.2643 -113.6486 H   0  0  0  0  0  0  0  0  0  0  0  0  # atno 17229 bound_to 17217
  241.4505  349.5243 -111.6205 H   0  0  0  0  0  0  0  0  0  0  0  0  # atno 17281 bound_to 17265
  242.6233  351.0269 -110.2261 H   0  0  0  0  0  0  0  0  0  0  0  0  # atno 17337 bound_to 17321
  236.1330  346.5655 -111.3577 H   0  0  0  0  0  0  0  0  0  0  0  0  # atno 18179 bound_to 18139
  233.5082  348.6437 -113.5071 H   0  0  0  0  0  0  0  0  0  0  0  0  # atno 18231 bound_to 18209
  232.6191  345.5073 -115.9110 H   0  0  0  0  0  0  0  0  0  0  0  0  # atno 18235 bound_to 18214
  231.3309  349.2304 -117.1011 H   0  0  0  0  0  0  0  0  0  0  0  0  # atno 18263 bound_to 18249
  229.6451  350.8936 -118.3439 H   0  0  0  0  0  0  0  0  0  0  0  0  # atno 18345 bound_to 18297
  228.6502  353.8454 -121.1023 H   0  0  0  0  0  0  0  0  0  0  0  0  # atno 18431 bound_to 18389
  236.6050  353.0748 -123.2355 H   0  0  0  0  0  0  0  0  0  0  0  0  # atno 18439 bound_to 18400
  229.2395  356.6162 -121.3936 H   0  0  0  0  0  0  0  0  0  0  0  0  # atno 18499 bound_to 18465
  229.0816  360.2838 -123.2560 H   0  0  0  0  0  0  0  0  0  0  0  0  # atno 18539 bound_to 18525
  232.6911  361.0589 -122.1861 H   0  0  0  0  0  0  0  0  0  0  0  0  # atno 18649 bound_to 18619
  225.8400  356.2065 -122.6217 H   0  0  0  0  0  0  0  0  0  0  0  0  # atno 22383 bound_to 22351
  240.4700  359.2315 -110.6530 H   0  0  0  0  0  0  0  0  0  0  0  0  # atno 26033 bound_to 25995
  236.0170  349.4589 -121.0754 LP  0  0  0  0  0  0  0  0  0  0  0  0  # atno 27271 bound_to 16988
  235.5548  348.0605 -121.9869 LP  0  0  0  0  0  0  0  0  0  0  0  0  # atno 27272 bound_to 16988
  233.9427  349.4911 -116.9810 LP  0  0  0  0  0  0  0  0  0  0  0  0  # atno 27274 bound_to 17062
  232.9593  350.4006 -118.0790 LP  0  0  0  0  0  0  0  0  0  0  0  0  # atno 27275 bound_to 17062
  236.5310  349.5830 -119.1063 LP  0  0  0  0  0  0  0  0  0  0  0  0  # atno 27276 bound_to 17111
  237.3675  349.5337 -116.2253 LP  0  0  0  0  0  0  0  0  0  0  0  0  # atno 27277 bound_to 17155
  236.0072  348.3801 -114.2266 LP  0  0  0  0  0  0  0  0  0  0  0  0  # atno 27278 bound_to 18142
  234.8759  349.5897 -114.7335 LP  0  0  0  0  0  0  0  0  0  0  0  0  # atno 27279 bound_to 18142
  231.2612  350.0909 -115.5771 LP  0  0  0  0  0  0  0  0  0  0  0  0  # atno 27280 bound_to 18249
  228.9148  348.6628 -118.9398 LP  0  0  0  0  0  0  0  0  0  0  0  0  # atno 27281 bound_to 18252
  230.1151  349.5830 -119.7839 LP  0  0  0  0  0  0  0  0  0  0  0  0  # atno 27282 bound_to 18252
  228.5453  352.1826 -117.9139 LP  0  0  0  0  0  0  0  0  0  0  0  0  # atno 27283 bound_to 18297
  228.6901  354.1438 -118.4421 LP  0  0  0  0  0  0  0  0  0  0  0  0  # atno 27284 bound_to 18300
  230.0902  354.9213 -119.1019 LP  0  0  0  0  0  0  0  0  0  0  0  0  # atno 27285 bound_to 18300
  230.1591  353.0521 -121.4832 LP  0  0  0  0  0  0  0  0  0  0  0  0  # atno 27286 bound_to 18389
  227.8110  356.3369 -122.8842 LP  0  0  0  0  0  0  0  0  0  0  0  0  # atno 27287 bound_to 18392
  227.3736  355.8640 -121.2764 LP  0  0  0  0  0  0  0  0  0  0  0  0  # atno 27288 bound_to 18392
  236.5930  353.4333 -121.6487 LP  0  0  0  0  0  0  0  0  0  0  0  0  # atno 27289 bound_to 18400
  236.9662  354.5836 -122.7461 LP  0  0  0  0  0  0  0  0  0  0  0  0  # atno 27290 bound_to 18400
  230.5554  357.4273 -120.5738 LP  0  0  0  0  0  0  0  0  0  0  0  0  # atno 27291 bound_to 18465
  231.7423  359.1351 -121.9889 LP  0  0  0  0  0  0  0  0  0  0  0  0  # atno 27292 bound_to 18468
  231.6823  358.7294 -123.6716 LP  0  0  0  0  0  0  0  0  0  0  0  0  # atno 27293 bound_to 18468
  233.3149  361.1869 -123.8129 LP  0  0  0  0  0  0  0  0  0  0  0  0  # atno 27294 bound_to 18619
  227.9775  358.6980 -112.2430 LP  0  0  0  0  0  0  0  0  0  0  0  0  # atno 27303 bound_to 7437
  232.6234  347.1588 -113.7678 LP  0  0  0  0  0  0  0  0  0  0  0  0  # atno 27304 bound_to 18209
  229.7785  349.2891 -114.1030 LP  0  0  0  0  0  0  0  0  0  0  0  0  # atno 27305 bound_to 18212
  230.2631  347.6422 -114.3327 LP  0  0  0  0  0  0  0  0  0  0  0  0  # atno 27306 bound_to 18212
  230.1813  360.9344 -112.8042 LP  0  0  0  0  0  0  0  0  0  0  0  0  # atno 27307 bound_to 7379
  230.7487  350.6925 -124.2162 LP  0  0  0  0  0  0  0  0  0  0  0  0  # atno 27308 bound_to 16952
  231.1902  349.9636 -122.7083 LP  0  0  0  0  0  0  0  0  0  0  0  0  # atno 27309 bound_to 16952
  229.0197  358.5761 -123.6125 LP  0  0  0  0  0  0  0  0  0  0  0  0  # atno 27310 bound_to 18525
  231.5211  345.9687 -117.0205 LP  0  0  0  0  0  0  0  0  0  0  0  0  # atno 27311 bound_to 18214
  231.3716  346.4547 -115.4687 LP  0  0  0  0  0  0  0  0  0  0  0  0  # atno 27312 bound_to 18214
  238.7488  347.7450 -116.5863 LP  0  0  0  0  0  0  0  0  0  0  0  0  # atno 27313 bound_to 17114
  239.1833  349.3369 -117.1129 LP  0  0  0  0  0  0  0  0  0  0  0  0  # atno 27314 bound_to 17114
  237.7823  349.2330 -112.1136 LP  0  0  0  0  0  0  0  0  0  0  0  0  # atno 27315 bound_to 17158
  238.0136  347.7590 -112.9932 LP  0  0  0  0  0  0  0  0  0  0  0  0  # atno 27316 bound_to 17158
  236.5239  347.4822 -112.7959 LP  0  0  0  0  0  0  0  0  0  0  0  0  # atno 27317 bound_to 18139
  240.7785  349.6876 -114.3763 LP  0  0  0  0  0  0  0  0  0  0  0  0  # atno 27318 bound_to 17217
  229.6358  346.4913 -113.8958 LP  0  0  0  0  0  0  0  0  0  0  0  0  # atno 27319 bound_to 10067
  232.4736  346.1629 -112.1043 LP  0  0  0  0  0  0  0  0  0  0  0  0  # atno 27320 bound_to 10070
  231.2995  346.4778 -113.3381 LP  0  0  0  0  0  0  0  0  0  0  0  0  # atno 27321 bound_to 10070
  238.9468  353.4043 -123.0575 LP  0  0  0  0  0  0  0  0  0  0  0  0  # atno 27322 bound_to 16892
  240.2710  352.4490 -123.0751 LP  0  0  0  0  0  0  0  0  0  0  0  0  # atno 27323 bound_to 16892
  241.2623  351.1096 -115.5226 LP  0  0  0  0  0  0  0  0  0  0  0  0  # atno 27326 bound_to 11348
  242.2571  350.3055 -114.3548 LP  0  0  0  0  0  0  0  0  0  0  0  0  # atno 27327 bound_to 11348
  245.4624  351.3681 -118.1847 LP  0  0  0  0  0  0  0  0  0  0  0  0  # atno 27333 bound_to 11350
  245.2171  352.9805 -118.1039 LP  0  0  0  0  0  0  0  0  0  0  0  0  # atno 27334 bound_to 11350
  242.8439  350.1890 -116.4271 LP  0  0  0  0  0  0  0  0  0  0  0  0  # atno 27335 bound_to 11395
  241.1947  360.5721 -110.0833 LP  0  0  0  0  0  0  0  0  0  0  0  0  # atno 27336 bound_to 25995
  239.9290  359.9216 -109.2825 LP  0  0  0  0  0  0  0  0  0  0  0  0  # atno 27337 bound_to 25995
  241.6099  349.6777 -109.7773 LP  0  0  0  0  0  0  0  0  0  0  0  0  # atno 27340 bound_to 17321
  231.9988  361.7596 -112.0364 LP  0  0  0  0  0  0  0  0  0  0  0  0  # atno 27341 bound_to 7254
  233.7035  361.5644 -111.7996 LP  0  0  0  0  0  0  0  0  0  0  0  0  # atno 27342 bound_to 7254
  242.4253  349.3482 -113.0563 LP  0  0  0  0  0  0  0  0  0  0  0  0  # atno 27343 bound_to 17265
  245.0916  350.7458 -109.4512 LP  0  0  0  0  0  0  0  0  0  0  0  0  # atno 27344 bound_to 17268
  243.9597  351.8299 -108.7139 LP  0  0  0  0  0  0  0  0  0  0  0  0  # atno 27345 bound_to 17268
  242.0081  353.6159 -106.7017 LP  0  0  0  0  0  0  0  0  0  0  0  0  # atno 27346 bound_to 25921
  241.3342  352.7921 -105.3352 LP  0  0  0  0  0  0  0  0  0  0  0  0  # atno 27347 bound_to 25921

> <Gold.Score>
     Fitness  S(hb_ext) S(vdw_ext)  S(hb_int)    S(int)      intcor
     37.89       0.96      27.58       0.00      -1.00      -0.76

> <Gold.Goldscore.Fitness>
37.8924

> <Gold.Goldscore.Internal.Vdw>
-0.9912

> <Gold.Goldscore.Internal.Torsion>
-0.7710

> <Gold.Goldscore.External.Vdw>
27.5849

> <Gold.Goldscore.Internal.HBond>
0.0000

> <Gold.Goldscore.External.HBond>
0.9605

> <Gold.Goldscore.Internal.Correction>
-0.7650

> <Gold.Goldscore.Hbonds>
donor molecule, donor type, donor heavy atom, donor atom, acceptor molecule, acceptor atom, score
      P1  H 17111 17121       L1     9  0.05
      L1  H     8    22       P1 18142  0.43

> <Gold.Goldscore.Internal.Vdw.Weighted>
-0.9912

> <Gold.Goldscore.Internal.Torsion.Weighted>
-0.7710

> <Gold.Goldscore.External.Vdw.Weighted>
37.9292

> <Gold.Goldscore.Internal.HBond.Weighted>
0.0000

> <Gold.Goldscore.External.HBond.Weighted>
0.9605

> <Gold.Goldscore.Internal.Correction.Weighted>
-0.7650

> <Gold.Rescore>
     Score     S(PLP)   S(hbond)     S(cho)   S(metal)  DE(clash)   DE(tors)     intcor
     42.70     -39.43       0.02       0.00       1.00       1.53       0.63       ----

> <Gold.PLP.Fitness>
42.7028

> <Gold.PLP.PLP>
-39.4254

> <Gold.PLP.part.hbond>
-2.5077

> <Gold.PLP.part.metal>
-1.0000

> <Gold.PLP.part.buried>
17.7307

> <Gold.PLP.part.nonpolar>
-60.5327

> <Gold.PLP.part.repulsive>
5.8336

> <Gold.PLP.ligand.clash>
1.5298

> <Gold.PLP.ligand.torsion>
0.6315

> <Gold.PLP.Chemscore.Hbond>
0.0234

> <Gold.PLP.Chemscore.CHOScore>
0.0000

> <Gold.PLP.Chemscore.Metal>
1.0000

> <Gold.Chemscore.Hbonds>
donor molecule, donor type, donor heavy atom, donor atom, acceptor molecule, acceptor atom, score
      P1  H 17111 17121       L1     9  0.31
      P1  M 26926 26926       L1    11  0.03

> <Gold.PLP.Chemscore.Internal.Correction>
   9.000000E+99

