#       Name:                GA Fitting Points
#       Creating user name   hitesit
#       Creation time:       Sun Apr 16 02:21:41 2023


#       Fitting Points Used by GA Software.
#

@<TRIPOS>MOLECULE
GA Fitting Points
   292    0    0
SMALL
NO_CHARGES


@<TRIPOS>ATOM
      1 ****        23.5000  19.7500  43.0000 Du        
      2 ****        23.5000  20.0000  42.7500 Du        
      3 ****        23.5000  20.0000  43.0000 Du        
      4 ****        23.5000  20.2500  42.2500 Du        
      5 ****        23.5000  20.2500  42.5000 Du        
      6 ****        23.5000  20.2500  42.7500 Du        
      7 ****        23.5000  20.2500  43.0000 Du        
      8 ****        23.7500  19.0000  42.7500 Du        
      9 ****        23.7500  19.0000  43.0000 Du        
     10 ****        23.7500  19.2500  42.7500 Du        
     11 ****        23.7500  19.2500  43.0000 Du        
     12 ****        23.7500  19.5000  42.5000 Du        
     13 ****        23.7500  19.5000  42.7500 Du        
     14 ****        23.7500  19.5000  43.0000 Du        
     15 ****        23.7500  19.7500  42.0000 Du        
     16 ****        23.7500  19.7500  42.2500 Du        
     17 ****        23.7500  19.7500  42.5000 Du        
     18 ****        23.7500  19.7500  42.7500 Du        
     19 ****        23.7500  19.7500  43.0000 Du        
     20 ****        23.7500  19.7500  43.2500 Du        
     21 ****        23.7500  20.0000  41.0000 Du        
     22 ****        23.7500  20.0000  41.2500 Du        
     23 ****        23.7500  20.0000  41.5000 Du        
     24 ****        23.7500  20.0000  41.7500 Du        
     25 ****        23.7500  20.0000  42.0000 Du        
     26 ****        23.7500  20.0000  42.2500 Du        
     27 ****        23.7500  20.0000  42.5000 Du        
     28 ****        23.7500  20.0000  42.7500 Du        
     29 ****        23.7500  20.0000  43.0000 Du        
     30 ****        23.7500  20.2500  41.0000 Du        
     31 ****        23.7500  20.2500  41.2500 Du        
     32 ****        23.7500  20.2500  41.5000 Du        
     33 ****        23.7500  20.2500  41.7500 Du        
     34 ****        23.7500  20.2500  42.0000 Du        
     35 ****        23.7500  20.2500  42.2500 Du        
     36 ****        23.7500  20.2500  42.5000 Du        
     37 ****        23.7500  20.2500  42.7500 Du        
     38 ****        23.7500  20.2500  43.0000 Du        
     39 ****        24.0000  18.7500  42.5000 Du        
     40 ****        24.0000  18.7500  42.7500 Du        
     41 ****        24.0000  18.7500  43.0000 Du        
     42 ****        24.0000  19.0000  42.2500 Du        
     43 ****        24.0000  19.0000  42.5000 Du        
     44 ****        24.0000  19.0000  42.7500 Du        
     45 ****        24.0000  19.0000  43.0000 Du        
     46 ****        24.0000  19.0000  43.2500 Du        
     47 ****        24.0000  19.2500  41.7500 Du        
     48 ****        24.0000  19.2500  42.0000 Du        
     49 ****        24.0000  19.2500  42.2500 Du        
     50 ****        24.0000  19.2500  42.5000 Du        
     51 ****        24.0000  19.2500  42.7500 Du        
     52 ****        24.0000  19.2500  43.0000 Du        
     53 ****        24.0000  19.2500  43.2500 Du        
     54 ****        24.0000  19.5000  41.2500 Du        
     55 ****        24.0000  19.5000  41.5000 Du        
     56 ****        24.0000  19.5000  41.7500 Du        
     57 ****        24.0000  19.5000  42.0000 Du        
     58 ****        24.0000  19.5000  42.2500 Du        
     59 ****        24.0000  19.5000  42.5000 Du        
     60 ****        24.0000  19.5000  42.7500 Du        
     61 ****        24.0000  19.5000  43.0000 Du        
     62 ****        24.0000  19.5000  43.2500 Du        
     63 ****        24.0000  19.7500  41.0000 Du        
     64 ****        24.0000  19.7500  41.2500 Du        
     65 ****        24.0000  19.7500  41.5000 Du        
     66 ****        24.0000  19.7500  41.7500 Du        
     67 ****        24.0000  19.7500  42.0000 Du        
     68 ****        24.0000  19.7500  42.2500 Du        
     69 ****        24.0000  19.7500  42.5000 Du        
     70 ****        24.0000  19.7500  42.7500 Du        
     71 ****        24.0000  19.7500  43.0000 Du        
     72 ****        24.0000  19.7500  43.2500 Du        
     73 ****        24.0000  20.0000  41.0000 Du        
     74 ****        24.0000  20.0000  41.2500 Du        
     75 ****        24.0000  20.0000  41.5000 Du        
     76 ****        24.0000  20.0000  41.7500 Du        
     77 ****        24.0000  20.0000  42.0000 Du        
     78 ****        24.0000  20.0000  42.2500 Du        
     79 ****        24.0000  20.0000  42.5000 Du        
     80 ****        24.0000  20.0000  42.7500 Du        
     81 ****        24.0000  20.0000  43.0000 Du        
     82 ****        24.0000  20.0000  43.2500 Du        
     83 ****        24.0000  20.2500  41.0000 Du        
     84 ****        24.0000  20.2500  41.2500 Du        
     85 ****        24.0000  20.2500  41.5000 Du        
     86 ****        24.0000  20.2500  41.7500 Du        
     87 ****        24.0000  20.2500  42.0000 Du        
     88 ****        24.0000  20.2500  42.2500 Du        
     89 ****        24.0000  20.2500  42.5000 Du        
     90 ****        24.0000  20.2500  42.7500 Du        
     91 ****        24.0000  20.2500  43.0000 Du        
     92 ****        24.2500  18.5000  42.0000 Du        
     93 ****        24.2500  18.5000  42.2500 Du        
     94 ****        24.2500  18.5000  42.5000 Du        
     95 ****        24.2500  18.5000  42.7500 Du        
     96 ****        24.2500  18.7500  41.7500 Du        
     97 ****        24.2500  18.7500  42.0000 Du        
     98 ****        24.2500  18.7500  42.2500 Du        
     99 ****        24.2500  18.7500  42.5000 Du        
    100 ****        24.2500  18.7500  42.7500 Du        
    101 ****        24.2500  18.7500  43.0000 Du        
    102 ****        24.2500  19.0000  41.2500 Du        
    103 ****        24.2500  19.0000  41.5000 Du        
    104 ****        24.2500  19.0000  41.7500 Du        
    105 ****        24.2500  19.0000  42.0000 Du        
    106 ****        24.2500  19.0000  42.2500 Du        
    107 ****        24.2500  19.0000  42.5000 Du        
    108 ****        24.2500  19.0000  42.7500 Du        
    109 ****        24.2500  19.0000  43.0000 Du        
    110 ****        24.2500  19.0000  43.2500 Du        
    111 ****        24.2500  19.2500  41.0000 Du        
    112 ****        24.2500  19.2500  41.2500 Du        
    113 ****        24.2500  19.2500  41.5000 Du        
    114 ****        24.2500  19.2500  41.7500 Du        
    115 ****        24.2500  19.2500  42.0000 Du        
    116 ****        24.2500  19.2500  42.2500 Du        
    117 ****        24.2500  19.2500  42.5000 Du        
    118 ****        24.2500  19.2500  42.7500 Du        
    119 ****        24.2500  19.2500  43.0000 Du        
    120 ****        24.2500  19.2500  43.2500 Du        
    121 ****        24.2500  19.5000  41.0000 Du        
    122 ****        24.2500  19.5000  41.2500 Du        
    123 ****        24.2500  19.5000  41.5000 Du        
    124 ****        24.2500  19.5000  41.7500 Du        
    125 ****        24.2500  19.5000  42.0000 Du        
    126 ****        24.2500  19.5000  42.2500 Du        
    127 ****        24.2500  19.5000  42.5000 Du        
    128 ****        24.2500  19.5000  42.7500 Du        
    129 ****        24.2500  19.5000  43.0000 Du        
    130 ****        24.2500  19.5000  43.2500 Du        
    131 ****        24.2500  19.7500  40.7500 Du        
    132 ****        24.2500  19.7500  41.0000 Du        
    133 ****        24.2500  19.7500  41.2500 Du        
    134 ****        24.2500  19.7500  41.5000 Du        
    135 ****        24.2500  19.7500  41.7500 Du        
    136 ****        24.2500  19.7500  42.0000 Du        
    137 ****        24.2500  19.7500  42.2500 Du        
    138 ****        24.2500  19.7500  42.5000 Du        
    139 ****        24.2500  19.7500  42.7500 Du        
    140 ****        24.2500  19.7500  43.0000 Du        
    141 ****        24.2500  19.7500  43.2500 Du        
    142 ****        24.2500  20.0000  40.7500 Du        
    143 ****        24.2500  20.0000  41.0000 Du        
    144 ****        24.2500  20.0000  41.2500 Du        
    145 ****        24.2500  20.0000  41.5000 Du        
    146 ****        24.2500  20.0000  41.7500 Du        
    147 ****        24.2500  20.0000  42.0000 Du        
    148 ****        24.2500  20.0000  42.2500 Du        
    149 ****        24.2500  20.0000  42.5000 Du        
    150 ****        24.2500  20.0000  42.7500 Du        
    151 ****        24.2500  20.0000  43.0000 Du        
    152 ****        24.2500  20.0000  43.2500 Du        
    153 ****        24.2500  20.2500  40.7500 Du        
    154 ****        24.2500  20.2500  41.0000 Du        
    155 ****        24.2500  20.2500  41.2500 Du        
    156 ****        24.2500  20.2500  41.5000 Du        
    157 ****        24.2500  20.2500  41.7500 Du        
    158 ****        24.2500  20.2500  42.0000 Du        
    159 ****        24.2500  20.2500  42.2500 Du        
    160 ****        24.2500  20.2500  42.5000 Du        
    161 ****        24.2500  20.2500  42.7500 Du        
    162 ****        24.2500  20.2500  43.0000 Du        
    163 ****        24.5000  18.7500  42.2500 Du        
    164 ****        24.5000  19.0000  41.2500 Du        
    165 ****        24.5000  19.0000  42.0000 Du        
    166 ****        24.5000  19.0000  42.2500 Du        
    167 ****        24.5000  19.2500  41.2500 Du        
    168 ****        24.5000  19.2500  41.7500 Du        
    169 ****        24.5000  19.2500  42.0000 Du        
    170 ****        24.5000  19.2500  42.2500 Du        
    171 ****        24.5000  19.5000  41.0000 Du        
    172 ****        24.5000  19.5000  41.2500 Du        
    173 ****        24.5000  19.5000  41.5000 Du        
    174 ****        24.5000  19.5000  41.7500 Du        
    175 ****        24.5000  19.5000  42.0000 Du        
    176 ****        24.5000  19.5000  42.2500 Du        
    177 ****        24.5000  19.5000  42.5000 Du        
    178 ****        24.5000  19.5000  42.7500 Du        
    179 ****        24.5000  19.5000  43.0000 Du        
    180 ****        24.5000  19.5000  43.2500 Du        
    181 ****        24.5000  19.7500  40.7500 Du        
    182 ****        24.5000  19.7500  41.0000 Du        
    183 ****        24.5000  19.7500  41.2500 Du        
    184 ****        24.5000  19.7500  41.5000 Du        
    185 ****        24.5000  19.7500  41.7500 Du        
    186 ****        24.5000  19.7500  42.0000 Du        
    187 ****        24.5000  19.7500  42.2500 Du        
    188 ****        24.5000  19.7500  42.5000 Du        
    189 ****        24.5000  19.7500  42.7500 Du        
    190 ****        24.5000  19.7500  43.0000 Du        
    191 ****        24.5000  19.7500  43.2500 Du        
    192 ****        24.5000  20.0000  40.7500 Du        
    193 ****        24.5000  20.0000  41.0000 Du        
    194 ****        24.5000  20.0000  41.2500 Du        
    195 ****        24.5000  20.0000  41.5000 Du        
    196 ****        24.5000  20.0000  41.7500 Du        
    197 ****        24.5000  20.0000  42.0000 Du        
    198 ****        24.5000  20.0000  42.2500 Du        
    199 ****        24.5000  20.0000  42.5000 Du        
    200 ****        24.5000  20.0000  42.7500 Du        
    201 ****        24.5000  20.0000  43.0000 Du        
    202 ****        24.5000  20.0000  43.2500 Du        
    203 ****        24.5000  20.2500  41.0000 Du        
    204 ****        24.5000  20.2500  41.2500 Du        
    205 ****        24.5000  20.2500  41.5000 Du        
    206 ****        24.5000  20.2500  41.7500 Du        
    207 ****        24.5000  20.2500  42.0000 Du        
    208 ****        24.5000  20.2500  42.2500 Du        
    209 ****        24.5000  20.2500  42.5000 Du        
    210 ****        24.5000  20.2500  42.7500 Du        
    211 ****        24.7500  19.0000  41.2500 Du        
    212 ****        24.7500  19.0000  42.0000 Du        
    213 ****        24.7500  19.2500  41.0000 Du        
    214 ****        24.7500  19.2500  41.2500 Du        
    215 ****        24.7500  19.2500  42.0000 Du        
    216 ****        24.7500  19.2500  42.2500 Du        
    217 ****        24.7500  19.5000  41.0000 Du        
    218 ****        24.7500  19.5000  41.2500 Du        
    219 ****        24.7500  19.5000  41.5000 Du        
    220 ****        24.7500  19.5000  41.7500 Du        
    221 ****        24.7500  19.5000  42.0000 Du        
    222 ****        24.7500  19.5000  42.2500 Du        
    223 ****        24.7500  19.5000  42.5000 Du        
    224 ****        24.7500  19.5000  42.7500 Du        
    225 ****        24.7500  19.5000  43.0000 Du        
    226 ****        24.7500  19.5000  43.2500 Du        
    227 ****        24.7500  19.7500  40.7500 Du        
    228 ****        24.7500  19.7500  41.0000 Du        
    229 ****        24.7500  19.7500  41.2500 Du        
    230 ****        24.7500  19.7500  41.5000 Du        
    231 ****        24.7500  19.7500  41.7500 Du        
    232 ****        24.7500  19.7500  42.0000 Du        
    233 ****        24.7500  19.7500  42.2500 Du        
    234 ****        24.7500  19.7500  42.5000 Du        
    235 ****        24.7500  19.7500  42.7500 Du        
    236 ****        24.7500  19.7500  43.0000 Du        
    237 ****        24.7500  19.7500  43.2500 Du        
    238 ****        24.7500  20.0000  40.7500 Du        
    239 ****        24.7500  20.0000  41.0000 Du        
    240 ****        24.7500  20.0000  41.2500 Du        
    241 ****        24.7500  20.0000  41.5000 Du        
    242 ****        24.7500  20.0000  41.7500 Du        
    243 ****        24.7500  20.0000  42.0000 Du        
    244 ****        24.7500  20.0000  42.2500 Du        
    245 ****        24.7500  20.0000  42.5000 Du        
    246 ****        24.7500  20.0000  42.7500 Du        
    247 ****        24.7500  20.0000  43.0000 Du        
    248 ****        24.7500  20.0000  43.2500 Du        
    249 ****        24.7500  20.2500  40.7500 Du        
    250 ****        24.7500  20.2500  41.0000 Du        
    251 ****        24.7500  20.2500  41.2500 Du        
    252 ****        24.7500  20.2500  41.5000 Du        
    253 ****        24.7500  20.2500  41.7500 Du        
    254 ****        24.7500  20.2500  42.0000 Du        
    255 ****        24.7500  20.2500  42.2500 Du        
    256 ****        24.7500  20.2500  42.5000 Du        
    257 ****        24.7500  20.2500  42.7500 Du        
    258 ****        25.0000  19.5000  43.0000 Du        
    259 ****        25.0000  19.7500  40.7500 Du        
    260 ****        25.0000  19.7500  41.0000 Du        
    261 ****        25.0000  19.7500  41.2500 Du        
    262 ****        25.0000  19.7500  41.5000 Du        
    263 ****        25.0000  19.7500  41.7500 Du        
    264 ****        25.0000  19.7500  42.0000 Du        
    265 ****        25.0000  19.7500  42.2500 Du        
    266 ****        25.0000  19.7500  42.5000 Du        
    267 ****        25.0000  19.7500  42.7500 Du        
    268 ****        25.0000  19.7500  43.0000 Du        
    269 ****        25.0000  19.7500  43.2500 Du        
    270 ****        25.0000  20.0000  40.7500 Du        
    271 ****        25.0000  20.0000  41.0000 Du        
    272 ****        25.0000  20.0000  41.2500 Du        
    273 ****        25.0000  20.0000  41.5000 Du        
    274 ****        25.0000  20.0000  41.7500 Du        
    275 ****        25.0000  20.0000  42.0000 Du        
    276 ****        25.0000  20.0000  42.2500 Du        
    277 ****        25.0000  20.0000  42.5000 Du        
    278 ****        25.0000  20.0000  42.7500 Du        
    279 ****        25.0000  20.0000  43.0000 Du        
    280 ****        25.0000  20.0000  43.2500 Du        
    281 ****        25.0000  20.2500  40.7500 Du        
    282 ****        25.0000  20.2500  41.0000 Du        
    283 ****        25.0000  20.2500  41.2500 Du        
    284 ****        25.0000  20.2500  41.5000 Du        
    285 ****        25.0000  20.2500  41.7500 Du        
    286 ****        25.0000  20.2500  42.0000 Du        
    287 ****        25.0000  20.2500  42.2500 Du        
    288 ****        25.0000  20.2500  42.7500 Du        
    289 ****        25.0000  20.2500  43.0000 Du        
    290 ****        25.2500  20.0000  41.0000 Du        
    291 ****        25.2500  20.0000  42.7500 Du        
    292 ****        25.2500  20.0000  43.0000 Du        
