#       Name:                CT1002167954
#       Creating user name   hitesit
#       Creation time:       Sun Apr 16 02:21:45 2023


#       File generated by GOLD software.
#

@<TRIPOS>MOLECULE
CT1002167954|ligand_prepared|mol2|1|dock1
    29    30     1
SMALL
NO_CHARGES


@<TRIPOS>ATOM
      1 C1          26.0101  17.9638  40.0254 C.3            1 RES1               0.0000
      2 C2          25.0392  18.9291  40.7357 C.ar           1 RES1               0.0000
      3 C3          25.1801  16.7551  39.6032 C.2            1 RES1               0.0000
      4 C4          26.6109  18.7434  38.8610 C.2            1 RES1               0.0000
      5 C5          27.1710  17.4736  40.9218 C.3            1 RES1               0.0000
      6 C6          24.1347  19.6912  40.0023 C.ar           1 RES1               0.0000
      7 C7          25.0343  19.0660  42.1212 C.ar           1 RES1               0.0000
      8 N8          24.8801  16.6260  38.2791 N.am           1 RES1               0.0000
      9 O9          24.7617  15.9487  40.4248 O.2            1 RES1               0.0000
     10 N10         26.3136  18.3287  37.5892 N.am           1 RES1               0.0000
     11 O11         27.3257  19.7230  39.0331 O.2            1 RES1               0.0000
     12 C12         28.2952  16.7968  40.1535 C.3            1 RES1               0.0000
     13 C13         23.2552  20.5567  40.6314 C.ar           1 RES1               0.0000
     14 C14         24.1541  19.9322  42.7484 C.ar           1 RES1               0.0000
     15 C15         25.4507  17.3240  37.2452 C.2            1 RES1               0.0000
     16 C16         23.2640  20.6775  42.0047 C.ar           1 RES1               0.0000
     17 O17         25.1923  17.0454  36.0778 O.2            1 RES1               0.0000
     18 H18         27.5827  18.3318  41.4671 H              1 RES1               0.0000
     19 H19         26.7727  16.7669  41.6603 H              1 RES1               0.0000
     20 H20         24.1149  19.6113  38.9205 H              1 RES1               0.0000
     21 H21         25.7265  18.4905  42.7265 H              1 RES1               0.0000
     22 H22         24.1654  15.9478  38.0350 H              1 RES1               0.0000
     23 H23         26.7787  18.8137  36.8285 H              1 RES1               0.0000
     24 H24         29.0835  16.4722  40.8295 H              1 RES1               0.0000
     25 H25         27.9262  15.9237  39.6193 H              1 RES1               0.0000
     26 H26         28.7314  17.4794  39.4272 H              1 RES1               0.0000
     27 H27         22.5576  21.1419  40.0415 H              1 RES1               0.0000
     28 H28         24.1649  20.0246  43.8294 H              1 RES1               0.0000
     29 H29         22.5746  21.3552  42.4973 H              1 RES1               0.0000
@<TRIPOS>BOND
    1    1    2 1     
    2    1    3 1     
    3    1    4 1     
    4    1    5 1     
    5    2    6 ar    
    6    2    7 ar    
    7    3    8 1     
    8    3    9 2     
    9    4   10 1     
   10    4   11 2     
   11    5   12 1     
   12    5   18 1     
   13    5   19 1     
   14    6   13 ar    
   15    6   20 1     
   16    7   14 ar    
   17    7   21 1     
   18    8   15 1     
   19    8   22 1     
   20   10   15 1     
   21   10   23 1     
   22   12   24 1     
   23   12   25 1     
   24   12   26 1     
   25   13   16 ar    
   26   13   27 1     
   27   14   16 ar    
   28   14   28 1     
   29   15   17 2     
   30   16   29 1     
@<TRIPOS>SUBSTRUCTURE
      1 RES1           1
@<TRIPOS>SET
DONOR_HYDROGENS      STATIC     ATOMS    <user>   **** ""
2 22 23
ATOM$RED        STATIC     ATOMS    COLORGROUP SYSTEM
2 22 23
@<TRIPOS>COMMENT
> <Gold.Version>
2022.3.0

> <Gold.Id.Protein>
unknown|1wbs_clean|pdb

> <Gold.Protein.RotatedTorsions>
[ 1074 1065 1064 1062 ] final  -58.65 input   60.04 | X-H torsion
[ 5197 5192 5191 5188 ] final -168.09 input   60.02 | X-H torsion

> <Gold.Protein.ActiveResidues>
 TYR69   ARG73   ASP324  GLN325  SER326  PHE327  GLU328  ARG330  LEU332  TRP337 
 LEU340  ASP343  GLU344 

> <Gold.Protein.RotatedAtoms>
   21.9961   18.1763   38.7356 H   0  0  0  0  0  0  0  0  0  0  0  0  # atno 1074 bound_to 1065
   24.4000   22.4109   45.2635 H   0  0  0  0  0  0  0  0  0  0  0  0  # atno 5197 bound_to 5192
   22.0659   19.6812   39.3513 LP  0  0  0  0  0  0  0  0  0  0  0  0  # atno 5659 bound_to 1065
   23.0861   19.2368   38.1561 LP  0  0  0  0  0  0  0  0  0  0  0  0  # atno 5660 bound_to 1065
   23.6380   23.1443   44.0273 LP  0  0  0  0  0  0  0  0  0  0  0  0  # atno 5669 bound_to 5192
   22.9045   21.9316   44.8384 LP  0  0  0  0  0  0  0  0  0  0  0  0  # atno 5670 bound_to 5192

> <Gold.Score>
     Fitness  S(hb_ext) S(vdw_ext)  S(hb_int)    S(int)      intcor
     27.07       4.78      16.51       0.00      -0.42      -0.80

> <Gold.Goldscore.Fitness>
27.0722

> <Gold.Goldscore.Internal.Vdw>
-0.5722

> <Gold.Goldscore.Internal.Torsion>
-0.6478

> <Gold.Goldscore.External.Vdw>
16.5120

> <Gold.Goldscore.Internal.HBond>
0.0000

> <Gold.Goldscore.External.HBond>
4.7847

> <Gold.Goldscore.Internal.Correction>
-0.8033

> <Gold.Goldscore.Hbonds>
donor molecule, donor type, donor heavy atom, donor atom, acceptor molecule, acceptor atom, score
      L1  H     8    22       P1  5495  0.80

> <Gold.Goldscore.Internal.Vdw.Weighted>
-0.5722

> <Gold.Goldscore.Internal.Torsion.Weighted>
-0.6478

> <Gold.Goldscore.External.Vdw.Weighted>
22.7040

> <Gold.Goldscore.Internal.HBond.Weighted>
0.0000

> <Gold.Goldscore.External.HBond.Weighted>
4.7847

> <Gold.Goldscore.Internal.Correction.Weighted>
-0.8033

> <Gold.Rescore>
     Score     S(PLP)   S(hbond)     S(cho)   S(metal)  DE(clash)   DE(tors)     intcor
     19.79     -18.34       1.00       0.00       0.00       0.00       0.78       ----

> <Gold.PLP.Fitness>
19.7886

> <Gold.PLP.PLP>
-18.3426

> <Gold.PLP.part.hbond>
-1.2544

> <Gold.PLP.part.metal>
0.0000

> <Gold.PLP.part.buried>
0.1259

> <Gold.PLP.part.nonpolar>
-16.8955

> <Gold.PLP.part.repulsive>
0.3077

> <Gold.PLP.ligand.clash>
0.0000

> <Gold.PLP.ligand.torsion>
0.7770

> <Gold.PLP.Chemscore.Hbond>
1.0000

> <Gold.PLP.Chemscore.CHOScore>
0.0000

> <Gold.PLP.Chemscore.Metal>
0.0000

> <Gold.Chemscore.Hbonds>
donor molecule, donor type, donor heavy atom, donor atom, acceptor molecule, acceptor atom, score
      L1  H     8    22       P1  5495  1.00

> <Gold.PLP.Chemscore.Internal.Correction>
   9.000000E+99

