#       Name:                CT1002167954
#       Creating user name   hitesit
#       Creation time:       Sun Apr 16 02:21:49 2023


#       File generated by GOLD software.
#

@<TRIPOS>MOLECULE
CT1002167954|ligand_prepared|mol2|1|dock5
    29    30     1
SMALL
NO_CHARGES


@<TRIPOS>ATOM
      1 C1          27.1572  21.6510  40.9381 C.3            1 RES1               0.0000
      2 C2          25.8263  21.1755  41.5556 C.ar           1 RES1               0.0000
      3 C3          27.0297  21.4419  39.4321 C.2            1 RES1               0.0000
      4 C4          27.3226  23.1091  41.3520 C.2            1 RES1               0.0000
      5 C5          28.3934  20.8689  41.4397 C.3            1 RES1               0.0000
      6 C6          25.6899  21.0497  42.9348 C.ar           1 RES1               0.0000
      7 C7          24.7271  20.8621  40.7604 C.ar           1 RES1               0.0000
      8 N8          26.8547  22.5477  38.6532 N.am           1 RES1               0.0000
      9 O9          27.0429  20.3207  38.9392 O.2            1 RES1               0.0000
     10 N10         27.2882  24.0634  40.3692 N.am           1 RES1               0.0000
     11 O11         27.4658  23.4416  42.5221 O.2            1 RES1               0.0000
     12 C12         29.7121  21.3868  40.8877 C.3            1 RES1               0.0000
     13 C13         24.4971  20.6287  43.4990 C.ar           1 RES1               0.0000
     14 C14         23.5352  20.4410  41.3267 C.ar           1 RES1               0.0000
     15 C15         27.0310  23.8512  39.0421 C.2            1 RES1               0.0000
     16 C16         23.4190  20.3245  42.6955 C.ar           1 RES1               0.0000
     17 O17         26.9624  24.7671  38.2275 O.2            1 RES1               0.0000
     18 H18         28.4241  20.9216  42.5350 H              1 RES1               0.0000
     19 H19         28.2824  19.8145  41.1578 H              1 RES1               0.0000
     20 H20         26.5283  21.2822  43.5830 H              1 RES1               0.0000
     21 H21         24.7960  20.9454  39.6811 H              1 RES1               0.0000
     22 H22         26.5659  22.3908  37.6928 H              1 RES1               0.0000
     23 H23         27.4714  25.0205  40.6531 H              1 RES1               0.0000
     24 H24         30.5466  20.8032  41.2709 H              1 RES1               0.0000
     25 H25         29.7263  21.3255  39.8015 H              1 RES1               0.0000
     26 H26         29.8671  22.4260  41.1705 H              1 RES1               0.0000
     27 H27         24.4112  20.5373  44.5767 H              1 RES1               0.0000
     28 H28         22.6895  20.2022  40.6904 H              1 RES1               0.0000
     29 H29         22.4845  19.9951  43.1377 H              1 RES1               0.0000
@<TRIPOS>BOND
    1    1    2 1     
    2    1    3 1     
    3    1    4 1     
    4    1    5 1     
    5    2    6 ar    
    6    2    7 ar    
    7    3    8 1     
    8    3    9 2     
    9    4   10 1     
   10    4   11 2     
   11    5   12 1     
   12    5   18 1     
   13    5   19 1     
   14    6   13 ar    
   15    6   20 1     
   16    7   14 ar    
   17    7   21 1     
   18    8   15 1     
   19    8   22 1     
   20   10   15 1     
   21   10   23 1     
   22   12   24 1     
   23   12   25 1     
   24   12   26 1     
   25   13   16 ar    
   26   13   27 1     
   27   14   16 ar    
   28   14   28 1     
   29   15   17 2     
   30   16   29 1     
@<TRIPOS>SUBSTRUCTURE
      1 RES1           1
@<TRIPOS>SET
DONOR_HYDROGENS      STATIC     ATOMS    <user>   **** ""
2 22 23
ATOM$RED        STATIC     ATOMS    COLORGROUP SYSTEM
2 22 23
@<TRIPOS>COMMENT
> <Gold.Version>
2022.3.0

> <Gold.Id.Protein>
unknown|1wbs_clean|pdb

> <Gold.Protein.RotatedTorsions>
[ 1074 1065 1064 1062 ] final   62.21 input   60.04 | X-H torsion
[ 5197 5192 5191 5188 ] final  164.64 input   60.02 | X-H torsion

> <Gold.Protein.ActiveResidues>
 TYR69   ARG73   ASP324  GLN325  SER326  PHE327  GLU328  ARG330  LEU332  TRP337 
 LEU340  ASP343  GLU344 

> <Gold.Protein.RotatedAtoms>
   23.0807   19.2489   38.1643 H   0  0  0  0  0  0  0  0  0  0  0  0  # atno 1074 bound_to 1065
   24.5091   22.7388   44.9894 H   0  0  0  0  0  0  0  0  0  0  0  0  # atno 5197 bound_to 5192
   22.0035   18.1661   38.7265 LP  0  0  0  0  0  0  0  0  0  0  0  0  # atno 5659 bound_to 1065
   22.0564   19.6718   39.3563 LP  0  0  0  0  0  0  0  0  0  0  0  0  # atno 5660 bound_to 1065
   23.2421   22.9460   43.9901 LP  0  0  0  0  0  0  0  0  0  0  0  0  # atno 5669 bound_to 5192
   23.1906   21.7996   45.1518 LP  0  0  0  0  0  0  0  0  0  0  0  0  # atno 5670 bound_to 5192

> <Gold.Score>
     Fitness  S(hb_ext) S(vdw_ext)  S(hb_int)    S(int)      intcor
     24.54       0.00      19.32       0.00      -2.02      -0.76

> <Gold.Goldscore.Fitness>
24.5449

> <Gold.Goldscore.Internal.Vdw>
-2.4063

> <Gold.Goldscore.Internal.Torsion>
-0.3819

> <Gold.Goldscore.External.Vdw>
19.3223

> <Gold.Goldscore.Internal.HBond>
0.0000

> <Gold.Goldscore.External.HBond>
0.0000

> <Gold.Goldscore.Internal.Correction>
-0.7650

> <Gold.Goldscore.Internal.Vdw.Weighted>
-2.4063

> <Gold.Goldscore.Internal.Torsion.Weighted>
-0.3819

> <Gold.Goldscore.External.Vdw.Weighted>
26.5682

> <Gold.Goldscore.Internal.HBond.Weighted>
0.0000

> <Gold.Goldscore.External.HBond.Weighted>
0.0000

> <Gold.Goldscore.Internal.Correction.Weighted>
-0.7650

> <Gold.Rescore>
     Score     S(PLP)   S(hbond)     S(cho)   S(metal)  DE(clash)   DE(tors)     intcor
     16.33     -17.78       0.00       0.00       0.00       1.20       0.13       ----

> <Gold.PLP.Fitness>
16.3302

> <Gold.PLP.PLP>
-17.7842

> <Gold.PLP.part.hbond>
0.0000

> <Gold.PLP.part.metal>
0.0000

> <Gold.PLP.part.buried>
-3.4950

> <Gold.PLP.part.nonpolar>
-14.6768

> <Gold.PLP.part.repulsive>
0.2908

> <Gold.PLP.ligand.clash>
1.1956

> <Gold.PLP.ligand.torsion>
0.1292

> <Gold.PLP.Chemscore.Hbond>
0.0000

> <Gold.PLP.Chemscore.CHOScore>
0.0000

> <Gold.PLP.Chemscore.Metal>
0.0000

> <Gold.PLP.Chemscore.Internal.Correction>
   9.000000E+99

