#       Name:                CT1002167954
#       Creating user name   hitesit
#       Creation time:       Sun Apr 16 02:21:47 2023


#       File generated by GOLD software.
#

@<TRIPOS>MOLECULE
CT1002167954|ligand_prepared|mol2|1|dock3
    29    30     1
SMALL
NO_CHARGES


@<TRIPOS>ATOM
      1 C1          24.8885  16.6522  41.7835 C.3            1 RES1               0.0000
      2 C2          24.3398  18.0408  42.1701 C.ar           1 RES1               0.0000
      3 C3          24.4189  15.6885  42.8693 C.2            1 RES1               0.0000
      4 C4          24.3338  16.3452  40.3969 C.2            1 RES1               0.0000
      5 C5          26.4317  16.5898  41.7053 C.3            1 RES1               0.0000
      6 C6          23.3417  18.1657  43.1319 C.ar           1 RES1               0.0000
      7 C7          24.8227  19.2041  41.5766 C.ar           1 RES1               0.0000
      8 N8          23.4141  14.8220  42.5537 N.am           1 RES1               0.0000
      9 O9          24.8958  15.7151  43.9972 O.2            1 RES1               0.0000
     10 N10         23.4547  15.3012  40.2737 N.am           1 RES1               0.0000
     11 O11         24.6372  17.0083  39.4127 O.2            1 RES1               0.0000
     12 C12         26.9770  15.1927  41.4542 C.3            1 RES1               0.0000
     13 C13         22.8464  19.4086  43.4896 C.ar           1 RES1               0.0000
     14 C14         24.3258  20.4461  41.9357 C.ar           1 RES1               0.0000
     15 C15         22.9461  14.5452  41.2944 C.2            1 RES1               0.0000
     16 C16         23.3383  20.5496  42.8922 C.ar           1 RES1               0.0000
     17 O17         22.1170  13.6586  41.1105 O.2            1 RES1               0.0000
     18 H18         26.7715  17.2516  40.8991 H              1 RES1               0.0000
     19 H19         26.8486  16.9674  42.6471 H              1 RES1               0.0000
     20 H20         22.9406  17.2788  43.6111 H              1 RES1               0.0000
     21 H21         25.5987  19.1466  40.8209 H              1 RES1               0.0000
     22 H22         22.9696  14.3350  43.3254 H              1 RES1               0.0000
     23 H23         23.1515  15.0659  39.3340 H              1 RES1               0.0000
     24 H24         28.0639  15.2054  41.4083 H              1 RES1               0.0000
     25 H25         26.6793  14.5136  42.2504 H              1 RES1               0.0000
     26 H26         26.6026  14.7961  40.5127 H              1 RES1               0.0000
     27 H27         22.0683  19.4846  44.2420 H              1 RES1               0.0000
     28 H28         24.7154  21.3413  41.4625 H              1 RES1               0.0000
     29 H29         22.9504  21.5232  43.1729 H              1 RES1               0.0000
@<TRIPOS>BOND
    1    1    2 1     
    2    1    3 1     
    3    1    4 1     
    4    1    5 1     
    5    2    6 ar    
    6    2    7 ar    
    7    3    8 1     
    8    3    9 2     
    9    4   10 1     
   10    4   11 2     
   11    5   12 1     
   12    5   18 1     
   13    5   19 1     
   14    6   13 ar    
   15    6   20 1     
   16    7   14 ar    
   17    7   21 1     
   18    8   15 1     
   19    8   22 1     
   20   10   15 1     
   21   10   23 1     
   22   12   24 1     
   23   12   25 1     
   24   12   26 1     
   25   13   16 ar    
   26   13   27 1     
   27   14   16 ar    
   28   14   28 1     
   29   15   17 2     
   30   16   29 1     
@<TRIPOS>SUBSTRUCTURE
      1 RES1           1
@<TRIPOS>SET
DONOR_HYDROGENS      STATIC     ATOMS    <user>   **** ""
2 22 23
ATOM$RED        STATIC     ATOMS    COLORGROUP SYSTEM
2 22 23
@<TRIPOS>COMMENT
> <Gold.Version>
2022.3.0

> <Gold.Id.Protein>
unknown|1wbs_clean|pdb

> <Gold.Protein.RotatedTorsions>
[ 1074 1065 1064 1062 ] final -124.29 input   60.04 | X-H torsion
[ 5197 5192 5191 5188 ] final -128.00 input   60.02 | X-H torsion

> <Gold.Protein.ActiveResidues>
 TYR69   ARG73   ASP324  GLN325  SER326  PHE327  GLU328  ARG330  LEU332  TRP337 
 LEU340  ASP343  GLU344 

> <Gold.Protein.RotatedAtoms>
   21.6894   18.9098   39.3665 H   0  0  0  0  0  0  0  0  0  0  0  0  # atno 1074 bound_to 1065
   23.9528   21.9835   45.4333 H   0  0  0  0  0  0  0  0  0  0  0  0  # atno 5197 bound_to 5192
   22.8258   19.8593   38.6914 LP  0  0  0  0  0  0  0  0  0  0  0  0  # atno 5659 bound_to 1065
   22.6352   18.3200   38.1807 LP  0  0  0  0  0  0  0  0  0  0  0  0  # atno 5660 bound_to 1065
   24.1992   23.1691   44.3468 LP  0  0  0  0  0  0  0  0  0  0  0  0  # atno 5669 bound_to 5192
   22.7938   22.3375   44.3478 LP  0  0  0  0  0  0  0  0  0  0  0  0  # atno 5670 bound_to 5192

> <Gold.Score>
     Fitness  S(hb_ext) S(vdw_ext)  S(hb_int)    S(int)      intcor
     23.87       3.89      15.71       0.00      -1.61      -0.76

> <Gold.Goldscore.Fitness>
23.8691

> <Gold.Goldscore.Internal.Vdw>
-1.9629

> <Gold.Goldscore.Internal.Torsion>
-0.4169

> <Gold.Goldscore.External.Vdw>
15.7073

> <Gold.Goldscore.Internal.HBond>
0.0000

> <Gold.Goldscore.External.HBond>
3.8864

> <Gold.Goldscore.Internal.Correction>
-0.7650

> <Gold.Goldscore.Hbonds>
donor molecule, donor type, donor heavy atom, donor atom, acceptor molecule, acceptor atom, score
      L1  H    10    23       P1  5495  0.65

> <Gold.Goldscore.Internal.Vdw.Weighted>
-1.9629

> <Gold.Goldscore.Internal.Torsion.Weighted>
-0.4169

> <Gold.Goldscore.External.Vdw.Weighted>
21.5976

> <Gold.Goldscore.Internal.HBond.Weighted>
0.0000

> <Gold.Goldscore.External.HBond.Weighted>
3.8864

> <Gold.Goldscore.Internal.Correction.Weighted>
-0.7650

> <Gold.Rescore>
     Score     S(PLP)   S(hbond)     S(cho)   S(metal)  DE(clash)   DE(tors)     intcor
     19.22     -18.41       1.00       0.00       0.00       2.00       0.09       ----

> <Gold.PLP.Fitness>
19.2247

> <Gold.PLP.PLP>
-18.4120

> <Gold.PLP.part.hbond>
-1.0000

> <Gold.PLP.part.metal>
0.0000

> <Gold.PLP.part.buried>
-1.1225

> <Gold.PLP.part.nonpolar>
-17.1174

> <Gold.PLP.part.repulsive>
0.6086

> <Gold.PLP.ligand.clash>
1.9974

> <Gold.PLP.ligand.torsion>
0.0950

> <Gold.PLP.Chemscore.Hbond>
1.0000

> <Gold.PLP.Chemscore.CHOScore>
0.0000

> <Gold.PLP.Chemscore.Metal>
0.0000

> <Gold.Chemscore.Hbonds>
donor molecule, donor type, donor heavy atom, donor atom, acceptor molecule, acceptor atom, score
      L1  H    10    23       P1  5495  0.49

> <Gold.PLP.Chemscore.Internal.Correction>
   9.000000E+99

