#       Name:                CT1002167954
#       Creating user name   hitesit
#       Creation time:       Sun Apr 16 02:21:49 2023


#       File generated by GOLD software.
#

@<TRIPOS>MOLECULE
CT1002167954|ligand_prepared|mol2|1|dock6
    29    30     1
SMALL
NO_CHARGES


@<TRIPOS>ATOM
      1 C1          24.2770  15.8534  42.4292 C.3            1 RES1               0.0000
      2 C2          24.0668  17.3813  42.4323 C.ar           1 RES1               0.0000
      3 C3          23.5587  15.3246  41.1912 C.2            1 RES1               0.0000
      4 C4          25.7852  15.6302  42.4162 C.2            1 RES1               0.0000
      5 C5          23.6993  15.1407  43.6742 C.3            1 RES1               0.0000
      6 C6          23.6412  18.0403  41.2828 C.ar           1 RES1               0.0000
      7 C7          24.2914  18.1435  43.5756 C.ar           1 RES1               0.0000
      8 N8          24.3267  14.9259  40.1371 N.am           1 RES1               0.0000
      9 O9          22.3359  15.2948  41.1258 O.2            1 RES1               0.0000
     10 N10         26.3381  15.0443  41.3077 N.am           1 RES1               0.0000
     11 O11         26.5019  15.9717  43.3489 O.2            1 RES1               0.0000
     12 C12         23.7374  13.6232  43.5848 C.3            1 RES1               0.0000
     13 C13         23.4444  19.4113  41.2772 C.ar           1 RES1               0.0000
     14 C14         24.0942  19.5145  43.5677 C.ar           1 RES1               0.0000
     15 C15         25.6812  14.7101  40.1548 C.2            1 RES1               0.0000
     16 C16         23.6703  20.1492  42.4196 C.ar           1 RES1               0.0000
     17 O17         26.2572  14.2368  39.1794 O.2            1 RES1               0.0000
     18 H18         24.2678  15.4568  44.5575 H              1 RES1               0.0000
     19 H19         22.6591  15.4602  43.8130 H              1 RES1               0.0000
     20 H20         23.4607  17.4766  40.3736 H              1 RES1               0.0000
     21 H21         24.6262  17.6657  44.4900 H              1 RES1               0.0000
     22 H22         23.8498  14.7744  39.2540 H              1 RES1               0.0000
     23 H23         27.3312  14.8382  41.3455 H              1 RES1               0.0000
     24 H24         23.3205  13.1734  44.4834 H              1 RES1               0.0000
     25 H25         23.1607  13.2725  42.7314 H              1 RES1               0.0000
     26 H26         24.7599  13.2691  43.4715 H              1 RES1               0.0000
     27 H27         23.1121  19.9062  40.3706 H              1 RES1               0.0000
     28 H28         24.2738  20.0914  44.4690 H              1 RES1               0.0000
     29 H29         23.5157  21.2231  42.4151 H              1 RES1               0.0000
@<TRIPOS>BOND
    1    1    2 1     
    2    1    3 1     
    3    1    4 1     
    4    1    5 1     
    5    2    6 ar    
    6    2    7 ar    
    7    3    8 1     
    8    3    9 2     
    9    4   10 1     
   10    4   11 2     
   11    5   12 1     
   12    5   18 1     
   13    5   19 1     
   14    6   13 ar    
   15    6   20 1     
   16    7   14 ar    
   17    7   21 1     
   18    8   15 1     
   19    8   22 1     
   20   10   15 1     
   21   10   23 1     
   22   12   24 1     
   23   12   25 1     
   24   12   26 1     
   25   13   16 ar    
   26   13   27 1     
   27   14   16 ar    
   28   14   28 1     
   29   15   17 2     
   30   16   29 1     
@<TRIPOS>SUBSTRUCTURE
      1 RES1           1
@<TRIPOS>SET
DONOR_HYDROGENS      STATIC     ATOMS    <user>   **** ""
2 22 23
ATOM$RED        STATIC     ATOMS    COLORGROUP SYSTEM
2 22 23
@<TRIPOS>COMMENT
> <Gold.Version>
2022.3.0

> <Gold.Id.Protein>
unknown|1wbs_clean|pdb

> <Gold.Protein.RotatedTorsions>
[ 1074 1065 1064 1062 ] final   18.96 input   60.04 | X-H torsion
[ 5197 5192 5191 5188 ] final   46.36 input   60.02 | X-H torsion

> <Gold.Protein.ActiveResidues>
 TYR69   ARG73   ASP324  GLN325  SER326  PHE327  GLU328  ARG330  LEU332  TRP337 
 LEU340  ASP343  GLU344 

> <Gold.Protein.RotatedAtoms>
   22.8698   18.5978   38.0751 H   0  0  0  0  0  0  0  0  0  0  0  0  # atno 1074 bound_to 1065
   23.2670   22.9602   43.9946 H   0  0  0  0  0  0  0  0  0  0  0  0  # atno 5197 bound_to 5192
   21.6989   18.5676   39.2050 LP  0  0  0  0  0  0  0  0  0  0  0  0  # atno 5659 bound_to 1065
   22.5734   19.9260   38.9676 LP  0  0  0  0  0  0  0  0  0  0  0  0  # atno 5660 bound_to 1065
   23.1688   21.8035   45.1344 LP  0  0  0  0  0  0  0  0  0  0  0  0  # atno 5669 bound_to 5192
   24.5152   22.7190   45.0098 LP  0  0  0  0  0  0  0  0  0  0  0  0  # atno 5670 bound_to 5192

> <Gold.Score>
     Fitness  S(hb_ext) S(vdw_ext)  S(hb_int)    S(int)      intcor
     23.14       4.13      14.89       0.00      -1.47      -0.76

> <Gold.Goldscore.Fitness>
23.1388

> <Gold.Goldscore.Internal.Vdw>
-1.7688

> <Gold.Goldscore.Internal.Torsion>
-0.4676

> <Gold.Goldscore.External.Vdw>
14.8935

> <Gold.Goldscore.Internal.HBond>
0.0000

> <Gold.Goldscore.External.HBond>
4.1316

> <Gold.Goldscore.Internal.Correction>
-0.7650

> <Gold.Goldscore.Hbonds>
donor molecule, donor type, donor heavy atom, donor atom, acceptor molecule, acceptor atom, score
      L1  H     8    22       P1  5495  0.69

> <Gold.Goldscore.Internal.Vdw.Weighted>
-1.7688

> <Gold.Goldscore.Internal.Torsion.Weighted>
-0.4676

> <Gold.Goldscore.External.Vdw.Weighted>
20.4786

> <Gold.Goldscore.Internal.HBond.Weighted>
0.0000

> <Gold.Goldscore.External.HBond.Weighted>
4.1316

> <Gold.Goldscore.Internal.Correction.Weighted>
-0.7650

> <Gold.Rescore>
     Score     S(PLP)   S(hbond)     S(cho)   S(metal)  DE(clash)   DE(tors)     intcor
     13.77     -12.86       1.00       0.00       0.00       1.99       0.05       ----

> <Gold.PLP.Fitness>
13.7663

> <Gold.PLP.PLP>
-12.8564

> <Gold.PLP.part.hbond>
-4.0000

> <Gold.PLP.part.metal>
0.0000

> <Gold.PLP.part.buried>
2.4330

> <Gold.PLP.part.nonpolar>
-10.7923

> <Gold.PLP.part.repulsive>
0.1652

> <Gold.PLP.ligand.clash>
1.9936

> <Gold.PLP.ligand.torsion>
0.0482

> <Gold.PLP.Chemscore.Hbond>
1.0000

> <Gold.PLP.Chemscore.CHOScore>
0.0000

> <Gold.PLP.Chemscore.Metal>
0.0000

> <Gold.Chemscore.Hbonds>
donor molecule, donor type, donor heavy atom, donor atom, acceptor molecule, acceptor atom, score
      L1  H     8    22       P1  5495  1.00

> <Gold.PLP.Chemscore.Internal.Correction>
   9.000000E+99

