#       Name:                CT1002167954
#       Creating user name   hitesit
#       Creation time:       Sun Apr 16 02:21:52 2023


#       File generated by GOLD software.
#

@<TRIPOS>MOLECULE
CT1002167954|ligand_prepared|mol2|1|dock9
    29    30     1
SMALL
NO_CHARGES


@<TRIPOS>ATOM
      1 C1          25.9483  19.2964  39.6404 C.3            1 RES1               0.0000
      2 C2          25.0053  19.1135  40.8471 C.ar           1 RES1               0.0000
      3 C3          25.5261  20.5952  38.9598 C.2            1 RES1               0.0000
      4 C4          27.3642  19.3218  40.2055 C.2            1 RES1               0.0000
      5 C5          25.8676  18.1505  38.6050 C.3            1 RES1               0.0000
      6 C6          24.8483  20.1302  41.7843 C.ar           1 RES1               0.0000
      7 C7          24.2850  17.9368  41.0348 C.ar           1 RES1               0.0000
      8 N8          26.3351  21.6820  39.1156 N.am           1 RES1               0.0000
      9 O9          24.4793  20.6751  38.3290 O.2            1 RES1               0.0000
     10 N10         28.0774  20.4870  40.0985 N.am           1 RES1               0.0000
     11 O11         27.8626  18.3485  40.7572 O.2            1 RES1               0.0000
     12 C12         26.7450  18.3664  37.3820 C.3            1 RES1               0.0000
     13 C13         23.9997  19.9774  42.8682 C.ar           1 RES1               0.0000
     14 C14         23.4371  17.7860  42.1196 C.ar           1 RES1               0.0000
     15 C15         27.6159  21.6775  39.6066 C.2            1 RES1               0.0000
     16 C16         23.2933  18.8056  43.0363 C.ar           1 RES1               0.0000
     17 O17         28.2999  22.6969  39.5936 O.2            1 RES1               0.0000
     18 H18         26.1646  17.2134  39.0917 H              1 RES1               0.0000
     19 H19         24.8261  18.0430  38.2778 H              1 RES1               0.0000
     20 H20         25.3978  21.0586  41.6698 H              1 RES1               0.0000
     21 H21         24.3833  17.1209  40.3268 H              1 RES1               0.0000
     22 H22         25.9523  22.5813  38.8417 H              1 RES1               0.0000
     23 H23         29.0416  20.4648  40.4147 H              1 RES1               0.0000
     24 H24         26.6509  17.5338  36.6880 H              1 RES1               0.0000
     25 H25         26.4606  19.2772  36.8592 H              1 RES1               0.0000
     26 H26         27.7912  18.4524  37.6682 H              1 RES1               0.0000
     27 H27         23.8911  20.7823  43.5876 H              1 RES1               0.0000
     28 H28         22.8835  16.8617  42.2483 H              1 RES1               0.0000
     29 H29         22.6283  18.6863  43.8853 H              1 RES1               0.0000
@<TRIPOS>BOND
    1    1    2 1     
    2    1    3 1     
    3    1    4 1     
    4    1    5 1     
    5    2    6 ar    
    6    2    7 ar    
    7    3    8 1     
    8    3    9 2     
    9    4   10 1     
   10    4   11 2     
   11    5   12 1     
   12    5   18 1     
   13    5   19 1     
   14    6   13 ar    
   15    6   20 1     
   16    7   14 ar    
   17    7   21 1     
   18    8   15 1     
   19    8   22 1     
   20   10   15 1     
   21   10   23 1     
   22   12   24 1     
   23   12   25 1     
   24   12   26 1     
   25   13   16 ar    
   26   13   27 1     
   27   14   16 ar    
   28   14   28 1     
   29   15   17 2     
   30   16   29 1     
@<TRIPOS>SUBSTRUCTURE
      1 RES1           1
@<TRIPOS>SET
DONOR_HYDROGENS      STATIC     ATOMS    <user>   **** ""
2 22 23
ATOM$RED        STATIC     ATOMS    COLORGROUP SYSTEM
2 22 23
@<TRIPOS>COMMENT
> <Gold.Version>
2022.3.0

> <Gold.Id.Protein>
unknown|1wbs_clean|pdb

> <Gold.Protein.RotatedTorsions>
[ 1074 1065 1064 1062 ] final  106.96 input   60.04 | X-H torsion
[ 5197 5192 5191 5188 ] final   71.18 input   60.02 | X-H torsion

> <Gold.Protein.ActiveResidues>
 TYR69   ARG73   ASP324  GLN325  SER326  PHE327  GLU328  ARG330  LEU332  TRP337 
 LEU340  ASP343  GLU344 

> <Gold.Protein.RotatedAtoms>
   22.8993   19.7933   38.5873 H   0  0  0  0  0  0  0  0  0  0  0  0  # atno 1074 bound_to 1065
   23.6261   23.1376   44.0309 H   0  0  0  0  0  0  0  0  0  0  0  0  # atno 5197 bound_to 5192
   22.5320   18.2447   38.2471 LP  0  0  0  0  0  0  0  0  0  0  0  0  # atno 5659 bound_to 1065
   21.7106   19.0450   39.4096 LP  0  0  0  0  0  0  0  0  0  0  0  0  # atno 5660 bound_to 1065
   22.9102   21.9262   44.8475 LP  0  0  0  0  0  0  0  0  0  0  0  0  # atno 5669 bound_to 5192
   24.4119   22.4176   45.2600 LP  0  0  0  0  0  0  0  0  0  0  0  0  # atno 5670 bound_to 5192

> <Gold.Score>
     Fitness  S(hb_ext) S(vdw_ext)  S(hb_int)    S(int)      intcor
     23.55       2.00      15.74       0.00      -0.10      -0.76

> <Gold.Goldscore.Fitness>
23.5504

> <Gold.Goldscore.Internal.Vdw>
-0.4785

> <Gold.Goldscore.Internal.Torsion>
-0.3820

> <Gold.Goldscore.External.Vdw>
15.7425

> <Gold.Goldscore.Internal.HBond>
0.0000

> <Gold.Goldscore.External.HBond>
2.0000

> <Gold.Goldscore.Internal.Correction>
-0.7650

> <Gold.Goldscore.Hbonds>
donor molecule, donor type, donor heavy atom, donor atom, acceptor molecule, acceptor atom, score
      P1  H  1065  1074       L1     9  1.00

> <Gold.Goldscore.Internal.Vdw.Weighted>
-0.4785

> <Gold.Goldscore.Internal.Torsion.Weighted>
-0.3820

> <Gold.Goldscore.External.Vdw.Weighted>
21.6459

> <Gold.Goldscore.Internal.HBond.Weighted>
0.0000

> <Gold.Goldscore.External.HBond.Weighted>
2.0000

> <Gold.Goldscore.Internal.Correction.Weighted>
-0.7650

> <Gold.Rescore>
     Score     S(PLP)   S(hbond)     S(cho)   S(metal)  DE(clash)   DE(tors)     intcor
     22.13     -18.48       1.69       0.00       0.00       0.00       0.70       ----

> <Gold.PLP.Fitness>
22.1344

> <Gold.PLP.PLP>
-18.4793

> <Gold.PLP.part.hbond>
-2.0000

> <Gold.PLP.part.metal>
0.0000

> <Gold.PLP.part.buried>
-2.4659

> <Gold.PLP.part.nonpolar>
-15.0048

> <Gold.PLP.part.repulsive>
1.4274

> <Gold.PLP.ligand.clash>
0.0000

> <Gold.PLP.ligand.torsion>
0.7021

> <Gold.PLP.Chemscore.Hbond>
1.6864

> <Gold.PLP.Chemscore.CHOScore>
0.0000

> <Gold.PLP.Chemscore.Metal>
0.0000

> <Gold.Chemscore.Hbonds>
donor molecule, donor type, donor heavy atom, donor atom, acceptor molecule, acceptor atom, score
      P1  H  1065  1074       L1     9  1.00

> <Gold.PLP.Chemscore.Internal.Correction>
   9.000000E+99

