#       Name:                GA Fitting Points
#       Creating user name   hitesit
#       Creation time:       Sun Apr 16 02:22:18 2023


#       Fitting Points Used by GA Software.
#

@<TRIPOS>MOLECULE
GA Fitting Points
  3232    0    0
SMALL
NO_CHARGES


@<TRIPOS>ATOM
      1 ****         0.5000  12.5000   7.2500 Du        
      2 ****         0.5000  12.7500   7.0000 Du        
      3 ****         0.5000  12.7500   7.2500 Du        
      4 ****         0.5000  13.0000   7.0000 Du        
      5 ****         0.5000  13.0000   7.2500 Du        
      6 ****         0.5000  13.2500   7.2500 Du        
      7 ****         0.7500  12.0000   7.2500 Du        
      8 ****         0.7500  12.2500   7.0000 Du        
      9 ****         0.7500  12.2500   7.2500 Du        
     10 ****         0.7500  12.5000   7.0000 Du        
     11 ****         0.7500  12.5000   7.2500 Du        
     12 ****         0.7500  12.7500   7.0000 Du        
     13 ****         0.7500  12.7500   7.2500 Du        
     14 ****         0.7500  13.0000   7.0000 Du        
     15 ****         0.7500  13.0000   7.2500 Du        
     16 ****         0.7500  13.2500   7.2500 Du        
     17 ****         1.0000  11.7500   7.2500 Du        
     18 ****         1.0000  12.0000   6.7500 Du        
     19 ****         1.0000  12.0000   7.0000 Du        
     20 ****         1.0000  12.0000   7.2500 Du        
     21 ****         1.0000  12.0000   7.5000 Du        
     22 ****         1.0000  12.0000   7.7500 Du        
     23 ****         1.0000  12.2500   6.7500 Du        
     24 ****         1.0000  12.2500   7.0000 Du        
     25 ****         1.0000  12.2500   7.2500 Du        
     26 ****         1.0000  12.2500   7.5000 Du        
     27 ****         1.0000  12.2500   7.7500 Du        
     28 ****         1.0000  12.5000   6.7500 Du        
     29 ****         1.0000  12.5000   7.0000 Du        
     30 ****         1.0000  12.5000   7.2500 Du        
     31 ****         1.0000  12.5000   7.5000 Du        
     32 ****         1.0000  12.7500   7.0000 Du        
     33 ****         1.0000  12.7500   7.2500 Du        
     34 ****         1.0000  12.7500   7.5000 Du        
     35 ****         1.0000  13.0000   7.0000 Du        
     36 ****         1.0000  13.0000   7.2500 Du        
     37 ****         1.0000  13.2500   7.2500 Du        
     38 ****         1.2500  11.5000   7.2500 Du        
     39 ****         1.2500  11.7500   6.7500 Du        
     40 ****         1.2500  11.7500   7.0000 Du        
     41 ****         1.2500  11.7500   7.2500 Du        
     42 ****         1.2500  11.7500   7.5000 Du        
     43 ****         1.2500  11.7500   7.7500 Du        
     44 ****         1.2500  12.0000   6.7500 Du        
     45 ****         1.2500  12.0000   7.0000 Du        
     46 ****         1.2500  12.0000   7.2500 Du        
     47 ****         1.2500  12.0000   7.5000 Du        
     48 ****         1.2500  12.0000   7.7500 Du        
     49 ****         1.2500  12.2500   6.7500 Du        
     50 ****         1.2500  12.2500   7.0000 Du        
     51 ****         1.2500  12.2500   7.2500 Du        
     52 ****         1.2500  12.2500   7.5000 Du        
     53 ****         1.2500  12.2500   7.7500 Du        
     54 ****         1.2500  12.5000   6.7500 Du        
     55 ****         1.2500  12.5000   7.0000 Du        
     56 ****         1.2500  12.5000   7.2500 Du        
     57 ****         1.2500  12.5000   7.5000 Du        
     58 ****         1.2500  12.5000   7.7500 Du        
     59 ****         1.2500  12.7500   7.0000 Du        
     60 ****         1.2500  12.7500   7.2500 Du        
     61 ****         1.2500  12.7500   7.5000 Du        
     62 ****         1.2500  12.7500   7.7500 Du        
     63 ****         1.2500  13.0000   7.2500 Du        
     64 ****         1.2500  13.0000   7.5000 Du        
     65 ****         1.5000  11.0000   7.7500 Du        
     66 ****         1.5000  11.0000   8.0000 Du        
     67 ****         1.5000  11.2500   7.5000 Du        
     68 ****         1.5000  11.2500   7.7500 Du        
     69 ****         1.5000  11.2500   8.0000 Du        
     70 ****         1.5000  11.2500   8.2500 Du        
     71 ****         1.5000  11.5000   7.2500 Du        
     72 ****         1.5000  11.5000   7.5000 Du        
     73 ****         1.5000  11.5000   7.7500 Du        
     74 ****         1.5000  11.5000   8.0000 Du        
     75 ****         1.5000  11.5000   8.2500 Du        
     76 ****         1.5000  11.7500   6.7500 Du        
     77 ****         1.5000  11.7500   7.0000 Du        
     78 ****         1.5000  11.7500   7.2500 Du        
     79 ****         1.5000  11.7500   7.5000 Du        
     80 ****         1.5000  11.7500   7.7500 Du        
     81 ****         1.5000  11.7500   8.0000 Du        
     82 ****         1.5000  12.0000   6.7500 Du        
     83 ****         1.5000  12.0000   7.0000 Du        
     84 ****         1.5000  12.0000   7.2500 Du        
     85 ****         1.5000  12.0000   7.5000 Du        
     86 ****         1.5000  12.0000   7.7500 Du        
     87 ****         1.5000  12.0000   8.0000 Du        
     88 ****         1.5000  12.0000   8.2500 Du        
     89 ****         1.5000  12.2500   6.7500 Du        
     90 ****         1.5000  12.2500   7.0000 Du        
     91 ****         1.5000  12.2500   7.2500 Du        
     92 ****         1.5000  12.2500   7.5000 Du        
     93 ****         1.5000  12.2500   7.7500 Du        
     94 ****         1.5000  12.2500   8.0000 Du        
     95 ****         1.5000  12.2500   8.2500 Du        
     96 ****         1.5000  12.5000   6.7500 Du        
     97 ****         1.5000  12.5000   7.0000 Du        
     98 ****         1.5000  12.5000   7.2500 Du        
     99 ****         1.5000  12.5000   7.5000 Du        
    100 ****         1.5000  12.5000   7.7500 Du        
    101 ****         1.5000  12.5000   8.0000 Du        
    102 ****         1.5000  12.7500   7.0000 Du        
    103 ****         1.5000  12.7500   7.2500 Du        
    104 ****         1.5000  12.7500   7.5000 Du        
    105 ****         1.5000  12.7500   7.7500 Du        
    106 ****         1.5000  12.7500   8.0000 Du        
    107 ****         1.5000  13.0000   7.2500 Du        
    108 ****         1.5000  13.0000   7.5000 Du        
    109 ****         1.5000  13.0000   7.7500 Du        
    110 ****         1.5000  13.0000   8.0000 Du        
    111 ****         1.5000  13.2500   7.2500 Du        
    112 ****         1.5000  13.2500   7.5000 Du        
    113 ****         1.5000  13.2500   7.7500 Du        
    114 ****         1.5000  15.2500  12.7500 Du        
    115 ****         1.5000  15.2500  13.0000 Du        
    116 ****         1.5000  15.2500  13.2500 Du        
    117 ****         1.5000  15.5000  12.5000 Du        
    118 ****         1.5000  15.5000  12.7500 Du        
    119 ****         1.5000  15.5000  13.0000 Du        
    120 ****         1.5000  15.5000  13.2500 Du        
    121 ****         1.5000  15.7500  12.2500 Du        
    122 ****         1.5000  15.7500  12.5000 Du        
    123 ****         1.5000  15.7500  12.7500 Du        
    124 ****         1.5000  15.7500  13.0000 Du        
    125 ****         1.5000  15.7500  13.2500 Du        
    126 ****         1.7500  10.7500   8.0000 Du        
    127 ****         1.7500  10.7500   8.2500 Du        
    128 ****         1.7500  11.0000   7.7500 Du        
    129 ****         1.7500  11.0000   8.0000 Du        
    130 ****         1.7500  11.0000   8.2500 Du        
    131 ****         1.7500  11.2500   7.2500 Du        
    132 ****         1.7500  11.2500   7.5000 Du        
    133 ****         1.7500  11.2500   7.7500 Du        
    134 ****         1.7500  11.2500   8.0000 Du        
    135 ****         1.7500  11.2500   8.2500 Du        
    136 ****         1.7500  11.5000   7.0000 Du        
    137 ****         1.7500  11.5000   7.2500 Du        
    138 ****         1.7500  11.5000   7.5000 Du        
    139 ****         1.7500  11.5000   7.7500 Du        
    140 ****         1.7500  11.5000   8.0000 Du        
    141 ****         1.7500  11.5000   8.2500 Du        
    142 ****         1.7500  11.7500   6.7500 Du        
    143 ****         1.7500  11.7500   7.0000 Du        
    144 ****         1.7500  11.7500   7.2500 Du        
    145 ****         1.7500  11.7500   7.5000 Du        
    146 ****         1.7500  11.7500   7.7500 Du        
    147 ****         1.7500  11.7500   8.0000 Du        
    148 ****         1.7500  11.7500   8.2500 Du        
    149 ****         1.7500  12.0000   6.7500 Du        
    150 ****         1.7500  12.0000   7.0000 Du        
    151 ****         1.7500  12.0000   7.2500 Du        
    152 ****         1.7500  12.0000   7.5000 Du        
    153 ****         1.7500  12.0000   7.7500 Du        
    154 ****         1.7500  12.0000   8.0000 Du        
    155 ****         1.7500  12.2500   6.7500 Du        
    156 ****         1.7500  12.2500   7.0000 Du        
    157 ****         1.7500  12.2500   7.2500 Du        
    158 ****         1.7500  12.2500   7.5000 Du        
    159 ****         1.7500  12.2500   7.7500 Du        
    160 ****         1.7500  12.2500   8.0000 Du        
    161 ****         1.7500  12.5000   6.7500 Du        
    162 ****         1.7500  12.5000   7.0000 Du        
    163 ****         1.7500  12.5000   7.2500 Du        
    164 ****         1.7500  12.5000   7.5000 Du        
    165 ****         1.7500  12.5000   7.7500 Du        
    166 ****         1.7500  12.5000   8.0000 Du        
    167 ****         1.7500  12.7500   7.0000 Du        
    168 ****         1.7500  12.7500   7.2500 Du        
    169 ****         1.7500  12.7500   7.5000 Du        
    170 ****         1.7500  12.7500   7.7500 Du        
    171 ****         1.7500  12.7500   8.0000 Du        
    172 ****         1.7500  13.0000   7.0000 Du        
    173 ****         1.7500  13.0000   7.2500 Du        
    174 ****         1.7500  13.0000   7.5000 Du        
    175 ****         1.7500  13.0000   7.7500 Du        
    176 ****         1.7500  13.0000   8.0000 Du        
    177 ****         1.7500  13.2500   7.2500 Du        
    178 ****         1.7500  13.2500   7.5000 Du        
    179 ****         1.7500  13.2500   7.7500 Du        
    180 ****         1.7500  13.2500   8.0000 Du        
    181 ****         1.7500  13.5000   7.2500 Du        
    182 ****         1.7500  13.5000   7.5000 Du        
    183 ****         1.7500  13.5000   7.7500 Du        
    184 ****         1.7500  13.5000   8.0000 Du        
    185 ****         1.7500  13.7500   7.5000 Du        
    186 ****         1.7500  13.7500   7.7500 Du        
    187 ****         1.7500  14.0000   7.7500 Du        
    188 ****         1.7500  14.2500   7.7500 Du        
    189 ****         1.7500  14.7500  12.5000 Du        
    190 ****         1.7500  14.7500  12.7500 Du        
    191 ****         1.7500  14.7500  13.0000 Du        
    192 ****         1.7500  14.7500  13.2500 Du        
    193 ****         1.7500  15.0000  12.2500 Du        
    194 ****         1.7500  15.0000  12.5000 Du        
    195 ****         1.7500  15.0000  12.7500 Du        
    196 ****         1.7500  15.0000  13.0000 Du        
    197 ****         1.7500  15.0000  13.2500 Du        
    198 ****         1.7500  15.0000  13.5000 Du        
    199 ****         1.7500  15.2500  12.2500 Du        
    200 ****         1.7500  15.2500  12.5000 Du        
    201 ****         1.7500  15.2500  12.7500 Du        
    202 ****         1.7500  15.2500  13.0000 Du        
    203 ****         1.7500  15.2500  13.2500 Du        
    204 ****         1.7500  15.2500  13.5000 Du        
    205 ****         1.7500  15.5000  12.2500 Du        
    206 ****         1.7500  15.5000  12.5000 Du        
    207 ****         1.7500  15.5000  12.7500 Du        
    208 ****         1.7500  15.5000  13.0000 Du        
    209 ****         1.7500  15.5000  13.2500 Du        
    210 ****         1.7500  15.7500  12.5000 Du        
    211 ****         1.7500  15.7500  12.7500 Du        
    212 ****         1.7500  15.7500  13.0000 Du        
    213 ****         2.0000  10.7500   8.0000 Du        
    214 ****         2.0000  11.0000   7.7500 Du        
    215 ****         2.0000  11.0000   8.0000 Du        
    216 ****         2.0000  11.0000   8.2500 Du        
    217 ****         2.0000  11.2500   7.5000 Du        
    218 ****         2.0000  11.2500   7.7500 Du        
    219 ****         2.0000  11.2500   8.0000 Du        
    220 ****         2.0000  11.5000   7.2500 Du        
    221 ****         2.0000  11.5000   7.5000 Du        
    222 ****         2.0000  11.5000   7.7500 Du        
    223 ****         2.0000  11.5000   8.0000 Du        
    224 ****         2.0000  11.7500   7.0000 Du        
    225 ****         2.0000  11.7500   7.2500 Du        
    226 ****         2.0000  11.7500   7.5000 Du        
    227 ****         2.0000  11.7500   7.7500 Du        
    228 ****         2.0000  11.7500   8.0000 Du        
    229 ****         2.0000  12.0000   6.7500 Du        
    230 ****         2.0000  12.0000   7.0000 Du        
    231 ****         2.0000  12.0000   7.2500 Du        
    232 ****         2.0000  12.0000   7.5000 Du        
    233 ****         2.0000  12.0000   7.7500 Du        
    234 ****         2.0000  12.2500   6.7500 Du        
    235 ****         2.0000  12.2500   7.0000 Du        
    236 ****         2.0000  12.2500   7.2500 Du        
    237 ****         2.0000  12.2500   7.5000 Du        
    238 ****         2.0000  12.2500   7.7500 Du        
    239 ****         2.0000  12.5000   7.0000 Du        
    240 ****         2.0000  12.5000   7.2500 Du        
    241 ****         2.0000  12.5000   7.5000 Du        
    242 ****         2.0000  12.7500   7.0000 Du        
    243 ****         2.0000  12.7500   7.2500 Du        
    244 ****         2.0000  12.7500   7.5000 Du        
    245 ****         2.0000  13.0000   7.2500 Du        
    246 ****         2.0000  13.0000   7.5000 Du        
    247 ****         2.0000  13.2500   7.2500 Du        
    248 ****         2.0000  13.2500   7.5000 Du        
    249 ****         2.0000  13.2500   7.7500 Du        
    250 ****         2.0000  13.7500   7.7500 Du        
    251 ****         2.0000  14.0000   7.7500 Du        
    252 ****         2.0000  14.5000  12.0000 Du        
    253 ****         2.0000  14.5000  12.2500 Du        
    254 ****         2.0000  14.5000  12.5000 Du        
    255 ****         2.0000  14.5000  12.7500 Du        
    256 ****         2.0000  14.5000  13.0000 Du        
    257 ****         2.0000  14.5000  13.2500 Du        
    258 ****         2.0000  14.7500  12.0000 Du        
    259 ****         2.0000  14.7500  12.2500 Du        
    260 ****         2.0000  14.7500  12.5000 Du        
    261 ****         2.0000  14.7500  12.7500 Du        
    262 ****         2.0000  14.7500  13.0000 Du        
    263 ****         2.0000  14.7500  13.2500 Du        
    264 ****         2.0000  14.7500  13.5000 Du        
    265 ****         2.0000  14.7500  13.7500 Du        
    266 ****         2.0000  15.0000  12.0000 Du        
    267 ****         2.0000  15.0000  12.2500 Du        
    268 ****         2.0000  15.0000  12.5000 Du        
    269 ****         2.0000  15.0000  12.7500 Du        
    270 ****         2.0000  15.0000  13.0000 Du        
    271 ****         2.0000  15.0000  13.2500 Du        
    272 ****         2.0000  15.0000  13.5000 Du        
    273 ****         2.0000  15.0000  13.7500 Du        
    274 ****         2.0000  15.2500  12.2500 Du        
    275 ****         2.0000  15.2500  12.5000 Du        
    276 ****         2.0000  15.2500  12.7500 Du        
    277 ****         2.0000  15.2500  13.0000 Du        
    278 ****         2.0000  15.2500  13.2500 Du        
    279 ****         2.0000  15.2500  13.5000 Du        
    280 ****         2.0000  15.5000  12.5000 Du        
    281 ****         2.0000  15.5000  12.7500 Du        
    282 ****         2.0000  15.5000  13.0000 Du        
    283 ****         2.0000  15.5000  13.2500 Du        
    284 ****         2.0000  15.7500  12.7500 Du        
    285 ****         2.0000  15.7500  13.0000 Du        
    286 ****         2.2500  12.2500   7.0000 Du        
    287 ****         2.2500  14.2500  12.0000 Du        
    288 ****         2.2500  14.2500  12.2500 Du        
    289 ****         2.2500  14.2500  12.5000 Du        
    290 ****         2.2500  14.2500  12.7500 Du        
    291 ****         2.2500  14.2500  13.0000 Du        
    292 ****         2.2500  14.2500  13.2500 Du        
    293 ****         2.2500  14.5000  11.7500 Du        
    294 ****         2.2500  14.5000  12.0000 Du        
    295 ****         2.2500  14.5000  12.2500 Du        
    296 ****         2.2500  14.5000  12.5000 Du        
    297 ****         2.2500  14.5000  12.7500 Du        
    298 ****         2.2500  14.5000  13.0000 Du        
    299 ****         2.2500  14.5000  13.2500 Du        
    300 ****         2.2500  14.5000  13.5000 Du        
    301 ****         2.2500  14.5000  13.7500 Du        
    302 ****         2.2500  14.7500  11.7500 Du        
    303 ****         2.2500  14.7500  12.0000 Du        
    304 ****         2.2500  14.7500  12.2500 Du        
    305 ****         2.2500  14.7500  12.5000 Du        
    306 ****         2.2500  14.7500  12.7500 Du        
    307 ****         2.2500  14.7500  13.0000 Du        
    308 ****         2.2500  14.7500  13.2500 Du        
    309 ****         2.2500  14.7500  13.5000 Du        
    310 ****         2.2500  14.7500  13.7500 Du        
    311 ****         2.2500  15.0000  12.0000 Du        
    312 ****         2.2500  15.0000  12.2500 Du        
    313 ****         2.2500  15.0000  12.5000 Du        
    314 ****         2.2500  15.0000  12.7500 Du        
    315 ****         2.2500  15.0000  13.0000 Du        
    316 ****         2.2500  15.0000  13.2500 Du        
    317 ****         2.2500  15.0000  13.5000 Du        
    318 ****         2.2500  15.0000  13.7500 Du        
    319 ****         2.2500  15.2500  12.5000 Du        
    320 ****         2.2500  15.2500  12.7500 Du        
    321 ****         2.2500  15.2500  13.0000 Du        
    322 ****         2.2500  15.2500  13.2500 Du        
    323 ****         2.2500  15.2500  13.5000 Du        
    324 ****         2.2500  15.5000  12.7500 Du        
    325 ****         2.2500  15.5000  13.0000 Du        
    326 ****         2.2500  15.5000  13.2500 Du        
    327 ****         2.2500  15.7500  13.0000 Du        
    328 ****         2.5000   2.7500   1.0000 Du        
    329 ****         2.5000   3.0000   1.2500 Du        
    330 ****         2.5000   3.0000   1.5000 Du        
    331 ****         2.5000   3.2500   1.2500 Du        
    332 ****         2.5000   3.2500   1.5000 Du        
    333 ****         2.5000   3.5000   1.5000 Du        
    334 ****         2.5000  14.0000  11.7500 Du        
    335 ****         2.5000  14.0000  12.0000 Du        
    336 ****         2.5000  14.0000  12.2500 Du        
    337 ****         2.5000  14.0000  12.5000 Du        
    338 ****         2.5000  14.0000  12.7500 Du        
    339 ****         2.5000  14.0000  13.0000 Du        
    340 ****         2.5000  14.0000  13.7500 Du        
    341 ****         2.5000  14.2500  11.5000 Du        
    342 ****         2.5000  14.2500  11.7500 Du        
    343 ****         2.5000  14.2500  12.0000 Du        
    344 ****         2.5000  14.2500  12.2500 Du        
    345 ****         2.5000  14.2500  12.5000 Du        
    346 ****         2.5000  14.2500  12.7500 Du        
    347 ****         2.5000  14.2500  13.0000 Du        
    348 ****         2.5000  14.2500  13.2500 Du        
    349 ****         2.5000  14.2500  13.5000 Du        
    350 ****         2.5000  14.2500  13.7500 Du        
    351 ****         2.5000  14.5000  11.5000 Du        
    352 ****         2.5000  14.5000  11.7500 Du        
    353 ****         2.5000  14.5000  12.0000 Du        
    354 ****         2.5000  14.5000  12.2500 Du        
    355 ****         2.5000  14.5000  12.5000 Du        
    356 ****         2.5000  14.5000  12.7500 Du        
    357 ****         2.5000  14.5000  13.0000 Du        
    358 ****         2.5000  14.5000  13.2500 Du        
    359 ****         2.5000  14.5000  13.5000 Du        
    360 ****         2.5000  14.5000  13.7500 Du        
    361 ****         2.5000  14.7500  11.7500 Du        
    362 ****         2.5000  14.7500  12.0000 Du        
    363 ****         2.5000  14.7500  12.2500 Du        
    364 ****         2.5000  14.7500  12.5000 Du        
    365 ****         2.5000  14.7500  12.7500 Du        
    366 ****         2.5000  14.7500  13.0000 Du        
    367 ****         2.5000  14.7500  13.2500 Du        
    368 ****         2.5000  14.7500  13.5000 Du        
    369 ****         2.5000  14.7500  13.7500 Du        
    370 ****         2.5000  15.0000  12.2500 Du        
    371 ****         2.5000  15.0000  12.5000 Du        
    372 ****         2.5000  15.0000  12.7500 Du        
    373 ****         2.5000  15.0000  13.0000 Du        
    374 ****         2.5000  15.0000  13.2500 Du        
    375 ****         2.5000  15.0000  13.5000 Du        
    376 ****         2.5000  15.2500  12.5000 Du        
    377 ****         2.5000  15.2500  12.7500 Du        
    378 ****         2.5000  15.2500  13.0000 Du        
    379 ****         2.5000  15.2500  13.2500 Du        
    380 ****         2.5000  15.2500  13.5000 Du        
    381 ****         2.5000  15.5000  12.7500 Du        
    382 ****         2.5000  15.5000  13.0000 Du        
    383 ****         2.5000  15.5000  13.2500 Du        
    384 ****         2.7500   2.7500   1.2500 Du        
    385 ****         2.7500   2.7500   1.5000 Du        
    386 ****         2.7500   2.7500   1.7500 Du        
    387 ****         2.7500   3.0000   0.7500 Du        
    388 ****         2.7500   3.0000   1.0000 Du        
    389 ****         2.7500   3.0000   1.2500 Du        
    390 ****         2.7500   3.0000   1.5000 Du        
    391 ****         2.7500   3.0000   1.7500 Du        
    392 ****         2.7500   3.0000   2.0000 Du        
    393 ****         2.7500   3.0000   2.2500 Du        
    394 ****         2.7500   3.2500   0.7500 Du        
    395 ****         2.7500   3.2500   1.0000 Du        
    396 ****         2.7500   3.2500   1.2500 Du        
    397 ****         2.7500   3.2500   1.5000 Du        
    398 ****         2.7500   3.2500   1.7500 Du        
    399 ****         2.7500   3.2500   2.0000 Du        
    400 ****         2.7500   3.2500   2.2500 Du        
    401 ****         2.7500   3.5000   0.7500 Du        
    402 ****         2.7500   3.5000   1.0000 Du        
    403 ****         2.7500   3.5000   1.2500 Du        
    404 ****         2.7500   3.5000   1.5000 Du        
    405 ****         2.7500   3.5000   1.7500 Du        
    406 ****         2.7500   3.5000   2.0000 Du        
    407 ****         2.7500   3.5000   2.2500 Du        
    408 ****         2.7500   3.5000   2.5000 Du        
    409 ****         2.7500   3.7500   0.7500 Du        
    410 ****         2.7500   3.7500   1.0000 Du        
    411 ****         2.7500   3.7500   1.2500 Du        
    412 ****         2.7500   3.7500   1.5000 Du        
    413 ****         2.7500   3.7500   1.7500 Du        
    414 ****         2.7500   3.7500   2.0000 Du        
    415 ****         2.7500   3.7500   2.2500 Du        
    416 ****         2.7500   3.7500   2.5000 Du        
    417 ****         2.7500   4.0000   1.2500 Du        
    418 ****         2.7500   4.0000   1.5000 Du        
    419 ****         2.7500   4.0000   1.7500 Du        
    420 ****         2.7500   4.0000   2.0000 Du        
    421 ****         2.7500   4.0000   2.2500 Du        
    422 ****         2.7500  14.0000  11.7500 Du        
    423 ****         2.7500  14.0000  12.0000 Du        
    424 ****         2.7500  14.0000  12.2500 Du        
    425 ****         2.7500  14.0000  12.5000 Du        
    426 ****         2.7500  14.0000  12.7500 Du        
    427 ****         2.7500  14.0000  13.0000 Du        
    428 ****         2.7500  14.0000  13.2500 Du        
    429 ****         2.7500  14.2500  11.5000 Du        
    430 ****         2.7500  14.2500  11.7500 Du        
    431 ****         2.7500  14.2500  12.0000 Du        
    432 ****         2.7500  14.2500  12.2500 Du        
    433 ****         2.7500  14.2500  12.5000 Du        
    434 ****         2.7500  14.2500  12.7500 Du        
    435 ****         2.7500  14.2500  13.0000 Du        
    436 ****         2.7500  14.2500  13.2500 Du        
    437 ****         2.7500  14.2500  13.5000 Du        
    438 ****         2.7500  14.2500  13.7500 Du        
    439 ****         2.7500  14.5000  11.5000 Du        
    440 ****         2.7500  14.5000  11.7500 Du        
    441 ****         2.7500  14.5000  12.0000 Du        
    442 ****         2.7500  14.5000  12.2500 Du        
    443 ****         2.7500  14.5000  12.5000 Du        
    444 ****         2.7500  14.5000  12.7500 Du        
    445 ****         2.7500  14.5000  13.0000 Du        
    446 ****         2.7500  14.5000  13.2500 Du        
    447 ****         2.7500  14.5000  13.5000 Du        
    448 ****         2.7500  14.5000  13.7500 Du        
    449 ****         2.7500  14.7500  12.0000 Du        
    450 ****         2.7500  14.7500  12.2500 Du        
    451 ****         2.7500  14.7500  12.5000 Du        
    452 ****         2.7500  14.7500  12.7500 Du        
    453 ****         2.7500  14.7500  13.0000 Du        
    454 ****         2.7500  14.7500  13.2500 Du        
    455 ****         2.7500  14.7500  13.5000 Du        
    456 ****         2.7500  15.0000  12.2500 Du        
    457 ****         2.7500  15.0000  12.5000 Du        
    458 ****         2.7500  15.0000  12.7500 Du        
    459 ****         2.7500  15.0000  13.0000 Du        
    460 ****         2.7500  15.0000  13.2500 Du        
    461 ****         2.7500  15.0000  13.5000 Du        
    462 ****         2.7500  15.2500  12.7500 Du        
    463 ****         2.7500  15.2500  13.0000 Du        
    464 ****         2.7500  15.2500  13.2500 Du        
    465 ****         2.7500  15.5000  13.0000 Du        
    466 ****         3.0000   2.7500   1.7500 Du        
    467 ****         3.0000   2.7500   2.0000 Du        
    468 ****         3.0000   3.0000   1.2500 Du        
    469 ****         3.0000   3.0000   1.5000 Du        
    470 ****         3.0000   3.0000   1.7500 Du        
    471 ****         3.0000   3.0000   2.0000 Du        
    472 ****         3.0000   3.0000   2.2500 Du        
    473 ****         3.0000   3.2500   1.0000 Du        
    474 ****         3.0000   3.2500   1.2500 Du        
    475 ****         3.0000   3.2500   1.5000 Du        
    476 ****         3.0000   3.2500   1.7500 Du        
    477 ****         3.0000   3.2500   2.0000 Du        
    478 ****         3.0000   3.2500   2.2500 Du        
    479 ****         3.0000   3.2500   2.5000 Du        
    480 ****         3.0000   3.5000   0.7500 Du        
    481 ****         3.0000   3.5000   1.0000 Du        
    482 ****         3.0000   3.5000   1.2500 Du        
    483 ****         3.0000   3.5000   1.5000 Du        
    484 ****         3.0000   3.5000   1.7500 Du        
    485 ****         3.0000   3.5000   2.0000 Du        
    486 ****         3.0000   3.5000   2.2500 Du        
    487 ****         3.0000   3.5000   2.5000 Du        
    488 ****         3.0000   3.5000   2.7500 Du        
    489 ****         3.0000   3.5000   3.0000 Du        
    490 ****         3.0000   3.7500   1.0000 Du        
    491 ****         3.0000   3.7500   1.2500 Du        
    492 ****         3.0000   3.7500   1.5000 Du        
    493 ****         3.0000   3.7500   1.7500 Du        
    494 ****         3.0000   3.7500   2.0000 Du        
    495 ****         3.0000   3.7500   2.2500 Du        
    496 ****         3.0000   3.7500   2.5000 Du        
    497 ****         3.0000   3.7500   2.7500 Du        
    498 ****         3.0000   3.7500   3.0000 Du        
    499 ****         3.0000   3.7500   3.2500 Du        
    500 ****         3.0000   4.0000   1.2500 Du        
    501 ****         3.0000   4.0000   1.5000 Du        
    502 ****         3.0000   4.0000   1.7500 Du        
    503 ****         3.0000   4.0000   2.0000 Du        
    504 ****         3.0000   4.0000   2.2500 Du        
    505 ****         3.0000   4.0000   2.5000 Du        
    506 ****         3.0000   4.0000   2.7500 Du        
    507 ****         3.0000   4.0000   3.0000 Du        
    508 ****         3.0000   4.0000   3.2500 Du        
    509 ****         3.0000   4.0000   3.5000 Du        
    510 ****         3.0000   4.2500   1.5000 Du        
    511 ****         3.0000   4.2500   1.7500 Du        
    512 ****         3.0000   4.2500   2.0000 Du        
    513 ****         3.0000   4.2500   2.2500 Du        
    514 ****         3.0000   4.2500   2.5000 Du        
    515 ****         3.0000   4.2500   2.7500 Du        
    516 ****         3.0000   4.2500   3.0000 Du        
    517 ****         3.0000   4.2500   3.2500 Du        
    518 ****         3.0000   4.2500   3.7500 Du        
    519 ****         3.0000   4.2500   4.0000 Du        
    520 ****         3.0000   4.5000   3.7500 Du        
    521 ****         3.0000   4.5000   4.0000 Du        
    522 ****         3.0000   4.5000   4.2500 Du        
    523 ****         3.0000   4.7500   4.2500 Du        
    524 ****         3.0000   6.7500   6.2500 Du        
    525 ****         3.0000   7.0000   6.2500 Du        
    526 ****         3.0000   7.2500   6.2500 Du        
    527 ****         3.0000   7.5000   6.7500 Du        
    528 ****         3.0000   7.7500   7.2500 Du        
    529 ****         3.0000   8.0000   7.2500 Du        
    530 ****         3.0000  14.2500  11.5000 Du        
    531 ****         3.0000  14.2500  11.7500 Du        
    532 ****         3.0000  14.2500  12.0000 Du        
    533 ****         3.0000  14.2500  12.2500 Du        
    534 ****         3.0000  14.2500  12.5000 Du        
    535 ****         3.0000  14.2500  12.7500 Du        
    536 ****         3.0000  14.2500  13.0000 Du        
    537 ****         3.0000  14.2500  13.2500 Du        
    538 ****         3.0000  14.2500  13.5000 Du        
    539 ****         3.0000  14.5000  11.7500 Du        
    540 ****         3.0000  14.5000  12.0000 Du        
    541 ****         3.0000  14.5000  12.2500 Du        
    542 ****         3.0000  14.5000  12.5000 Du        
    543 ****         3.0000  14.5000  12.7500 Du        
    544 ****         3.0000  14.5000  13.0000 Du        
    545 ****         3.0000  14.5000  13.2500 Du        
    546 ****         3.0000  14.5000  13.5000 Du        
    547 ****         3.0000  14.7500  12.0000 Du        
    548 ****         3.0000  14.7500  12.2500 Du        
    549 ****         3.0000  14.7500  12.5000 Du        
    550 ****         3.0000  14.7500  12.7500 Du        
    551 ****         3.0000  14.7500  13.0000 Du        
    552 ****         3.0000  14.7500  13.2500 Du        
    553 ****         3.0000  15.0000  12.5000 Du        
    554 ****         3.0000  15.0000  12.7500 Du        
    555 ****         3.0000  15.0000  13.0000 Du        
    556 ****         3.0000  15.0000  13.2500 Du        
    557 ****         3.0000  15.2500  12.7500 Du        
    558 ****         3.0000  15.2500  13.0000 Du        
    559 ****         3.2500   3.0000   2.0000 Du        
    560 ****         3.2500   3.0000   2.2500 Du        
    561 ****         3.2500   3.2500   1.7500 Du        
    562 ****         3.2500   3.2500   2.0000 Du        
    563 ****         3.2500   3.2500   2.2500 Du        
    564 ****         3.2500   3.2500   2.5000 Du        
    565 ****         3.2500   3.5000   1.5000 Du        
    566 ****         3.2500   3.5000   1.7500 Du        
    567 ****         3.2500   3.5000   2.0000 Du        
    568 ****         3.2500   3.5000   2.2500 Du        
    569 ****         3.2500   3.5000   2.5000 Du        
    570 ****         3.2500   3.5000   2.7500 Du        
    571 ****         3.2500   3.5000   3.0000 Du        
    572 ****         3.2500   3.5000   3.2500 Du        
    573 ****         3.2500   3.7500   1.2500 Du        
    574 ****         3.2500   3.7500   1.5000 Du        
    575 ****         3.2500   3.7500   1.7500 Du        
    576 ****         3.2500   3.7500   2.0000 Du        
    577 ****         3.2500   3.7500   2.2500 Du        
    578 ****         3.2500   3.7500   2.5000 Du        
    579 ****         3.2500   3.7500   2.7500 Du        
    580 ****         3.2500   3.7500   3.0000 Du        
    581 ****         3.2500   3.7500   3.2500 Du        
    582 ****         3.2500   4.0000   1.5000 Du        
    583 ****         3.2500   4.0000   1.7500 Du        
    584 ****         3.2500   4.0000   2.0000 Du        
    585 ****         3.2500   4.0000   2.2500 Du        
    586 ****         3.2500   4.0000   2.5000 Du        
    587 ****         3.2500   4.0000   2.7500 Du        
    588 ****         3.2500   4.0000   3.0000 Du        
    589 ****         3.2500   4.0000   3.2500 Du        
    590 ****         3.2500   4.0000   3.5000 Du        
    591 ****         3.2500   4.0000   3.7500 Du        
    592 ****         3.2500   4.0000   4.0000 Du        
    593 ****         3.2500   4.2500   1.7500 Du        
    594 ****         3.2500   4.2500   2.0000 Du        
    595 ****         3.2500   4.2500   2.2500 Du        
    596 ****         3.2500   4.2500   2.5000 Du        
    597 ****         3.2500   4.2500   2.7500 Du        
    598 ****         3.2500   4.2500   3.0000 Du        
    599 ****         3.2500   4.2500   3.2500 Du        
    600 ****         3.2500   4.2500   3.5000 Du        
    601 ****         3.2500   4.2500   3.7500 Du        
    602 ****         3.2500   4.2500   4.0000 Du        
    603 ****         3.2500   4.2500   4.2500 Du        
    604 ****         3.2500   4.5000   2.2500 Du        
    605 ****         3.2500   4.5000   2.5000 Du        
    606 ****         3.2500   4.5000   2.7500 Du        
    607 ****         3.2500   4.5000   3.0000 Du        
    608 ****         3.2500   4.5000   3.2500 Du        
    609 ****         3.2500   4.5000   3.5000 Du        
    610 ****         3.2500   4.5000   3.7500 Du        
    611 ****         3.2500   4.5000   4.0000 Du        
    612 ****         3.2500   4.5000   4.2500 Du        
    613 ****         3.2500   4.5000   4.5000 Du        
    614 ****         3.2500   4.7500   3.7500 Du        
    615 ****         3.2500   4.7500   4.0000 Du        
    616 ****         3.2500   4.7500   4.2500 Du        
    617 ****         3.2500   4.7500   4.5000 Du        
    618 ****         3.2500   4.7500   4.7500 Du        
    619 ****         3.2500   5.0000   4.2500 Du        
    620 ****         3.2500   5.0000   4.5000 Du        
    621 ****         3.2500   5.0000   4.7500 Du        
    622 ****         3.2500   5.0000   5.0000 Du        
    623 ****         3.2500   5.2500   5.0000 Du        
    624 ****         3.2500   5.5000   5.2500 Du        
    625 ****         3.2500   5.7500   5.2500 Du        
    626 ****         3.2500   6.5000   5.7500 Du        
    627 ****         3.2500   6.5000   6.0000 Du        
    628 ****         3.2500   6.7500   6.0000 Du        
    629 ****         3.2500   6.7500   6.2500 Du        
    630 ****         3.2500   7.0000   6.0000 Du        
    631 ****         3.2500   7.0000   6.2500 Du        
    632 ****         3.2500   7.2500   6.2500 Du        
    633 ****         3.2500   7.5000   6.7500 Du        
    634 ****         3.2500   7.5000   7.0000 Du        
    635 ****         3.2500   7.7500   7.0000 Du        
    636 ****         3.2500   7.7500   7.2500 Du        
    637 ****         3.2500   8.0000   7.2500 Du        
    638 ****         3.2500  14.2500  11.7500 Du        
    639 ****         3.2500  14.2500  12.0000 Du        
    640 ****         3.2500  14.2500  12.2500 Du        
    641 ****         3.2500  14.2500  12.5000 Du        
    642 ****         3.2500  14.2500  12.7500 Du        
    643 ****         3.2500  14.2500  13.0000 Du        
    644 ****         3.2500  14.2500  13.2500 Du        
    645 ****         3.2500  14.5000  11.7500 Du        
    646 ****         3.2500  14.5000  12.0000 Du        
    647 ****         3.2500  14.5000  12.2500 Du        
    648 ****         3.2500  14.5000  12.5000 Du        
    649 ****         3.2500  14.5000  12.7500 Du        
    650 ****         3.2500  14.5000  13.0000 Du        
    651 ****         3.2500  14.5000  13.2500 Du        
    652 ****         3.2500  14.7500  12.2500 Du        
    653 ****         3.2500  14.7500  12.5000 Du        
    654 ****         3.2500  14.7500  12.7500 Du        
    655 ****         3.2500  14.7500  13.0000 Du        
    656 ****         3.2500  14.7500  13.2500 Du        
    657 ****         3.2500  15.0000  12.7500 Du        
    658 ****         3.2500  15.0000  13.0000 Du        
    659 ****         3.5000   3.0000   2.5000 Du        
    660 ****         3.5000   3.2500   2.0000 Du        
    661 ****         3.5000   3.2500   2.2500 Du        
    662 ****         3.5000   3.2500   2.5000 Du        
    663 ****         3.5000   3.2500   2.7500 Du        
    664 ****         3.5000   3.2500   3.2500 Du        
    665 ****         3.5000   3.5000   1.7500 Du        
    666 ****         3.5000   3.5000   2.0000 Du        
    667 ****         3.5000   3.5000   2.2500 Du        
    668 ****         3.5000   3.5000   2.5000 Du        
    669 ****         3.5000   3.5000   2.7500 Du        
    670 ****         3.5000   3.5000   3.0000 Du        
    671 ****         3.5000   3.5000   3.2500 Du        
    672 ****         3.5000   3.5000   3.5000 Du        
    673 ****         3.5000   3.7500   1.7500 Du        
    674 ****         3.5000   3.7500   2.0000 Du        
    675 ****         3.5000   3.7500   2.2500 Du        
    676 ****         3.5000   3.7500   2.5000 Du        
    677 ****         3.5000   3.7500   2.7500 Du        
    678 ****         3.5000   3.7500   3.0000 Du        
    679 ****         3.5000   3.7500   3.2500 Du        
    680 ****         3.5000   3.7500   3.5000 Du        
    681 ****         3.5000   3.7500   3.7500 Du        
    682 ****         3.5000   4.0000   1.7500 Du        
    683 ****         3.5000   4.0000   2.0000 Du        
    684 ****         3.5000   4.0000   2.2500 Du        
    685 ****         3.5000   4.0000   2.5000 Du        
    686 ****         3.5000   4.0000   2.7500 Du        
    687 ****         3.5000   4.0000   3.0000 Du        
    688 ****         3.5000   4.0000   3.2500 Du        
    689 ****         3.5000   4.0000   3.5000 Du        
    690 ****         3.5000   4.0000   3.7500 Du        
    691 ****         3.5000   4.0000   4.0000 Du        
    692 ****         3.5000   4.2500   2.0000 Du        
    693 ****         3.5000   4.2500   2.2500 Du        
    694 ****         3.5000   4.2500   2.5000 Du        
    695 ****         3.5000   4.2500   2.7500 Du        
    696 ****         3.5000   4.2500   3.0000 Du        
    697 ****         3.5000   4.2500   3.2500 Du        
    698 ****         3.5000   4.2500   3.5000 Du        
    699 ****         3.5000   4.2500   3.7500 Du        
    700 ****         3.5000   4.2500   4.0000 Du        
    701 ****         3.5000   4.2500   4.2500 Du        
    702 ****         3.5000   4.5000   2.2500 Du        
    703 ****         3.5000   4.5000   2.5000 Du        
    704 ****         3.5000   4.5000   2.7500 Du        
    705 ****         3.5000   4.5000   3.0000 Du        
    706 ****         3.5000   4.5000   3.2500 Du        
    707 ****         3.5000   4.5000   3.5000 Du        
    708 ****         3.5000   4.5000   3.7500 Du        
    709 ****         3.5000   4.5000   4.0000 Du        
    710 ****         3.5000   4.5000   4.2500 Du        
    711 ****         3.5000   4.5000   4.5000 Du        
    712 ****         3.5000   4.5000   4.7500 Du        
    713 ****         3.5000   4.5000   5.0000 Du        
    714 ****         3.5000   4.7500   3.0000 Du        
    715 ****         3.5000   4.7500   3.2500 Du        
    716 ****         3.5000   4.7500   3.5000 Du        
    717 ****         3.5000   4.7500   3.7500 Du        
    718 ****         3.5000   4.7500   4.0000 Du        
    719 ****         3.5000   4.7500   4.2500 Du        
    720 ****         3.5000   4.7500   4.5000 Du        
    721 ****         3.5000   4.7500   4.7500 Du        
    722 ****         3.5000   4.7500   5.0000 Du        
    723 ****         3.5000   5.0000   3.7500 Du        
    724 ****         3.5000   5.0000   4.0000 Du        
    725 ****         3.5000   5.0000   4.2500 Du        
    726 ****         3.5000   5.0000   4.5000 Du        
    727 ****         3.5000   5.0000   4.7500 Du        
    728 ****         3.5000   5.0000   5.0000 Du        
    729 ****         3.5000   5.0000   5.2500 Du        
    730 ****         3.5000   5.2500   4.2500 Du        
    731 ****         3.5000   5.2500   4.5000 Du        
    732 ****         3.5000   5.2500   4.7500 Du        
    733 ****         3.5000   5.2500   5.0000 Du        
    734 ****         3.5000   5.2500   5.2500 Du        
    735 ****         3.5000   5.5000   4.7500 Du        
    736 ****         3.5000   5.5000   5.0000 Du        
    737 ****         3.5000   5.5000   5.2500 Du        
    738 ****         3.5000   5.7500   5.0000 Du        
    739 ****         3.5000   5.7500   5.2500 Du        
    740 ****         3.5000   6.0000   5.0000 Du        
    741 ****         3.5000   6.0000   5.2500 Du        
    742 ****         3.5000   6.0000   5.5000 Du        
    743 ****         3.5000   6.0000   5.7500 Du        
    744 ****         3.5000   6.2500   5.2500 Du        
    745 ****         3.5000   6.2500   5.7500 Du        
    746 ****         3.5000   6.2500   6.0000 Du        
    747 ****         3.5000   6.5000   5.2500 Du        
    748 ****         3.5000   6.5000   5.5000 Du        
    749 ****         3.5000   6.5000   5.7500 Du        
    750 ****         3.5000   6.5000   6.0000 Du        
    751 ****         3.5000   6.5000   6.2500 Du        
    752 ****         3.5000   6.7500   5.7500 Du        
    753 ****         3.5000   6.7500   6.0000 Du        
    754 ****         3.5000   6.7500   6.2500 Du        
    755 ****         3.5000   7.0000   5.7500 Du        
    756 ****         3.5000   7.0000   6.0000 Du        
    757 ****         3.5000   7.0000   6.2500 Du        
    758 ****         3.5000   7.2500   6.2500 Du        
    759 ****         3.5000   7.2500   6.5000 Du        
    760 ****         3.5000   7.5000   6.7500 Du        
    761 ****         3.5000   7.7500   7.0000 Du        
    762 ****         3.5000  14.2500  12.0000 Du        
    763 ****         3.5000  14.2500  12.2500 Du        
    764 ****         3.5000  14.2500  12.5000 Du        
    765 ****         3.5000  14.2500  12.7500 Du        
    766 ****         3.5000  14.5000  12.0000 Du        
    767 ****         3.5000  14.5000  12.2500 Du        
    768 ****         3.5000  14.5000  12.5000 Du        
    769 ****         3.5000  14.5000  12.7500 Du        
    770 ****         3.5000  14.5000  13.0000 Du        
    771 ****         3.5000  14.7500  12.2500 Du        
    772 ****         3.5000  14.7500  12.5000 Du        
    773 ****         3.5000  14.7500  12.7500 Du        
    774 ****         3.5000  14.7500  13.0000 Du        
    775 ****         3.5000  15.0000  12.7500 Du        
    776 ****         3.7500   3.2500   2.7500 Du        
    777 ****         3.7500   3.5000   2.2500 Du        
    778 ****         3.7500   3.5000   2.7500 Du        
    779 ****         3.7500   3.5000   3.0000 Du        
    780 ****         3.7500   3.5000   3.2500 Du        
    781 ****         3.7500   3.7500   2.2500 Du        
    782 ****         3.7500   3.7500   2.5000 Du        
    783 ****         3.7500   3.7500   2.7500 Du        
    784 ****         3.7500   3.7500   3.0000 Du        
    785 ****         3.7500   3.7500   3.2500 Du        
    786 ****         3.7500   3.7500   3.5000 Du        
    787 ****         3.7500   3.7500   3.7500 Du        
    788 ****         3.7500   4.0000   2.2500 Du        
    789 ****         3.7500   4.0000   2.5000 Du        
    790 ****         3.7500   4.0000   2.7500 Du        
    791 ****         3.7500   4.0000   3.0000 Du        
    792 ****         3.7500   4.0000   3.2500 Du        
    793 ****         3.7500   4.0000   3.5000 Du        
    794 ****         3.7500   4.0000   3.7500 Du        
    795 ****         3.7500   4.0000   4.0000 Du        
    796 ****         3.7500   4.0000   4.2500 Du        
    797 ****         3.7500   4.2500   2.5000 Du        
    798 ****         3.7500   4.2500   2.7500 Du        
    799 ****         3.7500   4.2500   3.0000 Du        
    800 ****         3.7500   4.2500   3.2500 Du        
    801 ****         3.7500   4.2500   3.5000 Du        
    802 ****         3.7500   4.2500   3.7500 Du        
    803 ****         3.7500   4.2500   4.0000 Du        
    804 ****         3.7500   4.2500   4.2500 Du        
    805 ****         3.7500   4.5000   2.5000 Du        
    806 ****         3.7500   4.5000   2.7500 Du        
    807 ****         3.7500   4.5000   3.0000 Du        
    808 ****         3.7500   4.5000   3.2500 Du        
    809 ****         3.7500   4.5000   3.5000 Du        
    810 ****         3.7500   4.5000   3.7500 Du        
    811 ****         3.7500   4.5000   4.0000 Du        
    812 ****         3.7500   4.5000   4.2500 Du        
    813 ****         3.7500   4.5000   4.5000 Du        
    814 ****         3.7500   4.5000   4.7500 Du        
    815 ****         3.7500   4.5000   5.0000 Du        
    816 ****         3.7500   4.7500   3.0000 Du        
    817 ****         3.7500   4.7500   3.2500 Du        
    818 ****         3.7500   4.7500   3.5000 Du        
    819 ****         3.7500   4.7500   3.7500 Du        
    820 ****         3.7500   4.7500   4.0000 Du        
    821 ****         3.7500   4.7500   4.2500 Du        
    822 ****         3.7500   4.7500   4.5000 Du        
    823 ****         3.7500   4.7500   4.7500 Du        
    824 ****         3.7500   4.7500   5.0000 Du        
    825 ****         3.7500   4.7500   5.2500 Du        
    826 ****         3.7500   5.0000   3.5000 Du        
    827 ****         3.7500   5.0000   3.7500 Du        
    828 ****         3.7500   5.0000   4.0000 Du        
    829 ****         3.7500   5.0000   4.2500 Du        
    830 ****         3.7500   5.0000   4.5000 Du        
    831 ****         3.7500   5.0000   4.7500 Du        
    832 ****         3.7500   5.0000   5.0000 Du        
    833 ****         3.7500   5.0000   5.2500 Du        
    834 ****         3.7500   5.2500   4.0000 Du        
    835 ****         3.7500   5.2500   4.2500 Du        
    836 ****         3.7500   5.2500   4.5000 Du        
    837 ****         3.7500   5.2500   4.7500 Du        
    838 ****         3.7500   5.2500   5.0000 Du        
    839 ****         3.7500   5.2500   5.2500 Du        
    840 ****         3.7500   5.5000   4.2500 Du        
    841 ****         3.7500   5.5000   4.5000 Du        
    842 ****         3.7500   5.5000   4.7500 Du        
    843 ****         3.7500   5.5000   5.0000 Du        
    844 ****         3.7500   5.5000   5.2500 Du        
    845 ****         3.7500   5.7500   4.7500 Du        
    846 ****         3.7500   5.7500   5.0000 Du        
    847 ****         3.7500   5.7500   5.2500 Du        
    848 ****         3.7500   5.7500   5.5000 Du        
    849 ****         3.7500   5.7500   5.7500 Du        
    850 ****         3.7500   6.0000   4.7500 Du        
    851 ****         3.7500   6.0000   5.0000 Du        
    852 ****         3.7500   6.0000   5.2500 Du        
    853 ****         3.7500   6.0000   5.5000 Du        
    854 ****         3.7500   6.0000   5.7500 Du        
    855 ****         3.7500   6.0000   6.0000 Du        
    856 ****         3.7500   6.2500   5.0000 Du        
    857 ****         3.7500   6.2500   5.2500 Du        
    858 ****         3.7500   6.2500   5.5000 Du        
    859 ****         3.7500   6.2500   5.7500 Du        
    860 ****         3.7500   6.2500   6.0000 Du        
    861 ****         3.7500   6.5000   5.2500 Du        
    862 ****         3.7500   6.5000   5.5000 Du        
    863 ****         3.7500   6.5000   5.7500 Du        
    864 ****         3.7500   6.5000   6.0000 Du        
    865 ****         3.7500   6.5000   6.2500 Du        
    866 ****         3.7500   6.7500   5.2500 Du        
    867 ****         3.7500   6.7500   5.5000 Du        
    868 ****         3.7500   6.7500   5.7500 Du        
    869 ****         3.7500   6.7500   6.0000 Du        
    870 ****         3.7500   6.7500   6.2500 Du        
    871 ****         3.7500   7.0000   5.5000 Du        
    872 ****         3.7500   7.0000   5.7500 Du        
    873 ****         3.7500   7.0000   6.0000 Du        
    874 ****         3.7500   7.0000   6.2500 Du        
    875 ****         3.7500   7.0000   6.5000 Du        
    876 ****         3.7500   7.2500   6.0000 Du        
    877 ****         3.7500   7.2500   6.2500 Du        
    878 ****         3.7500   7.5000   6.5000 Du        
    879 ****         3.7500   7.5000   6.7500 Du        
    880 ****         3.7500   7.5000   7.0000 Du        
    881 ****         3.7500   7.7500   7.0000 Du        
    882 ****         3.7500   8.5000   7.7500 Du        
    883 ****         3.7500  14.5000  12.2500 Du        
    884 ****         3.7500  14.5000  12.5000 Du        
    885 ****         3.7500  14.5000  12.7500 Du        
    886 ****         3.7500  14.7500  12.5000 Du        
    887 ****         3.7500  14.7500  12.7500 Du        
    888 ****         4.0000   4.0000   3.7500 Du        
    889 ****         4.0000   4.2500   3.2500 Du        
    890 ****         4.0000   4.2500   3.5000 Du        
    891 ****         4.0000   4.2500   3.7500 Du        
    892 ****         4.0000   4.2500   4.0000 Du        
    893 ****         4.0000   4.2500   4.2500 Du        
    894 ****         4.0000   4.5000   3.2500 Du        
    895 ****         4.0000   4.5000   3.5000 Du        
    896 ****         4.0000   4.5000   3.7500 Du        
    897 ****         4.0000   4.5000   4.0000 Du        
    898 ****         4.0000   4.5000   4.2500 Du        
    899 ****         4.0000   4.5000   4.5000 Du        
    900 ****         4.0000   4.5000   4.7500 Du        
    901 ****         4.0000   4.5000   5.0000 Du        
    902 ****         4.0000   4.7500   3.2500 Du        
    903 ****         4.0000   4.7500   3.5000 Du        
    904 ****         4.0000   4.7500   3.7500 Du        
    905 ****         4.0000   4.7500   4.0000 Du        
    906 ****         4.0000   4.7500   4.2500 Du        
    907 ****         4.0000   4.7500   4.5000 Du        
    908 ****         4.0000   4.7500   4.7500 Du        
    909 ****         4.0000   4.7500   5.0000 Du        
    910 ****         4.0000   4.7500   5.2500 Du        
    911 ****         4.0000   5.0000   3.5000 Du        
    912 ****         4.0000   5.0000   3.7500 Du        
    913 ****         4.0000   5.0000   4.0000 Du        
    914 ****         4.0000   5.0000   4.2500 Du        
    915 ****         4.0000   5.0000   4.5000 Du        
    916 ****         4.0000   5.0000   4.7500 Du        
    917 ****         4.0000   5.0000   5.0000 Du        
    918 ****         4.0000   5.0000   5.2500 Du        
    919 ****         4.0000   5.2500   3.7500 Du        
    920 ****         4.0000   5.2500   4.0000 Du        
    921 ****         4.0000   5.2500   4.2500 Du        
    922 ****         4.0000   5.2500   4.5000 Du        
    923 ****         4.0000   5.2500   4.7500 Du        
    924 ****         4.0000   5.2500   5.0000 Du        
    925 ****         4.0000   5.2500   5.2500 Du        
    926 ****         4.0000   5.2500   5.5000 Du        
    927 ****         4.0000   5.5000   4.0000 Du        
    928 ****         4.0000   5.5000   4.2500 Du        
    929 ****         4.0000   5.5000   4.5000 Du        
    930 ****         4.0000   5.5000   4.7500 Du        
    931 ****         4.0000   5.5000   5.0000 Du        
    932 ****         4.0000   5.5000   5.2500 Du        
    933 ****         4.0000   5.5000   5.5000 Du        
    934 ****         4.0000   5.7500   4.2500 Du        
    935 ****         4.0000   5.7500   4.5000 Du        
    936 ****         4.0000   5.7500   4.7500 Du        
    937 ****         4.0000   5.7500   5.0000 Du        
    938 ****         4.0000   5.7500   5.2500 Du        
    939 ****         4.0000   5.7500   5.5000 Du        
    940 ****         4.0000   5.7500   5.7500 Du        
    941 ****         4.0000   5.7500   6.0000 Du        
    942 ****         4.0000   6.0000   4.5000 Du        
    943 ****         4.0000   6.0000   4.7500 Du        
    944 ****         4.0000   6.0000   5.0000 Du        
    945 ****         4.0000   6.0000   5.2500 Du        
    946 ****         4.0000   6.0000   5.5000 Du        
    947 ****         4.0000   6.0000   5.7500 Du        
    948 ****         4.0000   6.0000   6.0000 Du        
    949 ****         4.0000   6.0000   6.2500 Du        
    950 ****         4.0000   6.2500   4.7500 Du        
    951 ****         4.0000   6.2500   5.0000 Du        
    952 ****         4.0000   6.2500   5.2500 Du        
    953 ****         4.0000   6.2500   5.5000 Du        
    954 ****         4.0000   6.2500   5.7500 Du        
    955 ****         4.0000   6.2500   6.0000 Du        
    956 ****         4.0000   6.2500   6.2500 Du        
    957 ****         4.0000   6.5000   5.0000 Du        
    958 ****         4.0000   6.5000   5.2500 Du        
    959 ****         4.0000   6.5000   5.5000 Du        
    960 ****         4.0000   6.5000   5.7500 Du        
    961 ****         4.0000   6.5000   6.0000 Du        
    962 ****         4.0000   6.5000   6.2500 Du        
    963 ****         4.0000   6.7500   5.0000 Du        
    964 ****         4.0000   6.7500   5.2500 Du        
    965 ****         4.0000   6.7500   5.5000 Du        
    966 ****         4.0000   6.7500   5.7500 Du        
    967 ****         4.0000   6.7500   6.0000 Du        
    968 ****         4.0000   6.7500   6.2500 Du        
    969 ****         4.0000   7.0000   5.2500 Du        
    970 ****         4.0000   7.0000   5.5000 Du        
    971 ****         4.0000   7.0000   5.7500 Du        
    972 ****         4.0000   7.0000   6.0000 Du        
    973 ****         4.0000   7.0000   6.2500 Du        
    974 ****         4.0000   7.0000   6.5000 Du        
    975 ****         4.0000   7.2500   6.0000 Du        
    976 ****         4.0000   7.2500   6.2500 Du        
    977 ****         4.0000   7.2500   6.7500 Du        
    978 ****         4.0000   7.2500   7.0000 Du        
    979 ****         4.0000   7.5000   7.0000 Du        
    980 ****         4.0000   7.7500   7.2500 Du        
    981 ****         4.0000   8.5000   7.7500 Du        
    982 ****         4.0000   8.5000   8.0000 Du        
    983 ****         4.0000   8.7500   8.0000 Du        
    984 ****         4.0000   8.7500   8.2500 Du        
    985 ****         4.2500   4.5000   4.0000 Du        
    986 ****         4.2500   4.5000   4.2500 Du        
    987 ****         4.2500   4.5000   4.5000 Du        
    988 ****         4.2500   4.5000   4.7500 Du        
    989 ****         4.2500   4.5000   5.0000 Du        
    990 ****         4.2500   4.7500   3.7500 Du        
    991 ****         4.2500   4.7500   4.0000 Du        
    992 ****         4.2500   4.7500   4.2500 Du        
    993 ****         4.2500   4.7500   4.5000 Du        
    994 ****         4.2500   4.7500   4.7500 Du        
    995 ****         4.2500   4.7500   5.0000 Du        
    996 ****         4.2500   4.7500   5.2500 Du        
    997 ****         4.2500   5.0000   3.7500 Du        
    998 ****         4.2500   5.0000   4.0000 Du        
    999 ****         4.2500   5.0000   4.2500 Du        
   1000 ****         4.2500   5.0000   4.5000 Du        
   1001 ****         4.2500   5.0000   4.7500 Du        
   1002 ****         4.2500   5.0000   5.0000 Du        
   1003 ****         4.2500   5.0000   5.2500 Du        
   1004 ****         4.2500   5.2500   3.7500 Du        
   1005 ****         4.2500   5.2500   4.0000 Du        
   1006 ****         4.2500   5.2500   4.2500 Du        
   1007 ****         4.2500   5.2500   4.5000 Du        
   1008 ****         4.2500   5.2500   4.7500 Du        
   1009 ****         4.2500   5.2500   5.0000 Du        
   1010 ****         4.2500   5.2500   5.2500 Du        
   1011 ****         4.2500   5.2500   5.5000 Du        
   1012 ****         4.2500   5.5000   3.7500 Du        
   1013 ****         4.2500   5.5000   4.0000 Du        
   1014 ****         4.2500   5.5000   4.2500 Du        
   1015 ****         4.2500   5.5000   4.5000 Du        
   1016 ****         4.2500   5.5000   4.7500 Du        
   1017 ****         4.2500   5.5000   5.0000 Du        
   1018 ****         4.2500   5.5000   5.2500 Du        
   1019 ****         4.2500   5.5000   5.5000 Du        
   1020 ****         4.2500   5.5000   5.7500 Du        
   1021 ****         4.2500   5.7500   4.0000 Du        
   1022 ****         4.2500   5.7500   4.2500 Du        
   1023 ****         4.2500   5.7500   4.5000 Du        
   1024 ****         4.2500   5.7500   4.7500 Du        
   1025 ****         4.2500   5.7500   5.0000 Du        
   1026 ****         4.2500   5.7500   5.2500 Du        
   1027 ****         4.2500   5.7500   5.5000 Du        
   1028 ****         4.2500   5.7500   5.7500 Du        
   1029 ****         4.2500   5.7500   6.0000 Du        
   1030 ****         4.2500   6.0000   4.2500 Du        
   1031 ****         4.2500   6.0000   4.5000 Du        
   1032 ****         4.2500   6.0000   4.7500 Du        
   1033 ****         4.2500   6.0000   5.0000 Du        
   1034 ****         4.2500   6.0000   5.2500 Du        
   1035 ****         4.2500   6.0000   5.5000 Du        
   1036 ****         4.2500   6.0000   5.7500 Du        
   1037 ****         4.2500   6.0000   6.0000 Du        
   1038 ****         4.2500   6.0000   6.2500 Du        
   1039 ****         4.2500   6.2500   4.5000 Du        
   1040 ****         4.2500   6.2500   4.7500 Du        
   1041 ****         4.2500   6.2500   5.0000 Du        
   1042 ****         4.2500   6.2500   5.2500 Du        
   1043 ****         4.2500   6.2500   5.5000 Du        
   1044 ****         4.2500   6.2500   5.7500 Du        
   1045 ****         4.2500   6.2500   6.0000 Du        
   1046 ****         4.2500   6.2500   6.2500 Du        
   1047 ****         4.2500   6.5000   4.7500 Du        
   1048 ****         4.2500   6.5000   5.0000 Du        
   1049 ****         4.2500   6.5000   5.2500 Du        
   1050 ****         4.2500   6.5000   5.5000 Du        
   1051 ****         4.2500   6.5000   5.7500 Du        
   1052 ****         4.2500   6.5000   6.0000 Du        
   1053 ****         4.2500   6.5000   6.2500 Du        
   1054 ****         4.2500   6.7500   5.0000 Du        
   1055 ****         4.2500   6.7500   5.2500 Du        
   1056 ****         4.2500   6.7500   5.5000 Du        
   1057 ****         4.2500   6.7500   5.7500 Du        
   1058 ****         4.2500   6.7500   6.0000 Du        
   1059 ****         4.2500   6.7500   6.2500 Du        
   1060 ****         4.2500   7.0000   5.2500 Du        
   1061 ****         4.2500   7.0000   5.5000 Du        
   1062 ****         4.2500   7.0000   5.7500 Du        
   1063 ****         4.2500   7.0000   6.0000 Du        
   1064 ****         4.2500   7.0000   6.2500 Du        
   1065 ****         4.2500   7.0000   6.5000 Du        
   1066 ****         4.2500   8.5000   8.0000 Du        
   1067 ****         4.2500   8.5000   8.2500 Du        
   1068 ****         4.2500   8.7500   8.0000 Du        
   1069 ****         4.2500   8.7500   8.2500 Du        
   1070 ****         4.5000   4.5000   4.7500 Du        
   1071 ****         4.5000   4.5000   5.0000 Du        
   1072 ****         4.5000   4.5000   5.2500 Du        
   1073 ****         4.5000   4.7500   4.2500 Du        
   1074 ****         4.5000   4.7500   4.5000 Du        
   1075 ****         4.5000   4.7500   4.7500 Du        
   1076 ****         4.5000   4.7500   5.0000 Du        
   1077 ****         4.5000   4.7500   5.2500 Du        
   1078 ****         4.5000   5.0000   4.0000 Du        
   1079 ****         4.5000   5.0000   4.2500 Du        
   1080 ****         4.5000   5.0000   4.5000 Du        
   1081 ****         4.5000   5.0000   4.7500 Du        
   1082 ****         4.5000   5.0000   5.0000 Du        
   1083 ****         4.5000   5.0000   5.2500 Du        
   1084 ****         4.5000   5.2500   4.0000 Du        
   1085 ****         4.5000   5.2500   4.2500 Du        
   1086 ****         4.5000   5.2500   4.5000 Du        
   1087 ****         4.5000   5.2500   4.7500 Du        
   1088 ****         4.5000   5.2500   5.0000 Du        
   1089 ****         4.5000   5.2500   5.2500 Du        
   1090 ****         4.5000   5.2500   5.5000 Du        
   1091 ****         4.5000   5.2500   5.7500 Du        
   1092 ****         4.5000   5.5000   4.0000 Du        
   1093 ****         4.5000   5.5000   4.2500 Du        
   1094 ****         4.5000   5.5000   4.5000 Du        
   1095 ****         4.5000   5.5000   4.7500 Du        
   1096 ****         4.5000   5.5000   5.0000 Du        
   1097 ****         4.5000   5.5000   5.2500 Du        
   1098 ****         4.5000   5.5000   5.5000 Du        
   1099 ****         4.5000   5.5000   5.7500 Du        
   1100 ****         4.5000   5.5000   6.0000 Du        
   1101 ****         4.5000   5.5000   6.2500 Du        
   1102 ****         4.5000   5.7500   4.0000 Du        
   1103 ****         4.5000   5.7500   4.2500 Du        
   1104 ****         4.5000   5.7500   4.5000 Du        
   1105 ****         4.5000   5.7500   4.7500 Du        
   1106 ****         4.5000   5.7500   5.0000 Du        
   1107 ****         4.5000   5.7500   5.2500 Du        
   1108 ****         4.5000   5.7500   5.5000 Du        
   1109 ****         4.5000   5.7500   5.7500 Du        
   1110 ****         4.5000   5.7500   6.0000 Du        
   1111 ****         4.5000   5.7500   6.2500 Du        
   1112 ****         4.5000   6.0000   4.0000 Du        
   1113 ****         4.5000   6.0000   4.2500 Du        
   1114 ****         4.5000   6.0000   4.5000 Du        
   1115 ****         4.5000   6.0000   4.7500 Du        
   1116 ****         4.5000   6.0000   5.0000 Du        
   1117 ****         4.5000   6.0000   5.2500 Du        
   1118 ****         4.5000   6.0000   5.5000 Du        
   1119 ****         4.5000   6.0000   5.7500 Du        
   1120 ****         4.5000   6.0000   6.0000 Du        
   1121 ****         4.5000   6.0000   6.2500 Du        
   1122 ****         4.5000   6.2500   4.2500 Du        
   1123 ****         4.5000   6.2500   4.5000 Du        
   1124 ****         4.5000   6.2500   4.7500 Du        
   1125 ****         4.5000   6.2500   5.0000 Du        
   1126 ****         4.5000   6.2500   5.2500 Du        
   1127 ****         4.5000   6.2500   5.5000 Du        
   1128 ****         4.5000   6.2500   5.7500 Du        
   1129 ****         4.5000   6.2500   6.0000 Du        
   1130 ****         4.5000   6.2500   6.2500 Du        
   1131 ****         4.5000   6.5000   4.5000 Du        
   1132 ****         4.5000   6.5000   4.7500 Du        
   1133 ****         4.5000   6.5000   5.0000 Du        
   1134 ****         4.5000   6.5000   5.2500 Du        
   1135 ****         4.5000   6.5000   5.5000 Du        
   1136 ****         4.5000   6.5000   5.7500 Du        
   1137 ****         4.5000   6.5000   6.0000 Du        
   1138 ****         4.5000   6.5000   6.2500 Du        
   1139 ****         4.5000   6.7500   4.7500 Du        
   1140 ****         4.5000   6.7500   5.0000 Du        
   1141 ****         4.5000   6.7500   5.2500 Du        
   1142 ****         4.5000   6.7500   5.5000 Du        
   1143 ****         4.5000   6.7500   5.7500 Du        
   1144 ****         4.5000   6.7500   6.0000 Du        
   1145 ****         4.5000   6.7500   6.2500 Du        
   1146 ****         4.5000   7.0000   5.7500 Du        
   1147 ****         4.5000   7.0000   6.0000 Du        
   1148 ****         4.5000   7.0000   6.2500 Du        
   1149 ****         4.5000   8.2500   8.2500 Du        
   1150 ****         4.5000   8.5000   8.2500 Du        
   1151 ****         4.7500   4.5000   5.0000 Du        
   1152 ****         4.7500   4.5000   5.2500 Du        
   1153 ****         4.7500   4.7500   4.7500 Du        
   1154 ****         4.7500   4.7500   5.0000 Du        
   1155 ****         4.7500   4.7500   5.2500 Du        
   1156 ****         4.7500   5.0000   4.5000 Du        
   1157 ****         4.7500   5.0000   4.7500 Du        
   1158 ****         4.7500   5.0000   5.0000 Du        
   1159 ****         4.7500   5.0000   5.2500 Du        
   1160 ****         4.7500   5.0000   5.5000 Du        
   1161 ****         4.7500   5.0000   5.7500 Du        
   1162 ****         4.7500   5.2500   4.2500 Du        
   1163 ****         4.7500   5.2500   4.5000 Du        
   1164 ****         4.7500   5.2500   4.7500 Du        
   1165 ****         4.7500   5.2500   5.0000 Du        
   1166 ****         4.7500   5.2500   5.2500 Du        
   1167 ****         4.7500   5.2500   5.5000 Du        
   1168 ****         4.7500   5.2500   5.7500 Du        
   1169 ****         4.7500   5.2500   6.0000 Du        
   1170 ****         4.7500   5.5000   4.0000 Du        
   1171 ****         4.7500   5.5000   4.2500 Du        
   1172 ****         4.7500   5.5000   4.5000 Du        
   1173 ****         4.7500   5.5000   4.7500 Du        
   1174 ****         4.7500   5.5000   5.0000 Du        
   1175 ****         4.7500   5.5000   5.2500 Du        
   1176 ****         4.7500   5.5000   5.5000 Du        
   1177 ****         4.7500   5.5000   5.7500 Du        
   1178 ****         4.7500   5.5000   6.0000 Du        
   1179 ****         4.7500   5.5000   6.2500 Du        
   1180 ****         4.7500   5.7500   4.0000 Du        
   1181 ****         4.7500   5.7500   4.2500 Du        
   1182 ****         4.7500   5.7500   4.5000 Du        
   1183 ****         4.7500   5.7500   4.7500 Du        
   1184 ****         4.7500   5.7500   5.0000 Du        
   1185 ****         4.7500   5.7500   5.2500 Du        
   1186 ****         4.7500   5.7500   5.5000 Du        
   1187 ****         4.7500   5.7500   5.7500 Du        
   1188 ****         4.7500   5.7500   6.0000 Du        
   1189 ****         4.7500   5.7500   6.2500 Du        
   1190 ****         4.7500   6.0000   4.0000 Du        
   1191 ****         4.7500   6.0000   4.2500 Du        
   1192 ****         4.7500   6.0000   4.5000 Du        
   1193 ****         4.7500   6.0000   4.7500 Du        
   1194 ****         4.7500   6.0000   5.0000 Du        
   1195 ****         4.7500   6.0000   5.2500 Du        
   1196 ****         4.7500   6.0000   5.5000 Du        
   1197 ****         4.7500   6.0000   5.7500 Du        
   1198 ****         4.7500   6.0000   6.0000 Du        
   1199 ****         4.7500   6.0000   6.2500 Du        
   1200 ****         4.7500   6.2500   4.2500 Du        
   1201 ****         4.7500   6.2500   4.5000 Du        
   1202 ****         4.7500   6.2500   4.7500 Du        
   1203 ****         4.7500   6.2500   5.0000 Du        
   1204 ****         4.7500   6.2500   5.2500 Du        
   1205 ****         4.7500   6.2500   5.5000 Du        
   1206 ****         4.7500   6.2500   5.7500 Du        
   1207 ****         4.7500   6.2500   6.0000 Du        
   1208 ****         4.7500   6.2500   6.2500 Du        
   1209 ****         4.7500   6.5000   4.2500 Du        
   1210 ****         4.7500   6.5000   4.5000 Du        
   1211 ****         4.7500   6.5000   4.7500 Du        
   1212 ****         4.7500   6.5000   5.0000 Du        
   1213 ****         4.7500   6.5000   5.2500 Du        
   1214 ****         4.7500   6.5000   5.5000 Du        
   1215 ****         4.7500   6.5000   5.7500 Du        
   1216 ****         4.7500   6.5000   6.0000 Du        
   1217 ****         4.7500   6.5000   6.2500 Du        
   1218 ****         4.7500   6.5000   6.5000 Du        
   1219 ****         4.7500   6.7500   4.7500 Du        
   1220 ****         4.7500   6.7500   5.0000 Du        
   1221 ****         4.7500   6.7500   5.2500 Du        
   1222 ****         4.7500   6.7500   5.5000 Du        
   1223 ****         4.7500   6.7500   5.7500 Du        
   1224 ****         4.7500   6.7500   6.0000 Du        
   1225 ****         4.7500   6.7500   6.2500 Du        
   1226 ****         4.7500   6.7500   6.7500 Du        
   1227 ****         4.7500   8.2500   8.2500 Du        
   1228 ****         4.7500   8.5000   9.0000 Du        
   1229 ****         4.7500   8.7500   9.0000 Du        
   1230 ****         5.0000   4.7500   5.0000 Du        
   1231 ****         5.0000   4.7500   5.2500 Du        
   1232 ****         5.0000   4.7500   5.5000 Du        
   1233 ****         5.0000   5.0000   4.7500 Du        
   1234 ****         5.0000   5.0000   5.0000 Du        
   1235 ****         5.0000   5.0000   5.2500 Du        
   1236 ****         5.0000   5.0000   5.5000 Du        
   1237 ****         5.0000   5.0000   5.7500 Du        
   1238 ****         5.0000   5.0000   6.0000 Du        
   1239 ****         5.0000   5.2500   4.5000 Du        
   1240 ****         5.0000   5.2500   4.7500 Du        
   1241 ****         5.0000   5.2500   5.0000 Du        
   1242 ****         5.0000   5.2500   5.2500 Du        
   1243 ****         5.0000   5.2500   5.5000 Du        
   1244 ****         5.0000   5.2500   5.7500 Du        
   1245 ****         5.0000   5.2500   6.0000 Du        
   1246 ****         5.0000   5.2500   6.2500 Du        
   1247 ****         5.0000   5.5000   4.2500 Du        
   1248 ****         5.0000   5.5000   4.5000 Du        
   1249 ****         5.0000   5.5000   4.7500 Du        
   1250 ****         5.0000   5.5000   5.0000 Du        
   1251 ****         5.0000   5.5000   5.2500 Du        
   1252 ****         5.0000   5.5000   5.5000 Du        
   1253 ****         5.0000   5.5000   5.7500 Du        
   1254 ****         5.0000   5.5000   6.0000 Du        
   1255 ****         5.0000   5.5000   6.2500 Du        
   1256 ****         5.0000   5.7500   4.2500 Du        
   1257 ****         5.0000   5.7500   4.5000 Du        
   1258 ****         5.0000   5.7500   4.7500 Du        
   1259 ****         5.0000   5.7500   5.0000 Du        
   1260 ****         5.0000   5.7500   5.2500 Du        
   1261 ****         5.0000   5.7500   5.5000 Du        
   1262 ****         5.0000   5.7500   5.7500 Du        
   1263 ****         5.0000   5.7500   6.0000 Du        
   1264 ****         5.0000   5.7500   6.2500 Du        
   1265 ****         5.0000   5.7500   6.5000 Du        
   1266 ****         5.0000   6.0000   4.2500 Du        
   1267 ****         5.0000   6.0000   4.5000 Du        
   1268 ****         5.0000   6.0000   4.7500 Du        
   1269 ****         5.0000   6.0000   5.0000 Du        
   1270 ****         5.0000   6.0000   5.2500 Du        
   1271 ****         5.0000   6.0000   5.5000 Du        
   1272 ****         5.0000   6.0000   5.7500 Du        
   1273 ****         5.0000   6.0000   6.0000 Du        
   1274 ****         5.0000   6.0000   6.2500 Du        
   1275 ****         5.0000   6.0000   6.5000 Du        
   1276 ****         5.0000   6.2500   4.5000 Du        
   1277 ****         5.0000   6.2500   4.7500 Du        
   1278 ****         5.0000   6.2500   5.0000 Du        
   1279 ****         5.0000   6.2500   5.2500 Du        
   1280 ****         5.0000   6.2500   5.5000 Du        
   1281 ****         5.0000   6.2500   5.7500 Du        
   1282 ****         5.0000   6.2500   6.0000 Du        
   1283 ****         5.0000   6.2500   6.2500 Du        
   1284 ****         5.0000   6.2500   6.5000 Du        
   1285 ****         5.0000   6.2500   6.7500 Du        
   1286 ****         5.0000   6.5000   4.7500 Du        
   1287 ****         5.0000   6.5000   5.0000 Du        
   1288 ****         5.0000   6.5000   5.2500 Du        
   1289 ****         5.0000   6.5000   5.5000 Du        
   1290 ****         5.0000   6.5000   5.7500 Du        
   1291 ****         5.0000   6.5000   6.0000 Du        
   1292 ****         5.0000   6.5000   6.2500 Du        
   1293 ****         5.0000   6.7500   6.7500 Du        
   1294 ****         5.0000   6.7500   7.0000 Du        
   1295 ****         5.0000   8.0000   8.2500 Du        
   1296 ****         5.0000   8.2500   9.0000 Du        
   1297 ****         5.0000   8.5000   8.7500 Du        
   1298 ****         5.0000   8.5000   9.0000 Du        
   1299 ****         5.0000   8.5000   9.2500 Du        
   1300 ****         5.0000   8.7500   9.0000 Du        
   1301 ****         5.0000   8.7500   9.2500 Du        
   1302 ****         5.2500   4.7500   5.2500 Du        
   1303 ****         5.2500   5.0000   5.0000 Du        
   1304 ****         5.2500   5.0000   5.2500 Du        
   1305 ****         5.2500   5.0000   5.5000 Du        
   1306 ****         5.2500   5.0000   5.7500 Du        
   1307 ****         5.2500   5.0000   6.0000 Du        
   1308 ****         5.2500   5.2500   5.0000 Du        
   1309 ****         5.2500   5.2500   5.2500 Du        
   1310 ****         5.2500   5.2500   5.5000 Du        
   1311 ****         5.2500   5.2500   5.7500 Du        
   1312 ****         5.2500   5.2500   6.0000 Du        
   1313 ****         5.2500   5.2500   6.2500 Du        
   1314 ****         5.2500   5.5000   4.7500 Du        
   1315 ****         5.2500   5.5000   5.0000 Du        
   1316 ****         5.2500   5.5000   5.2500 Du        
   1317 ****         5.2500   5.5000   5.5000 Du        
   1318 ****         5.2500   5.5000   5.7500 Du        
   1319 ****         5.2500   5.5000   6.0000 Du        
   1320 ****         5.2500   5.5000   6.2500 Du        
   1321 ****         5.2500   5.5000   6.5000 Du        
   1322 ****         5.2500   5.7500   4.7500 Du        
   1323 ****         5.2500   5.7500   5.0000 Du        
   1324 ****         5.2500   5.7500   5.2500 Du        
   1325 ****         5.2500   5.7500   5.5000 Du        
   1326 ****         5.2500   5.7500   5.7500 Du        
   1327 ****         5.2500   5.7500   6.0000 Du        
   1328 ****         5.2500   5.7500   6.2500 Du        
   1329 ****         5.2500   5.7500   6.5000 Du        
   1330 ****         5.2500   6.0000   4.7500 Du        
   1331 ****         5.2500   6.0000   5.0000 Du        
   1332 ****         5.2500   6.0000   5.2500 Du        
   1333 ****         5.2500   6.0000   5.5000 Du        
   1334 ****         5.2500   6.0000   5.7500 Du        
   1335 ****         5.2500   6.0000   6.0000 Du        
   1336 ****         5.2500   6.0000   6.2500 Du        
   1337 ****         5.2500   6.0000   6.5000 Du        
   1338 ****         5.2500   6.0000   6.7500 Du        
   1339 ****         5.2500   6.2500   5.0000 Du        
   1340 ****         5.2500   6.2500   5.2500 Du        
   1341 ****         5.2500   6.2500   5.5000 Du        
   1342 ****         5.2500   6.2500   5.7500 Du        
   1343 ****         5.2500   6.2500   6.0000 Du        
   1344 ****         5.2500   6.2500   6.2500 Du        
   1345 ****         5.2500   6.2500   6.5000 Du        
   1346 ****         5.2500   6.2500   6.7500 Du        
   1347 ****         5.2500   6.5000   6.0000 Du        
   1348 ****         5.2500   6.5000   6.2500 Du        
   1349 ****         5.2500   8.0000   9.0000 Du        
   1350 ****         5.2500   8.0000   9.2500 Du        
   1351 ****         5.2500   8.2500   9.0000 Du        
   1352 ****         5.2500   8.2500   9.2500 Du        
   1353 ****         5.2500   8.5000   8.7500 Du        
   1354 ****         5.2500   8.5000   9.0000 Du        
   1355 ****         5.2500   8.5000   9.2500 Du        
   1356 ****         5.2500   8.5000   9.5000 Du        
   1357 ****         5.2500   8.5000   9.7500 Du        
   1358 ****         5.2500   8.7500   9.0000 Du        
   1359 ****         5.2500   8.7500   9.2500 Du        
   1360 ****         5.2500   8.7500   9.5000 Du        
   1361 ****         5.5000   4.7500   5.7500 Du        
   1362 ****         5.5000   5.0000   5.7500 Du        
   1363 ****         5.5000   5.0000   6.0000 Du        
   1364 ****         5.5000   5.0000   6.2500 Du        
   1365 ****         5.5000   5.2500   5.2500 Du        
   1366 ****         5.5000   5.2500   5.5000 Du        
   1367 ****         5.5000   5.2500   5.7500 Du        
   1368 ****         5.5000   5.2500   6.0000 Du        
   1369 ****         5.5000   5.2500   6.2500 Du        
   1370 ****         5.5000   5.5000   5.2500 Du        
   1371 ****         5.5000   5.5000   5.5000 Du        
   1372 ****         5.5000   5.5000   5.7500 Du        
   1373 ****         5.5000   5.5000   6.0000 Du        
   1374 ****         5.5000   5.5000   6.2500 Du        
   1375 ****         5.5000   5.5000   6.5000 Du        
   1376 ****         5.5000   5.7500   5.2500 Du        
   1377 ****         5.5000   5.7500   5.5000 Du        
   1378 ****         5.5000   5.7500   5.7500 Du        
   1379 ****         5.5000   5.7500   6.0000 Du        
   1380 ****         5.5000   5.7500   6.2500 Du        
   1381 ****         5.5000   5.7500   6.5000 Du        
   1382 ****         5.5000   5.7500   6.7500 Du        
   1383 ****         5.5000   6.0000   5.2500 Du        
   1384 ****         5.5000   6.0000   5.5000 Du        
   1385 ****         5.5000   6.0000   5.7500 Du        
   1386 ****         5.5000   6.0000   6.0000 Du        
   1387 ****         5.5000   6.0000   6.2500 Du        
   1388 ****         5.5000   6.0000   6.5000 Du        
   1389 ****         5.5000   6.0000   6.7500 Du        
   1390 ****         5.5000   6.2500   5.7500 Du        
   1391 ****         5.5000   6.2500   6.0000 Du        
   1392 ****         5.5000   6.2500   6.2500 Du        
   1393 ****         5.5000   6.2500   6.5000 Du        
   1394 ****         5.5000   6.2500   6.7500 Du        
   1395 ****         5.5000   6.5000   6.0000 Du        
   1396 ****         5.5000   6.5000   6.2500 Du        
   1397 ****         5.5000   6.5000   6.5000 Du        
   1398 ****         5.5000   6.5000   6.7500 Du        
   1399 ****         5.5000   6.5000   7.0000 Du        
   1400 ****         5.5000   6.5000   7.2500 Du        
   1401 ****         5.5000   6.7500   6.7500 Du        
   1402 ****         5.5000   6.7500   7.0000 Du        
   1403 ****         5.5000   6.7500   7.2500 Du        
   1404 ****         5.5000   7.0000   7.2500 Du        
   1405 ****         5.5000   7.5000   8.7500 Du        
   1406 ****         5.5000   7.5000   9.0000 Du        
   1407 ****         5.5000   7.5000   9.2500 Du        
   1408 ****         5.5000   7.5000  10.0000 Du        
   1409 ****         5.5000   7.7500   8.7500 Du        
   1410 ****         5.5000   7.7500   9.0000 Du        
   1411 ****         5.5000   7.7500   9.2500 Du        
   1412 ****         5.5000   7.7500   9.5000 Du        
   1413 ****         5.5000   7.7500   9.7500 Du        
   1414 ****         5.5000   7.7500  10.0000 Du        
   1415 ****         5.5000   8.0000   8.5000 Du        
   1416 ****         5.5000   8.0000   8.7500 Du        
   1417 ****         5.5000   8.0000   9.0000 Du        
   1418 ****         5.5000   8.0000   9.2500 Du        
   1419 ****         5.5000   8.0000   9.5000 Du        
   1420 ****         5.5000   8.0000   9.7500 Du        
   1421 ****         5.5000   8.0000  10.0000 Du        
   1422 ****         5.5000   8.0000  10.2500 Du        
   1423 ****         5.5000   8.2500   8.7500 Du        
   1424 ****         5.5000   8.2500   9.0000 Du        
   1425 ****         5.5000   8.2500   9.2500 Du        
   1426 ****         5.5000   8.2500   9.5000 Du        
   1427 ****         5.5000   8.2500   9.7500 Du        
   1428 ****         5.5000   8.2500  10.0000 Du        
   1429 ****         5.5000   8.5000   8.7500 Du        
   1430 ****         5.5000   8.5000   9.0000 Du        
   1431 ****         5.5000   8.5000   9.2500 Du        
   1432 ****         5.5000   8.5000   9.5000 Du        
   1433 ****         5.5000   8.5000   9.7500 Du        
   1434 ****         5.5000   8.7500   9.0000 Du        
   1435 ****         5.5000   8.7500   9.2500 Du        
   1436 ****         5.5000   8.7500   9.5000 Du        
   1437 ****         5.7500   4.7500   6.2500 Du        
   1438 ****         5.7500   4.7500   6.5000 Du        
   1439 ****         5.7500   4.7500   6.7500 Du        
   1440 ****         5.7500   5.0000   6.0000 Du        
   1441 ****         5.7500   5.0000   6.2500 Du        
   1442 ****         5.7500   5.0000   6.5000 Du        
   1443 ****         5.7500   5.0000   6.7500 Du        
   1444 ****         5.7500   5.2500   5.7500 Du        
   1445 ****         5.7500   5.2500   6.0000 Du        
   1446 ****         5.7500   5.2500   6.2500 Du        
   1447 ****         5.7500   5.2500   6.5000 Du        
   1448 ****         5.7500   5.2500   6.7500 Du        
   1449 ****         5.7500   5.5000   5.7500 Du        
   1450 ****         5.7500   5.5000   6.0000 Du        
   1451 ****         5.7500   5.5000   6.2500 Du        
   1452 ****         5.7500   5.5000   6.5000 Du        
   1453 ****         5.7500   5.5000   6.7500 Du        
   1454 ****         5.7500   5.5000   7.0000 Du        
   1455 ****         5.7500   5.7500   5.7500 Du        
   1456 ****         5.7500   5.7500   6.0000 Du        
   1457 ****         5.7500   5.7500   6.2500 Du        
   1458 ****         5.7500   5.7500   6.5000 Du        
   1459 ****         5.7500   5.7500   6.7500 Du        
   1460 ****         5.7500   5.7500   7.0000 Du        
   1461 ****         5.7500   6.0000   5.7500 Du        
   1462 ****         5.7500   6.0000   6.0000 Du        
   1463 ****         5.7500   6.0000   6.2500 Du        
   1464 ****         5.7500   6.0000   6.5000 Du        
   1465 ****         5.7500   6.0000   6.7500 Du        
   1466 ****         5.7500   6.0000   7.0000 Du        
   1467 ****         5.7500   6.0000   7.2500 Du        
   1468 ****         5.7500   6.2500   6.0000 Du        
   1469 ****         5.7500   6.2500   6.2500 Du        
   1470 ****         5.7500   6.2500   6.5000 Du        
   1471 ****         5.7500   6.2500   6.7500 Du        
   1472 ****         5.7500   6.2500   7.0000 Du        
   1473 ****         5.7500   6.2500   7.2500 Du        
   1474 ****         5.7500   6.5000   6.2500 Du        
   1475 ****         5.7500   6.5000   6.5000 Du        
   1476 ****         5.7500   6.5000   6.7500 Du        
   1477 ****         5.7500   6.5000   7.0000 Du        
   1478 ****         5.7500   6.5000   7.2500 Du        
   1479 ****         5.7500   6.7500   6.7500 Du        
   1480 ****         5.7500   6.7500   7.0000 Du        
   1481 ****         5.7500   6.7500   7.2500 Du        
   1482 ****         5.7500   6.7500   7.5000 Du        
   1483 ****         5.7500   6.7500   7.7500 Du        
   1484 ****         5.7500   6.7500   8.0000 Du        
   1485 ****         5.7500   7.0000   7.2500 Du        
   1486 ****         5.7500   7.0000   7.7500 Du        
   1487 ****         5.7500   7.0000   8.0000 Du        
   1488 ****         5.7500   7.0000   8.5000 Du        
   1489 ****         5.7500   7.2500   8.0000 Du        
   1490 ****         5.7500   7.2500   8.2500 Du        
   1491 ****         5.7500   7.2500   8.5000 Du        
   1492 ****         5.7500   7.2500   8.7500 Du        
   1493 ****         5.7500   7.2500   9.0000 Du        
   1494 ****         5.7500   7.2500   9.2500 Du        
   1495 ****         5.7500   7.2500  10.2500 Du        
   1496 ****         5.7500   7.2500  10.7500 Du        
   1497 ****         5.7500   7.5000   8.0000 Du        
   1498 ****         5.7500   7.5000   8.2500 Du        
   1499 ****         5.7500   7.5000   8.5000 Du        
   1500 ****         5.7500   7.5000   8.7500 Du        
   1501 ****         5.7500   7.5000   9.0000 Du        
   1502 ****         5.7500   7.5000   9.2500 Du        
   1503 ****         5.7500   7.5000   9.5000 Du        
   1504 ****         5.7500   7.5000   9.7500 Du        
   1505 ****         5.7500   7.5000  10.0000 Du        
   1506 ****         5.7500   7.5000  10.2500 Du        
   1507 ****         5.7500   7.5000  10.5000 Du        
   1508 ****         5.7500   7.5000  10.7500 Du        
   1509 ****         5.7500   7.5000  11.0000 Du        
   1510 ****         5.7500   7.7500   8.2500 Du        
   1511 ****         5.7500   7.7500   8.5000 Du        
   1512 ****         5.7500   7.7500   8.7500 Du        
   1513 ****         5.7500   7.7500   9.0000 Du        
   1514 ****         5.7500   7.7500   9.2500 Du        
   1515 ****         5.7500   7.7500   9.5000 Du        
   1516 ****         5.7500   7.7500   9.7500 Du        
   1517 ****         5.7500   7.7500  10.0000 Du        
   1518 ****         5.7500   7.7500  10.2500 Du        
   1519 ****         5.7500   7.7500  10.5000 Du        
   1520 ****         5.7500   7.7500  10.7500 Du        
   1521 ****         5.7500   7.7500  11.0000 Du        
   1522 ****         5.7500   8.0000   8.5000 Du        
   1523 ****         5.7500   8.0000   8.7500 Du        
   1524 ****         5.7500   8.0000   9.0000 Du        
   1525 ****         5.7500   8.0000   9.2500 Du        
   1526 ****         5.7500   8.0000   9.5000 Du        
   1527 ****         5.7500   8.0000   9.7500 Du        
   1528 ****         5.7500   8.0000  10.0000 Du        
   1529 ****         5.7500   8.0000  10.2500 Du        
   1530 ****         5.7500   8.0000  10.5000 Du        
   1531 ****         5.7500   8.2500   8.7500 Du        
   1532 ****         5.7500   8.2500   9.0000 Du        
   1533 ****         5.7500   8.2500   9.2500 Du        
   1534 ****         5.7500   8.2500   9.5000 Du        
   1535 ****         5.7500   8.2500   9.7500 Du        
   1536 ****         5.7500   8.2500  10.0000 Du        
   1537 ****         5.7500   8.2500  10.2500 Du        
   1538 ****         5.7500   8.5000   9.0000 Du        
   1539 ****         5.7500   8.5000   9.2500 Du        
   1540 ****         5.7500   8.5000   9.5000 Du        
   1541 ****         5.7500   8.5000   9.7500 Du        
   1542 ****         5.7500   8.5000  10.0000 Du        
   1543 ****         5.7500   8.7500   9.2500 Du        
   1544 ****         5.7500   8.7500   9.5000 Du        
   1545 ****         5.7500   8.7500   9.7500 Du        
   1546 ****         6.0000   4.7500   6.5000 Du        
   1547 ****         6.0000   4.7500   6.7500 Du        
   1548 ****         6.0000   5.0000   6.0000 Du        
   1549 ****         6.0000   5.0000   6.2500 Du        
   1550 ****         6.0000   5.0000   6.5000 Du        
   1551 ****         6.0000   5.0000   6.7500 Du        
   1552 ****         6.0000   5.0000   7.0000 Du        
   1553 ****         6.0000   5.2500   6.0000 Du        
   1554 ****         6.0000   5.2500   6.2500 Du        
   1555 ****         6.0000   5.2500   6.5000 Du        
   1556 ****         6.0000   5.2500   6.7500 Du        
   1557 ****         6.0000   5.2500   7.0000 Du        
   1558 ****         6.0000   5.2500   7.2500 Du        
   1559 ****         6.0000   5.5000   6.0000 Du        
   1560 ****         6.0000   5.5000   6.2500 Du        
   1561 ****         6.0000   5.5000   6.5000 Du        
   1562 ****         6.0000   5.5000   6.7500 Du        
   1563 ****         6.0000   5.5000   7.0000 Du        
   1564 ****         6.0000   5.5000   7.2500 Du        
   1565 ****         6.0000   5.5000   7.5000 Du        
   1566 ****         6.0000   5.7500   6.0000 Du        
   1567 ****         6.0000   5.7500   6.2500 Du        
   1568 ****         6.0000   5.7500   6.5000 Du        
   1569 ****         6.0000   5.7500   6.7500 Du        
   1570 ****         6.0000   5.7500   7.0000 Du        
   1571 ****         6.0000   5.7500   7.2500 Du        
   1572 ****         6.0000   6.0000   6.0000 Du        
   1573 ****         6.0000   6.0000   6.2500 Du        
   1574 ****         6.0000   6.0000   6.5000 Du        
   1575 ****         6.0000   6.0000   6.7500 Du        
   1576 ****         6.0000   6.0000   7.0000 Du        
   1577 ****         6.0000   6.0000   7.2500 Du        
   1578 ****         6.0000   6.0000   7.5000 Du        
   1579 ****         6.0000   6.0000   7.7500 Du        
   1580 ****         6.0000   6.2500   6.2500 Du        
   1581 ****         6.0000   6.2500   6.5000 Du        
   1582 ****         6.0000   6.2500   6.7500 Du        
   1583 ****         6.0000   6.2500   7.0000 Du        
   1584 ****         6.0000   6.2500   7.2500 Du        
   1585 ****         6.0000   6.2500   7.5000 Du        
   1586 ****         6.0000   6.2500   7.7500 Du        
   1587 ****         6.0000   6.2500   8.0000 Du        
   1588 ****         6.0000   6.2500  12.5000 Du        
   1589 ****         6.0000   6.2500  12.7500 Du        
   1590 ****         6.0000   6.2500  13.0000 Du        
   1591 ****         6.0000   6.5000   6.5000 Du        
   1592 ****         6.0000   6.5000   6.7500 Du        
   1593 ****         6.0000   6.5000   7.0000 Du        
   1594 ****         6.0000   6.5000   7.2500 Du        
   1595 ****         6.0000   6.5000   7.5000 Du        
   1596 ****         6.0000   6.5000   7.7500 Du        
   1597 ****         6.0000   6.5000   8.0000 Du        
   1598 ****         6.0000   6.5000  12.0000 Du        
   1599 ****         6.0000   6.5000  12.2500 Du        
   1600 ****         6.0000   6.5000  13.0000 Du        
   1601 ****         6.0000   6.7500   6.7500 Du        
   1602 ****         6.0000   6.7500   7.0000 Du        
   1603 ****         6.0000   6.7500   7.2500 Du        
   1604 ****         6.0000   6.7500   7.5000 Du        
   1605 ****         6.0000   6.7500   7.7500 Du        
   1606 ****         6.0000   6.7500   8.0000 Du        
   1607 ****         6.0000   6.7500   8.2500 Du        
   1608 ****         6.0000   6.7500   8.5000 Du        
   1609 ****         6.0000   6.7500   8.7500 Du        
   1610 ****         6.0000   6.7500  10.0000 Du        
   1611 ****         6.0000   6.7500  11.2500 Du        
   1612 ****         6.0000   6.7500  11.7500 Du        
   1613 ****         6.0000   6.7500  12.0000 Du        
   1614 ****         6.0000   6.7500  12.2500 Du        
   1615 ****         6.0000   6.7500  12.5000 Du        
   1616 ****         6.0000   6.7500  12.7500 Du        
   1617 ****         6.0000   6.7500  13.0000 Du        
   1618 ****         6.0000   7.0000   7.2500 Du        
   1619 ****         6.0000   7.0000   7.5000 Du        
   1620 ****         6.0000   7.0000   7.7500 Du        
   1621 ****         6.0000   7.0000   8.0000 Du        
   1622 ****         6.0000   7.0000   8.2500 Du        
   1623 ****         6.0000   7.0000   8.5000 Du        
   1624 ****         6.0000   7.0000   8.7500 Du        
   1625 ****         6.0000   7.0000   9.0000 Du        
   1626 ****         6.0000   7.0000   9.2500 Du        
   1627 ****         6.0000   7.0000   9.7500 Du        
   1628 ****         6.0000   7.0000  10.0000 Du        
   1629 ****         6.0000   7.0000  10.2500 Du        
   1630 ****         6.0000   7.0000  10.5000 Du        
   1631 ****         6.0000   7.0000  10.7500 Du        
   1632 ****         6.0000   7.0000  11.0000 Du        
   1633 ****         6.0000   7.0000  11.2500 Du        
   1634 ****         6.0000   7.0000  11.7500 Du        
   1635 ****         6.0000   7.0000  12.0000 Du        
   1636 ****         6.0000   7.0000  12.2500 Du        
   1637 ****         6.0000   7.0000  12.5000 Du        
   1638 ****         6.0000   7.0000  12.7500 Du        
   1639 ****         6.0000   7.0000  13.0000 Du        
   1640 ****         6.0000   7.2500   7.7500 Du        
   1641 ****         6.0000   7.2500   8.0000 Du        
   1642 ****         6.0000   7.2500   8.2500 Du        
   1643 ****         6.0000   7.2500   8.5000 Du        
   1644 ****         6.0000   7.2500   8.7500 Du        
   1645 ****         6.0000   7.2500   9.0000 Du        
   1646 ****         6.0000   7.2500   9.2500 Du        
   1647 ****         6.0000   7.2500   9.5000 Du        
   1648 ****         6.0000   7.2500   9.7500 Du        
   1649 ****         6.0000   7.2500  10.0000 Du        
   1650 ****         6.0000   7.2500  10.2500 Du        
   1651 ****         6.0000   7.2500  10.5000 Du        
   1652 ****         6.0000   7.2500  10.7500 Du        
   1653 ****         6.0000   7.2500  11.0000 Du        
   1654 ****         6.0000   7.2500  11.2500 Du        
   1655 ****         6.0000   7.2500  11.5000 Du        
   1656 ****         6.0000   7.2500  11.7500 Du        
   1657 ****         6.0000   7.2500  12.0000 Du        
   1658 ****         6.0000   7.2500  12.2500 Du        
   1659 ****         6.0000   7.5000   8.0000 Du        
   1660 ****         6.0000   7.5000   8.2500 Du        
   1661 ****         6.0000   7.5000   8.5000 Du        
   1662 ****         6.0000   7.5000   8.7500 Du        
   1663 ****         6.0000   7.5000   9.0000 Du        
   1664 ****         6.0000   7.5000   9.2500 Du        
   1665 ****         6.0000   7.5000   9.5000 Du        
   1666 ****         6.0000   7.5000   9.7500 Du        
   1667 ****         6.0000   7.5000  10.0000 Du        
   1668 ****         6.0000   7.5000  10.2500 Du        
   1669 ****         6.0000   7.5000  10.5000 Du        
   1670 ****         6.0000   7.5000  10.7500 Du        
   1671 ****         6.0000   7.5000  11.0000 Du        
   1672 ****         6.0000   7.5000  11.2500 Du        
   1673 ****         6.0000   7.5000  11.5000 Du        
   1674 ****         6.0000   7.5000  11.7500 Du        
   1675 ****         6.0000   7.7500   8.0000 Du        
   1676 ****         6.0000   7.7500   8.2500 Du        
   1677 ****         6.0000   7.7500   8.5000 Du        
   1678 ****         6.0000   7.7500   8.7500 Du        
   1679 ****         6.0000   7.7500   9.0000 Du        
   1680 ****         6.0000   7.7500   9.2500 Du        
   1681 ****         6.0000   7.7500   9.5000 Du        
   1682 ****         6.0000   7.7500   9.7500 Du        
   1683 ****         6.0000   7.7500  10.0000 Du        
   1684 ****         6.0000   7.7500  10.2500 Du        
   1685 ****         6.0000   7.7500  10.5000 Du        
   1686 ****         6.0000   7.7500  10.7500 Du        
   1687 ****         6.0000   7.7500  11.0000 Du        
   1688 ****         6.0000   8.0000   8.5000 Du        
   1689 ****         6.0000   8.0000   8.7500 Du        
   1690 ****         6.0000   8.0000   9.0000 Du        
   1691 ****         6.0000   8.0000   9.2500 Du        
   1692 ****         6.0000   8.0000   9.5000 Du        
   1693 ****         6.0000   8.0000   9.7500 Du        
   1694 ****         6.0000   8.0000  10.0000 Du        
   1695 ****         6.0000   8.0000  10.2500 Du        
   1696 ****         6.0000   8.0000  10.5000 Du        
   1697 ****         6.0000   8.0000  10.7500 Du        
   1698 ****         6.0000   8.2500   8.7500 Du        
   1699 ****         6.0000   8.2500   9.0000 Du        
   1700 ****         6.0000   8.2500   9.2500 Du        
   1701 ****         6.0000   8.2500   9.5000 Du        
   1702 ****         6.0000   8.2500   9.7500 Du        
   1703 ****         6.0000   8.2500  10.0000 Du        
   1704 ****         6.0000   8.2500  10.2500 Du        
   1705 ****         6.0000   8.5000   9.0000 Du        
   1706 ****         6.0000   8.5000   9.2500 Du        
   1707 ****         6.0000   8.5000   9.5000 Du        
   1708 ****         6.0000   8.5000   9.7500 Du        
   1709 ****         6.0000   8.5000  10.0000 Du        
   1710 ****         6.0000   8.7500   9.2500 Du        
   1711 ****         6.0000   8.7500   9.5000 Du        
   1712 ****         6.0000   8.7500   9.7500 Du        
   1713 ****         6.2500   4.7500   6.5000 Du        
   1714 ****         6.2500   4.7500   6.7500 Du        
   1715 ****         6.2500   5.0000   6.5000 Du        
   1716 ****         6.2500   5.0000   6.7500 Du        
   1717 ****         6.2500   5.0000   7.0000 Du        
   1718 ****         6.2500   5.2500   6.2500 Du        
   1719 ****         6.2500   5.2500   6.5000 Du        
   1720 ****         6.2500   5.2500   6.7500 Du        
   1721 ****         6.2500   5.2500   7.0000 Du        
   1722 ****         6.2500   5.2500   7.2500 Du        
   1723 ****         6.2500   5.5000   6.2500 Du        
   1724 ****         6.2500   5.5000   6.5000 Du        
   1725 ****         6.2500   5.5000   6.7500 Du        
   1726 ****         6.2500   5.5000   7.0000 Du        
   1727 ****         6.2500   5.5000   7.2500 Du        
   1728 ****         6.2500   5.5000   7.5000 Du        
   1729 ****         6.2500   5.7500   6.0000 Du        
   1730 ****         6.2500   5.7500   6.2500 Du        
   1731 ****         6.2500   5.7500   6.5000 Du        
   1732 ****         6.2500   5.7500   6.7500 Du        
   1733 ****         6.2500   5.7500   7.0000 Du        
   1734 ****         6.2500   5.7500   7.2500 Du        
   1735 ****         6.2500   5.7500   7.5000 Du        
   1736 ****         6.2500   5.7500   7.7500 Du        
   1737 ****         6.2500   6.0000   6.2500 Du        
   1738 ****         6.2500   6.0000   6.5000 Du        
   1739 ****         6.2500   6.0000   6.7500 Du        
   1740 ****         6.2500   6.0000   7.0000 Du        
   1741 ****         6.2500   6.0000   7.2500 Du        
   1742 ****         6.2500   6.0000   7.5000 Du        
   1743 ****         6.2500   6.0000   7.7500 Du        
   1744 ****         6.2500   6.0000   8.0000 Du        
   1745 ****         6.2500   6.0000  12.0000 Du        
   1746 ****         6.2500   6.0000  12.2500 Du        
   1747 ****         6.2500   6.0000  12.5000 Du        
   1748 ****         6.2500   6.0000  12.7500 Du        
   1749 ****         6.2500   6.0000  13.0000 Du        
   1750 ****         6.2500   6.0000  13.2500 Du        
   1751 ****         6.2500   6.2500   6.2500 Du        
   1752 ****         6.2500   6.2500   6.5000 Du        
   1753 ****         6.2500   6.2500   6.7500 Du        
   1754 ****         6.2500   6.2500   7.0000 Du        
   1755 ****         6.2500   6.2500   7.2500 Du        
   1756 ****         6.2500   6.2500   7.5000 Du        
   1757 ****         6.2500   6.2500   7.7500 Du        
   1758 ****         6.2500   6.2500   8.0000 Du        
   1759 ****         6.2500   6.2500   8.2500 Du        
   1760 ****         6.2500   6.2500  11.7500 Du        
   1761 ****         6.2500   6.2500  12.0000 Du        
   1762 ****         6.2500   6.2500  12.2500 Du        
   1763 ****         6.2500   6.2500  12.5000 Du        
   1764 ****         6.2500   6.2500  12.7500 Du        
   1765 ****         6.2500   6.2500  13.0000 Du        
   1766 ****         6.2500   6.2500  13.2500 Du        
   1767 ****         6.2500   6.5000   6.5000 Du        
   1768 ****         6.2500   6.5000   6.7500 Du        
   1769 ****         6.2500   6.5000   7.0000 Du        
   1770 ****         6.2500   6.5000   7.2500 Du        
   1771 ****         6.2500   6.5000   7.5000 Du        
   1772 ****         6.2500   6.5000   7.7500 Du        
   1773 ****         6.2500   6.5000   8.0000 Du        
   1774 ****         6.2500   6.5000   8.2500 Du        
   1775 ****         6.2500   6.5000   8.5000 Du        
   1776 ****         6.2500   6.5000  11.0000 Du        
   1777 ****         6.2500   6.5000  11.2500 Du        
   1778 ****         6.2500   6.5000  11.5000 Du        
   1779 ****         6.2500   6.5000  11.7500 Du        
   1780 ****         6.2500   6.5000  12.0000 Du        
   1781 ****         6.2500   6.5000  12.2500 Du        
   1782 ****         6.2500   6.5000  12.5000 Du        
   1783 ****         6.2500   6.5000  12.7500 Du        
   1784 ****         6.2500   6.5000  13.0000 Du        
   1785 ****         6.2500   6.5000  13.2500 Du        
   1786 ****         6.2500   6.7500   6.7500 Du        
   1787 ****         6.2500   6.7500   7.0000 Du        
   1788 ****         6.2500   6.7500   7.2500 Du        
   1789 ****         6.2500   6.7500   7.5000 Du        
   1790 ****         6.2500   6.7500   7.7500 Du        
   1791 ****         6.2500   6.7500   8.0000 Du        
   1792 ****         6.2500   6.7500   8.2500 Du        
   1793 ****         6.2500   6.7500   8.5000 Du        
   1794 ****         6.2500   6.7500   8.7500 Du        
   1795 ****         6.2500   6.7500   9.0000 Du        
   1796 ****         6.2500   6.7500   9.2500 Du        
   1797 ****         6.2500   6.7500   9.5000 Du        
   1798 ****         6.2500   6.7500   9.7500 Du        
   1799 ****         6.2500   6.7500  10.0000 Du        
   1800 ****         6.2500   6.7500  10.2500 Du        
   1801 ****         6.2500   6.7500  10.5000 Du        
   1802 ****         6.2500   6.7500  10.7500 Du        
   1803 ****         6.2500   6.7500  11.0000 Du        
   1804 ****         6.2500   6.7500  11.2500 Du        
   1805 ****         6.2500   6.7500  11.5000 Du        
   1806 ****         6.2500   6.7500  11.7500 Du        
   1807 ****         6.2500   6.7500  12.0000 Du        
   1808 ****         6.2500   6.7500  12.2500 Du        
   1809 ****         6.2500   6.7500  12.5000 Du        
   1810 ****         6.2500   6.7500  12.7500 Du        
   1811 ****         6.2500   6.7500  13.0000 Du        
   1812 ****         6.2500   6.7500  13.2500 Du        
   1813 ****         6.2500   7.0000   7.2500 Du        
   1814 ****         6.2500   7.0000   7.5000 Du        
   1815 ****         6.2500   7.0000   7.7500 Du        
   1816 ****         6.2500   7.0000   8.0000 Du        
   1817 ****         6.2500   7.0000   8.2500 Du        
   1818 ****         6.2500   7.0000   8.5000 Du        
   1819 ****         6.2500   7.0000   8.7500 Du        
   1820 ****         6.2500   7.0000   9.0000 Du        
   1821 ****         6.2500   7.0000   9.2500 Du        
   1822 ****         6.2500   7.0000   9.5000 Du        
   1823 ****         6.2500   7.0000   9.7500 Du        
   1824 ****         6.2500   7.0000  10.0000 Du        
   1825 ****         6.2500   7.0000  10.2500 Du        
   1826 ****         6.2500   7.0000  10.5000 Du        
   1827 ****         6.2500   7.0000  10.7500 Du        
   1828 ****         6.2500   7.0000  11.0000 Du        
   1829 ****         6.2500   7.0000  11.2500 Du        
   1830 ****         6.2500   7.0000  11.5000 Du        
   1831 ****         6.2500   7.0000  11.7500 Du        
   1832 ****         6.2500   7.0000  12.0000 Du        
   1833 ****         6.2500   7.0000  12.2500 Du        
   1834 ****         6.2500   7.0000  12.5000 Du        
   1835 ****         6.2500   7.0000  12.7500 Du        
   1836 ****         6.2500   7.0000  13.0000 Du        
   1837 ****         6.2500   7.2500   7.7500 Du        
   1838 ****         6.2500   7.2500   8.0000 Du        
   1839 ****         6.2500   7.2500   8.2500 Du        
   1840 ****         6.2500   7.2500   8.5000 Du        
   1841 ****         6.2500   7.2500   8.7500 Du        
   1842 ****         6.2500   7.2500   9.0000 Du        
   1843 ****         6.2500   7.2500   9.2500 Du        
   1844 ****         6.2500   7.2500   9.5000 Du        
   1845 ****         6.2500   7.2500   9.7500 Du        
   1846 ****         6.2500   7.2500  10.0000 Du        
   1847 ****         6.2500   7.2500  10.2500 Du        
   1848 ****         6.2500   7.2500  10.5000 Du        
   1849 ****         6.2500   7.2500  10.7500 Du        
   1850 ****         6.2500   7.2500  11.0000 Du        
   1851 ****         6.2500   7.2500  11.2500 Du        
   1852 ****         6.2500   7.2500  11.5000 Du        
   1853 ****         6.2500   7.2500  11.7500 Du        
   1854 ****         6.2500   7.2500  12.0000 Du        
   1855 ****         6.2500   7.2500  12.2500 Du        
   1856 ****         6.2500   7.5000   8.0000 Du        
   1857 ****         6.2500   7.5000   8.2500 Du        
   1858 ****         6.2500   7.5000   8.5000 Du        
   1859 ****         6.2500   7.5000   8.7500 Du        
   1860 ****         6.2500   7.5000   9.0000 Du        
   1861 ****         6.2500   7.5000   9.2500 Du        
   1862 ****         6.2500   7.5000   9.5000 Du        
   1863 ****         6.2500   7.5000   9.7500 Du        
   1864 ****         6.2500   7.5000  10.0000 Du        
   1865 ****         6.2500   7.5000  10.2500 Du        
   1866 ****         6.2500   7.5000  10.5000 Du        
   1867 ****         6.2500   7.5000  10.7500 Du        
   1868 ****         6.2500   7.5000  11.0000 Du        
   1869 ****         6.2500   7.5000  11.2500 Du        
   1870 ****         6.2500   7.5000  11.5000 Du        
   1871 ****         6.2500   7.5000  11.7500 Du        
   1872 ****         6.2500   7.7500   8.0000 Du        
   1873 ****         6.2500   7.7500   8.2500 Du        
   1874 ****         6.2500   7.7500   8.5000 Du        
   1875 ****         6.2500   7.7500   8.7500 Du        
   1876 ****         6.2500   7.7500   9.0000 Du        
   1877 ****         6.2500   7.7500   9.2500 Du        
   1878 ****         6.2500   7.7500   9.5000 Du        
   1879 ****         6.2500   7.7500   9.7500 Du        
   1880 ****         6.2500   7.7500  10.0000 Du        
   1881 ****         6.2500   7.7500  10.2500 Du        
   1882 ****         6.2500   7.7500  10.5000 Du        
   1883 ****         6.2500   7.7500  10.7500 Du        
   1884 ****         6.2500   7.7500  11.0000 Du        
   1885 ****         6.2500   8.0000   8.5000 Du        
   1886 ****         6.2500   8.0000   8.7500 Du        
   1887 ****         6.2500   8.0000   9.0000 Du        
   1888 ****         6.2500   8.0000   9.2500 Du        
   1889 ****         6.2500   8.0000   9.5000 Du        
   1890 ****         6.2500   8.0000   9.7500 Du        
   1891 ****         6.2500   8.0000  10.0000 Du        
   1892 ****         6.2500   8.0000  10.2500 Du        
   1893 ****         6.2500   8.0000  10.5000 Du        
   1894 ****         6.2500   8.0000  10.7500 Du        
   1895 ****         6.2500   8.2500   8.7500 Du        
   1896 ****         6.2500   8.2500   9.0000 Du        
   1897 ****         6.2500   8.2500   9.2500 Du        
   1898 ****         6.2500   8.2500   9.5000 Du        
   1899 ****         6.2500   8.2500   9.7500 Du        
   1900 ****         6.2500   8.2500  10.0000 Du        
   1901 ****         6.2500   8.2500  10.2500 Du        
   1902 ****         6.2500   8.5000   9.0000 Du        
   1903 ****         6.2500   8.5000   9.2500 Du        
   1904 ****         6.2500   8.5000   9.5000 Du        
   1905 ****         6.2500   8.5000   9.7500 Du        
   1906 ****         6.2500   8.5000  10.0000 Du        
   1907 ****         6.2500   8.7500   9.2500 Du        
   1908 ****         6.2500   8.7500   9.5000 Du        
   1909 ****         6.2500   8.7500   9.7500 Du        
   1910 ****         6.5000   4.7500   6.7500 Du        
   1911 ****         6.5000   4.7500   7.0000 Du        
   1912 ****         6.5000   5.0000   6.5000 Du        
   1913 ****         6.5000   5.0000   6.7500 Du        
   1914 ****         6.5000   5.0000   7.0000 Du        
   1915 ****         6.5000   5.0000   7.2500 Du        
   1916 ****         6.5000   5.2500   6.5000 Du        
   1917 ****         6.5000   5.2500   6.7500 Du        
   1918 ****         6.5000   5.2500   7.0000 Du        
   1919 ****         6.5000   5.2500   7.2500 Du        
   1920 ****         6.5000   5.2500   7.5000 Du        
   1921 ****         6.5000   5.2500  13.0000 Du        
   1922 ****         6.5000   5.5000   6.2500 Du        
   1923 ****         6.5000   5.5000   6.5000 Du        
   1924 ****         6.5000   5.5000   6.7500 Du        
   1925 ****         6.5000   5.5000   7.0000 Du        
   1926 ****         6.5000   5.5000   7.2500 Du        
   1927 ****         6.5000   5.5000   7.5000 Du        
   1928 ****         6.5000   5.5000   7.7500 Du        
   1929 ****         6.5000   5.5000   8.0000 Du        
   1930 ****         6.5000   5.5000  12.2500 Du        
   1931 ****         6.5000   5.5000  12.5000 Du        
   1932 ****         6.5000   5.5000  12.7500 Du        
   1933 ****         6.5000   5.5000  13.0000 Du        
   1934 ****         6.5000   5.5000  13.2500 Du        
   1935 ****         6.5000   5.7500   6.2500 Du        
   1936 ****         6.5000   5.7500   6.5000 Du        
   1937 ****         6.5000   5.7500   6.7500 Du        
   1938 ****         6.5000   5.7500   7.0000 Du        
   1939 ****         6.5000   5.7500   7.2500 Du        
   1940 ****         6.5000   5.7500   7.5000 Du        
   1941 ****         6.5000   5.7500   7.7500 Du        
   1942 ****         6.5000   5.7500   8.0000 Du        
   1943 ****         6.5000   5.7500  12.0000 Du        
   1944 ****         6.5000   5.7500  12.2500 Du        
   1945 ****         6.5000   5.7500  12.5000 Du        
   1946 ****         6.5000   5.7500  12.7500 Du        
   1947 ****         6.5000   5.7500  13.0000 Du        
   1948 ****         6.5000   5.7500  13.2500 Du        
   1949 ****         6.5000   5.7500  13.5000 Du        
   1950 ****         6.5000   6.0000   6.2500 Du        
   1951 ****         6.5000   6.0000   6.5000 Du        
   1952 ****         6.5000   6.0000   6.7500 Du        
   1953 ****         6.5000   6.0000   7.0000 Du        
   1954 ****         6.5000   6.0000   7.2500 Du        
   1955 ****         6.5000   6.0000   7.5000 Du        
   1956 ****         6.5000   6.0000   7.7500 Du        
   1957 ****         6.5000   6.0000   8.0000 Du        
   1958 ****         6.5000   6.0000   8.2500 Du        
   1959 ****         6.5000   6.0000   8.5000 Du        
   1960 ****         6.5000   6.0000  11.5000 Du        
   1961 ****         6.5000   6.0000  11.7500 Du        
   1962 ****         6.5000   6.0000  12.0000 Du        
   1963 ****         6.5000   6.0000  12.2500 Du        
   1964 ****         6.5000   6.0000  12.5000 Du        
   1965 ****         6.5000   6.0000  12.7500 Du        
   1966 ****         6.5000   6.0000  13.0000 Du        
   1967 ****         6.5000   6.0000  13.2500 Du        
   1968 ****         6.5000   6.0000  13.5000 Du        
   1969 ****         6.5000   6.2500   6.2500 Du        
   1970 ****         6.5000   6.2500   6.5000 Du        
   1971 ****         6.5000   6.2500   6.7500 Du        
   1972 ****         6.5000   6.2500   7.0000 Du        
   1973 ****         6.5000   6.2500   7.2500 Du        
   1974 ****         6.5000   6.2500   7.5000 Du        
   1975 ****         6.5000   6.2500   7.7500 Du        
   1976 ****         6.5000   6.2500   8.0000 Du        
   1977 ****         6.5000   6.2500   8.2500 Du        
   1978 ****         6.5000   6.2500   8.5000 Du        
   1979 ****         6.5000   6.2500   8.7500 Du        
   1980 ****         6.5000   6.2500   9.0000 Du        
   1981 ****         6.5000   6.2500  10.2500 Du        
   1982 ****         6.5000   6.2500  10.7500 Du        
   1983 ****         6.5000   6.2500  11.0000 Du        
   1984 ****         6.5000   6.2500  11.2500 Du        
   1985 ****         6.5000   6.2500  11.5000 Du        
   1986 ****         6.5000   6.2500  11.7500 Du        
   1987 ****         6.5000   6.2500  12.0000 Du        
   1988 ****         6.5000   6.2500  12.2500 Du        
   1989 ****         6.5000   6.2500  12.5000 Du        
   1990 ****         6.5000   6.2500  12.7500 Du        
   1991 ****         6.5000   6.2500  13.0000 Du        
   1992 ****         6.5000   6.2500  13.2500 Du        
   1993 ****         6.5000   6.5000   6.5000 Du        
   1994 ****         6.5000   6.5000   6.7500 Du        
   1995 ****         6.5000   6.5000   7.0000 Du        
   1996 ****         6.5000   6.5000   7.2500 Du        
   1997 ****         6.5000   6.5000   7.5000 Du        
   1998 ****         6.5000   6.5000   7.7500 Du        
   1999 ****         6.5000   6.5000   8.0000 Du        
   2000 ****         6.5000   6.5000   8.2500 Du        
   2001 ****         6.5000   6.5000   8.5000 Du        
   2002 ****         6.5000   6.5000   8.7500 Du        
   2003 ****         6.5000   6.5000   9.0000 Du        
   2004 ****         6.5000   6.5000   9.2500 Du        
   2005 ****         6.5000   6.5000   9.5000 Du        
   2006 ****         6.5000   6.5000   9.7500 Du        
   2007 ****         6.5000   6.5000  10.0000 Du        
   2008 ****         6.5000   6.5000  10.2500 Du        
   2009 ****         6.5000   6.5000  10.5000 Du        
   2010 ****         6.5000   6.5000  10.7500 Du        
   2011 ****         6.5000   6.5000  11.0000 Du        
   2012 ****         6.5000   6.5000  11.2500 Du        
   2013 ****         6.5000   6.5000  11.5000 Du        
   2014 ****         6.5000   6.5000  11.7500 Du        
   2015 ****         6.5000   6.5000  12.0000 Du        
   2016 ****         6.5000   6.5000  12.2500 Du        
   2017 ****         6.5000   6.5000  12.5000 Du        
   2018 ****         6.5000   6.5000  12.7500 Du        
   2019 ****         6.5000   6.5000  13.0000 Du        
   2020 ****         6.5000   6.5000  13.2500 Du        
   2021 ****         6.5000   6.7500   6.7500 Du        
   2022 ****         6.5000   6.7500   7.0000 Du        
   2023 ****         6.5000   6.7500   7.2500 Du        
   2024 ****         6.5000   6.7500   7.5000 Du        
   2025 ****         6.5000   6.7500   7.7500 Du        
   2026 ****         6.5000   6.7500   8.0000 Du        
   2027 ****         6.5000   6.7500   8.2500 Du        
   2028 ****         6.5000   6.7500   8.5000 Du        
   2029 ****         6.5000   6.7500   8.7500 Du        
   2030 ****         6.5000   6.7500   9.0000 Du        
   2031 ****         6.5000   6.7500   9.2500 Du        
   2032 ****         6.5000   6.7500   9.5000 Du        
   2033 ****         6.5000   6.7500   9.7500 Du        
   2034 ****         6.5000   6.7500  10.0000 Du        
   2035 ****         6.5000   6.7500  10.2500 Du        
   2036 ****         6.5000   6.7500  10.5000 Du        
   2037 ****         6.5000   6.7500  10.7500 Du        
   2038 ****         6.5000   6.7500  11.0000 Du        
   2039 ****         6.5000   6.7500  11.2500 Du        
   2040 ****         6.5000   6.7500  11.5000 Du        
   2041 ****         6.5000   6.7500  11.7500 Du        
   2042 ****         6.5000   6.7500  12.0000 Du        
   2043 ****         6.5000   6.7500  12.2500 Du        
   2044 ****         6.5000   6.7500  12.5000 Du        
   2045 ****         6.5000   6.7500  12.7500 Du        
   2046 ****         6.5000   6.7500  13.0000 Du        
   2047 ****         6.5000   7.0000   7.0000 Du        
   2048 ****         6.5000   7.0000   7.2500 Du        
   2049 ****         6.5000   7.0000   7.5000 Du        
   2050 ****         6.5000   7.0000   7.7500 Du        
   2051 ****         6.5000   7.0000   8.0000 Du        
   2052 ****         6.5000   7.0000   8.2500 Du        
   2053 ****         6.5000   7.0000   8.5000 Du        
   2054 ****         6.5000   7.0000   8.7500 Du        
   2055 ****         6.5000   7.0000   9.0000 Du        
   2056 ****         6.5000   7.0000   9.2500 Du        
   2057 ****         6.5000   7.0000   9.5000 Du        
   2058 ****         6.5000   7.0000   9.7500 Du        
   2059 ****         6.5000   7.0000  10.0000 Du        
   2060 ****         6.5000   7.0000  10.2500 Du        
   2061 ****         6.5000   7.0000  10.5000 Du        
   2062 ****         6.5000   7.0000  10.7500 Du        
   2063 ****         6.5000   7.0000  11.0000 Du        
   2064 ****         6.5000   7.0000  11.2500 Du        
   2065 ****         6.5000   7.0000  11.5000 Du        
   2066 ****         6.5000   7.0000  11.7500 Du        
   2067 ****         6.5000   7.0000  12.0000 Du        
   2068 ****         6.5000   7.0000  12.2500 Du        
   2069 ****         6.5000   7.0000  12.5000 Du        
   2070 ****         6.5000   7.0000  12.7500 Du        
   2071 ****         6.5000   7.0000  13.0000 Du        
   2072 ****         6.5000   7.2500   7.2500 Du        
   2073 ****         6.5000   7.2500   7.5000 Du        
   2074 ****         6.5000   7.2500   7.7500 Du        
   2075 ****         6.5000   7.2500   8.0000 Du        
   2076 ****         6.5000   7.2500   8.2500 Du        
   2077 ****         6.5000   7.2500   8.5000 Du        
   2078 ****         6.5000   7.2500   8.7500 Du        
   2079 ****         6.5000   7.2500   9.0000 Du        
   2080 ****         6.5000   7.2500   9.2500 Du        
   2081 ****         6.5000   7.2500   9.5000 Du        
   2082 ****         6.5000   7.2500   9.7500 Du        
   2083 ****         6.5000   7.2500  10.0000 Du        
   2084 ****         6.5000   7.2500  10.2500 Du        
   2085 ****         6.5000   7.2500  10.5000 Du        
   2086 ****         6.5000   7.2500  10.7500 Du        
   2087 ****         6.5000   7.2500  11.0000 Du        
   2088 ****         6.5000   7.2500  11.2500 Du        
   2089 ****         6.5000   7.2500  11.5000 Du        
   2090 ****         6.5000   7.2500  11.7500 Du        
   2091 ****         6.5000   7.2500  12.0000 Du        
   2092 ****         6.5000   7.2500  12.2500 Du        
   2093 ****         6.5000   7.2500  12.5000 Du        
   2094 ****         6.5000   7.5000   7.7500 Du        
   2095 ****         6.5000   7.5000   8.0000 Du        
   2096 ****         6.5000   7.5000   8.2500 Du        
   2097 ****         6.5000   7.5000   8.5000 Du        
   2098 ****         6.5000   7.5000   8.7500 Du        
   2099 ****         6.5000   7.5000   9.0000 Du        
   2100 ****         6.5000   7.5000   9.2500 Du        
   2101 ****         6.5000   7.5000   9.5000 Du        
   2102 ****         6.5000   7.5000   9.7500 Du        
   2103 ****         6.5000   7.5000  10.0000 Du        
   2104 ****         6.5000   7.5000  10.2500 Du        
   2105 ****         6.5000   7.5000  10.5000 Du        
   2106 ****         6.5000   7.5000  10.7500 Du        
   2107 ****         6.5000   7.5000  11.0000 Du        
   2108 ****         6.5000   7.5000  11.2500 Du        
   2109 ****         6.5000   7.5000  11.5000 Du        
   2110 ****         6.5000   7.5000  11.7500 Du        
   2111 ****         6.5000   7.7500   8.0000 Du        
   2112 ****         6.5000   7.7500   8.2500 Du        
   2113 ****         6.5000   7.7500   8.5000 Du        
   2114 ****         6.5000   7.7500   8.7500 Du        
   2115 ****         6.5000   7.7500   9.0000 Du        
   2116 ****         6.5000   7.7500   9.2500 Du        
   2117 ****         6.5000   7.7500   9.5000 Du        
   2118 ****         6.5000   7.7500   9.7500 Du        
   2119 ****         6.5000   7.7500  10.0000 Du        
   2120 ****         6.5000   7.7500  10.2500 Du        
   2121 ****         6.5000   7.7500  10.5000 Du        
   2122 ****         6.5000   7.7500  10.7500 Du        
   2123 ****         6.5000   7.7500  11.0000 Du        
   2124 ****         6.5000   7.7500  11.2500 Du        
   2125 ****         6.5000   8.0000   8.2500 Du        
   2126 ****         6.5000   8.0000   8.5000 Du        
   2127 ****         6.5000   8.0000   8.7500 Du        
   2128 ****         6.5000   8.0000   9.0000 Du        
   2129 ****         6.5000   8.0000   9.2500 Du        
   2130 ****         6.5000   8.0000   9.5000 Du        
   2131 ****         6.5000   8.0000   9.7500 Du        
   2132 ****         6.5000   8.0000  10.0000 Du        
   2133 ****         6.5000   8.0000  10.2500 Du        
   2134 ****         6.5000   8.0000  10.5000 Du        
   2135 ****         6.5000   8.0000  10.7500 Du        
   2136 ****         6.5000   8.2500   8.7500 Du        
   2137 ****         6.5000   8.2500   9.0000 Du        
   2138 ****         6.5000   8.2500   9.2500 Du        
   2139 ****         6.5000   8.2500   9.5000 Du        
   2140 ****         6.5000   8.2500   9.7500 Du        
   2141 ****         6.5000   8.2500  10.0000 Du        
   2142 ****         6.5000   8.2500  10.2500 Du        
   2143 ****         6.5000   8.5000   9.0000 Du        
   2144 ****         6.5000   8.5000   9.2500 Du        
   2145 ****         6.5000   8.5000   9.5000 Du        
   2146 ****         6.5000   8.5000   9.7500 Du        
   2147 ****         6.5000   8.5000  10.0000 Du        
   2148 ****         6.5000   8.7500   9.2500 Du        
   2149 ****         6.5000   8.7500   9.5000 Du        
   2150 ****         6.5000   8.7500   9.7500 Du        
   2151 ****         6.7500   5.0000   6.7500 Du        
   2152 ****         6.7500   5.0000   7.0000 Du        
   2153 ****         6.7500   5.0000   7.2500 Du        
   2154 ****         6.7500   5.0000  13.0000 Du        
   2155 ****         6.7500   5.2500   6.5000 Du        
   2156 ****         6.7500   5.2500   6.7500 Du        
   2157 ****         6.7500   5.2500   7.0000 Du        
   2158 ****         6.7500   5.2500   7.2500 Du        
   2159 ****         6.7500   5.2500   7.5000 Du        
   2160 ****         6.7500   5.2500   7.7500 Du        
   2161 ****         6.7500   5.2500  12.7500 Du        
   2162 ****         6.7500   5.2500  13.0000 Du        
   2163 ****         6.7500   5.2500  13.2500 Du        
   2164 ****         6.7500   5.5000   6.5000 Du        
   2165 ****         6.7500   5.5000   6.7500 Du        
   2166 ****         6.7500   5.5000   7.0000 Du        
   2167 ****         6.7500   5.5000   7.2500 Du        
   2168 ****         6.7500   5.5000   7.5000 Du        
   2169 ****         6.7500   5.5000   7.7500 Du        
   2170 ****         6.7500   5.5000   8.0000 Du        
   2171 ****         6.7500   5.5000  12.2500 Du        
   2172 ****         6.7500   5.5000  12.5000 Du        
   2173 ****         6.7500   5.5000  12.7500 Du        
   2174 ****         6.7500   5.5000  13.0000 Du        
   2175 ****         6.7500   5.5000  13.2500 Du        
   2176 ****         6.7500   5.7500   6.5000 Du        
   2177 ****         6.7500   5.7500   6.7500 Du        
   2178 ****         6.7500   5.7500   7.0000 Du        
   2179 ****         6.7500   5.7500   7.2500 Du        
   2180 ****         6.7500   5.7500   7.5000 Du        
   2181 ****         6.7500   5.7500   7.7500 Du        
   2182 ****         6.7500   5.7500   8.0000 Du        
   2183 ****         6.7500   5.7500   8.2500 Du        
   2184 ****         6.7500   5.7500   8.5000 Du        
   2185 ****         6.7500   5.7500  11.7500 Du        
   2186 ****         6.7500   5.7500  12.0000 Du        
   2187 ****         6.7500   5.7500  12.2500 Du        
   2188 ****         6.7500   5.7500  12.5000 Du        
   2189 ****         6.7500   5.7500  12.7500 Du        
   2190 ****         6.7500   5.7500  13.0000 Du        
   2191 ****         6.7500   5.7500  13.2500 Du        
   2192 ****         6.7500   5.7500  13.5000 Du        
   2193 ****         6.7500   6.0000   6.2500 Du        
   2194 ****         6.7500   6.0000   6.5000 Du        
   2195 ****         6.7500   6.0000   6.7500 Du        
   2196 ****         6.7500   6.0000   7.0000 Du        
   2197 ****         6.7500   6.0000   7.2500 Du        
   2198 ****         6.7500   6.0000   7.5000 Du        
   2199 ****         6.7500   6.0000   7.7500 Du        
   2200 ****         6.7500   6.0000   8.0000 Du        
   2201 ****         6.7500   6.0000   8.2500 Du        
   2202 ****         6.7500   6.0000   8.5000 Du        
   2203 ****         6.7500   6.0000   8.7500 Du        
   2204 ****         6.7500   6.0000  11.2500 Du        
   2205 ****         6.7500   6.0000  11.5000 Du        
   2206 ****         6.7500   6.0000  11.7500 Du        
   2207 ****         6.7500   6.0000  12.0000 Du        
   2208 ****         6.7500   6.0000  12.2500 Du        
   2209 ****         6.7500   6.0000  12.5000 Du        
   2210 ****         6.7500   6.0000  12.7500 Du        
   2211 ****         6.7500   6.0000  13.0000 Du        
   2212 ****         6.7500   6.0000  13.2500 Du        
   2213 ****         6.7500   6.2500   6.5000 Du        
   2214 ****         6.7500   6.2500   6.7500 Du        
   2215 ****         6.7500   6.2500   7.0000 Du        
   2216 ****         6.7500   6.2500   7.2500 Du        
   2217 ****         6.7500   6.2500   7.5000 Du        
   2218 ****         6.7500   6.2500   7.7500 Du        
   2219 ****         6.7500   6.2500   8.0000 Du        
   2220 ****         6.7500   6.2500   8.2500 Du        
   2221 ****         6.7500   6.2500   8.5000 Du        
   2222 ****         6.7500   6.2500   8.7500 Du        
   2223 ****         6.7500   6.2500   9.0000 Du        
   2224 ****         6.7500   6.2500   9.2500 Du        
   2225 ****         6.7500   6.2500   9.7500 Du        
   2226 ****         6.7500   6.2500  10.0000 Du        
   2227 ****         6.7500   6.2500  10.2500 Du        
   2228 ****         6.7500   6.2500  10.5000 Du        
   2229 ****         6.7500   6.2500  10.7500 Du        
   2230 ****         6.7500   6.2500  11.0000 Du        
   2231 ****         6.7500   6.2500  11.2500 Du        
   2232 ****         6.7500   6.2500  11.5000 Du        
   2233 ****         6.7500   6.2500  11.7500 Du        
   2234 ****         6.7500   6.2500  12.0000 Du        
   2235 ****         6.7500   6.2500  12.2500 Du        
   2236 ****         6.7500   6.2500  12.5000 Du        
   2237 ****         6.7500   6.2500  12.7500 Du        
   2238 ****         6.7500   6.2500  13.0000 Du        
   2239 ****         6.7500   6.2500  13.2500 Du        
   2240 ****         6.7500   6.5000   6.5000 Du        
   2241 ****         6.7500   6.5000   6.7500 Du        
   2242 ****         6.7500   6.5000   7.0000 Du        
   2243 ****         6.7500   6.5000   7.2500 Du        
   2244 ****         6.7500   6.5000   7.5000 Du        
   2245 ****         6.7500   6.5000   7.7500 Du        
   2246 ****         6.7500   6.5000   8.0000 Du        
   2247 ****         6.7500   6.5000   8.2500 Du        
   2248 ****         6.7500   6.5000   8.5000 Du        
   2249 ****         6.7500   6.5000   8.7500 Du        
   2250 ****         6.7500   6.5000   9.0000 Du        
   2251 ****         6.7500   6.5000   9.2500 Du        
   2252 ****         6.7500   6.5000   9.5000 Du        
   2253 ****         6.7500   6.5000   9.7500 Du        
   2254 ****         6.7500   6.5000  10.0000 Du        
   2255 ****         6.7500   6.5000  10.2500 Du        
   2256 ****         6.7500   6.5000  10.5000 Du        
   2257 ****         6.7500   6.5000  10.7500 Du        
   2258 ****         6.7500   6.5000  11.0000 Du        
   2259 ****         6.7500   6.5000  11.2500 Du        
   2260 ****         6.7500   6.5000  11.5000 Du        
   2261 ****         6.7500   6.5000  11.7500 Du        
   2262 ****         6.7500   6.5000  12.0000 Du        
   2263 ****         6.7500   6.5000  12.2500 Du        
   2264 ****         6.7500   6.5000  12.5000 Du        
   2265 ****         6.7500   6.5000  12.7500 Du        
   2266 ****         6.7500   6.5000  13.0000 Du        
   2267 ****         6.7500   6.7500   6.7500 Du        
   2268 ****         6.7500   6.7500   7.0000 Du        
   2269 ****         6.7500   6.7500   7.2500 Du        
   2270 ****         6.7500   6.7500   7.5000 Du        
   2271 ****         6.7500   6.7500   7.7500 Du        
   2272 ****         6.7500   6.7500   8.0000 Du        
   2273 ****         6.7500   6.7500   8.2500 Du        
   2274 ****         6.7500   6.7500   8.5000 Du        
   2275 ****         6.7500   6.7500   8.7500 Du        
   2276 ****         6.7500   6.7500   9.0000 Du        
   2277 ****         6.7500   6.7500   9.2500 Du        
   2278 ****         6.7500   6.7500   9.5000 Du        
   2279 ****         6.7500   6.7500   9.7500 Du        
   2280 ****         6.7500   6.7500  10.0000 Du        
   2281 ****         6.7500   6.7500  10.2500 Du        
   2282 ****         6.7500   6.7500  10.5000 Du        
   2283 ****         6.7500   6.7500  10.7500 Du        
   2284 ****         6.7500   6.7500  11.0000 Du        
   2285 ****         6.7500   6.7500  11.2500 Du        
   2286 ****         6.7500   6.7500  11.5000 Du        
   2287 ****         6.7500   6.7500  11.7500 Du        
   2288 ****         6.7500   6.7500  12.0000 Du        
   2289 ****         6.7500   6.7500  12.2500 Du        
   2290 ****         6.7500   6.7500  12.5000 Du        
   2291 ****         6.7500   6.7500  12.7500 Du        
   2292 ****         6.7500   6.7500  13.0000 Du        
   2293 ****         6.7500   7.0000   7.0000 Du        
   2294 ****         6.7500   7.0000   7.2500 Du        
   2295 ****         6.7500   7.0000   7.5000 Du        
   2296 ****         6.7500   7.0000   7.7500 Du        
   2297 ****         6.7500   7.0000   8.0000 Du        
   2298 ****         6.7500   7.0000   8.2500 Du        
   2299 ****         6.7500   7.0000   8.5000 Du        
   2300 ****         6.7500   7.0000   8.7500 Du        
   2301 ****         6.7500   7.0000   9.0000 Du        
   2302 ****         6.7500   7.0000   9.2500 Du        
   2303 ****         6.7500   7.0000   9.5000 Du        
   2304 ****         6.7500   7.0000   9.7500 Du        
   2305 ****         6.7500   7.0000  10.0000 Du        
   2306 ****         6.7500   7.0000  10.2500 Du        
   2307 ****         6.7500   7.0000  10.5000 Du        
   2308 ****         6.7500   7.0000  10.7500 Du        
   2309 ****         6.7500   7.0000  11.0000 Du        
   2310 ****         6.7500   7.0000  11.2500 Du        
   2311 ****         6.7500   7.0000  11.5000 Du        
   2312 ****         6.7500   7.0000  11.7500 Du        
   2313 ****         6.7500   7.0000  12.0000 Du        
   2314 ****         6.7500   7.0000  12.2500 Du        
   2315 ****         6.7500   7.0000  12.5000 Du        
   2316 ****         6.7500   7.0000  12.7500 Du        
   2317 ****         6.7500   7.2500   7.2500 Du        
   2318 ****         6.7500   7.2500   7.5000 Du        
   2319 ****         6.7500   7.2500   7.7500 Du        
   2320 ****         6.7500   7.2500   8.0000 Du        
   2321 ****         6.7500   7.2500   8.2500 Du        
   2322 ****         6.7500   7.2500   8.5000 Du        
   2323 ****         6.7500   7.2500   8.7500 Du        
   2324 ****         6.7500   7.2500   9.0000 Du        
   2325 ****         6.7500   7.2500   9.2500 Du        
   2326 ****         6.7500   7.2500   9.5000 Du        
   2327 ****         6.7500   7.2500   9.7500 Du        
   2328 ****         6.7500   7.2500  10.0000 Du        
   2329 ****         6.7500   7.2500  10.2500 Du        
   2330 ****         6.7500   7.2500  10.5000 Du        
   2331 ****         6.7500   7.2500  10.7500 Du        
   2332 ****         6.7500   7.2500  11.0000 Du        
   2333 ****         6.7500   7.2500  11.2500 Du        
   2334 ****         6.7500   7.2500  11.5000 Du        
   2335 ****         6.7500   7.2500  11.7500 Du        
   2336 ****         6.7500   7.2500  12.0000 Du        
   2337 ****         6.7500   7.5000   7.5000 Du        
   2338 ****         6.7500   7.5000   7.7500 Du        
   2339 ****         6.7500   7.5000   8.0000 Du        
   2340 ****         6.7500   7.5000   8.2500 Du        
   2341 ****         6.7500   7.5000   8.5000 Du        
   2342 ****         6.7500   7.5000   8.7500 Du        
   2343 ****         6.7500   7.5000   9.0000 Du        
   2344 ****         6.7500   7.5000   9.2500 Du        
   2345 ****         6.7500   7.5000   9.5000 Du        
   2346 ****         6.7500   7.5000   9.7500 Du        
   2347 ****         6.7500   7.5000  10.0000 Du        
   2348 ****         6.7500   7.5000  10.2500 Du        
   2349 ****         6.7500   7.5000  10.5000 Du        
   2350 ****         6.7500   7.5000  10.7500 Du        
   2351 ****         6.7500   7.5000  11.0000 Du        
   2352 ****         6.7500   7.5000  11.2500 Du        
   2353 ****         6.7500   7.7500   8.0000 Du        
   2354 ****         6.7500   7.7500   8.2500 Du        
   2355 ****         6.7500   7.7500   8.5000 Du        
   2356 ****         6.7500   7.7500   8.7500 Du        
   2357 ****         6.7500   7.7500   9.0000 Du        
   2358 ****         6.7500   7.7500   9.2500 Du        
   2359 ****         6.7500   7.7500   9.5000 Du        
   2360 ****         6.7500   7.7500   9.7500 Du        
   2361 ****         6.7500   7.7500  10.0000 Du        
   2362 ****         6.7500   7.7500  10.2500 Du        
   2363 ****         6.7500   7.7500  10.5000 Du        
   2364 ****         6.7500   7.7500  10.7500 Du        
   2365 ****         6.7500   7.7500  11.0000 Du        
   2366 ****         6.7500   8.0000   8.2500 Du        
   2367 ****         6.7500   8.0000   8.5000 Du        
   2368 ****         6.7500   8.0000   8.7500 Du        
   2369 ****         6.7500   8.0000   9.0000 Du        
   2370 ****         6.7500   8.0000   9.2500 Du        
   2371 ****         6.7500   8.0000   9.5000 Du        
   2372 ****         6.7500   8.0000   9.7500 Du        
   2373 ****         6.7500   8.0000  10.0000 Du        
   2374 ****         6.7500   8.0000  10.2500 Du        
   2375 ****         6.7500   8.0000  10.5000 Du        
   2376 ****         6.7500   8.2500   8.5000 Du        
   2377 ****         6.7500   8.2500   8.7500 Du        
   2378 ****         6.7500   8.2500   9.0000 Du        
   2379 ****         6.7500   8.2500   9.2500 Du        
   2380 ****         6.7500   8.2500   9.5000 Du        
   2381 ****         6.7500   8.2500   9.7500 Du        
   2382 ****         6.7500   8.2500  10.0000 Du        
   2383 ****         6.7500   8.2500  10.2500 Du        
   2384 ****         6.7500   8.5000   9.0000 Du        
   2385 ****         6.7500   8.5000   9.2500 Du        
   2386 ****         6.7500   8.5000   9.5000 Du        
   2387 ****         6.7500   8.5000   9.7500 Du        
   2388 ****         6.7500   8.5000  10.0000 Du        
   2389 ****         6.7500   8.7500   9.2500 Du        
   2390 ****         6.7500   8.7500   9.5000 Du        
   2391 ****         6.7500   8.7500   9.7500 Du        
   2392 ****         7.0000   5.0000   7.0000 Du        
   2393 ****         7.0000   5.0000   7.2500 Du        
   2394 ****         7.0000   5.0000  13.0000 Du        
   2395 ****         7.0000   5.0000  13.2500 Du        
   2396 ****         7.0000   5.2500   6.7500 Du        
   2397 ****         7.0000   5.2500   7.0000 Du        
   2398 ****         7.0000   5.2500   7.2500 Du        
   2399 ****         7.0000   5.2500   7.5000 Du        
   2400 ****         7.0000   5.2500  12.7500 Du        
   2401 ****         7.0000   5.2500  13.0000 Du        
   2402 ****         7.0000   5.2500  13.2500 Du        
   2403 ****         7.0000   5.5000   6.5000 Du        
   2404 ****         7.0000   5.5000   6.7500 Du        
   2405 ****         7.0000   5.5000   7.0000 Du        
   2406 ****         7.0000   5.5000   7.2500 Du        
   2407 ****         7.0000   5.5000   7.5000 Du        
   2408 ****         7.0000   5.5000   7.7500 Du        
   2409 ****         7.0000   5.5000   8.0000 Du        
   2410 ****         7.0000   5.5000  12.2500 Du        
   2411 ****         7.0000   5.5000  12.5000 Du        
   2412 ****         7.0000   5.5000  12.7500 Du        
   2413 ****         7.0000   5.5000  13.0000 Du        
   2414 ****         7.0000   5.5000  13.2500 Du        
   2415 ****         7.0000   5.7500   6.5000 Du        
   2416 ****         7.0000   5.7500   6.7500 Du        
   2417 ****         7.0000   5.7500   7.0000 Du        
   2418 ****         7.0000   5.7500   7.2500 Du        
   2419 ****         7.0000   5.7500   7.5000 Du        
   2420 ****         7.0000   5.7500   7.7500 Du        
   2421 ****         7.0000   5.7500   8.0000 Du        
   2422 ****         7.0000   5.7500   8.2500 Du        
   2423 ****         7.0000   5.7500   8.5000 Du        
   2424 ****         7.0000   5.7500  12.0000 Du        
   2425 ****         7.0000   5.7500  12.2500 Du        
   2426 ****         7.0000   5.7500  12.5000 Du        
   2427 ****         7.0000   5.7500  12.7500 Du        
   2428 ****         7.0000   5.7500  13.0000 Du        
   2429 ****         7.0000   5.7500  13.2500 Du        
   2430 ****         7.0000   6.0000   6.5000 Du        
   2431 ****         7.0000   6.0000   6.7500 Du        
   2432 ****         7.0000   6.0000   7.0000 Du        
   2433 ****         7.0000   6.0000   7.2500 Du        
   2434 ****         7.0000   6.0000   7.5000 Du        
   2435 ****         7.0000   6.0000   7.7500 Du        
   2436 ****         7.0000   6.0000   8.0000 Du        
   2437 ****         7.0000   6.0000   8.2500 Du        
   2438 ****         7.0000   6.0000   8.5000 Du        
   2439 ****         7.0000   6.0000   8.7500 Du        
   2440 ****         7.0000   6.0000   9.0000 Du        
   2441 ****         7.0000   6.0000  11.5000 Du        
   2442 ****         7.0000   6.0000  11.7500 Du        
   2443 ****         7.0000   6.0000  12.0000 Du        
   2444 ****         7.0000   6.0000  12.2500 Du        
   2445 ****         7.0000   6.0000  12.5000 Du        
   2446 ****         7.0000   6.0000  12.7500 Du        
   2447 ****         7.0000   6.0000  13.0000 Du        
   2448 ****         7.0000   6.2500   6.5000 Du        
   2449 ****         7.0000   6.2500   6.7500 Du        
   2450 ****         7.0000   6.2500   7.0000 Du        
   2451 ****         7.0000   6.2500   7.2500 Du        
   2452 ****         7.0000   6.2500   7.5000 Du        
   2453 ****         7.0000   6.2500   7.7500 Du        
   2454 ****         7.0000   6.2500   8.0000 Du        
   2455 ****         7.0000   6.2500   8.2500 Du        
   2456 ****         7.0000   6.2500   8.5000 Du        
   2457 ****         7.0000   6.2500   8.7500 Du        
   2458 ****         7.0000   6.2500   9.0000 Du        
   2459 ****         7.0000   6.2500   9.2500 Du        
   2460 ****         7.0000   6.2500   9.5000 Du        
   2461 ****         7.0000   6.2500   9.7500 Du        
   2462 ****         7.0000   6.2500  10.0000 Du        
   2463 ****         7.0000   6.2500  10.2500 Du        
   2464 ****         7.0000   6.2500  10.7500 Du        
   2465 ****         7.0000   6.2500  11.0000 Du        
   2466 ****         7.0000   6.2500  11.2500 Du        
   2467 ****         7.0000   6.2500  11.5000 Du        
   2468 ****         7.0000   6.2500  11.7500 Du        
   2469 ****         7.0000   6.2500  12.0000 Du        
   2470 ****         7.0000   6.2500  12.2500 Du        
   2471 ****         7.0000   6.2500  12.5000 Du        
   2472 ****         7.0000   6.2500  12.7500 Du        
   2473 ****         7.0000   6.2500  13.0000 Du        
   2474 ****         7.0000   6.5000   6.5000 Du        
   2475 ****         7.0000   6.5000   6.7500 Du        
   2476 ****         7.0000   6.5000   7.0000 Du        
   2477 ****         7.0000   6.5000   7.2500 Du        
   2478 ****         7.0000   6.5000   7.5000 Du        
   2479 ****         7.0000   6.5000   7.7500 Du        
   2480 ****         7.0000   6.5000   8.0000 Du        
   2481 ****         7.0000   6.5000   8.2500 Du        
   2482 ****         7.0000   6.5000   8.5000 Du        
   2483 ****         7.0000   6.5000   8.7500 Du        
   2484 ****         7.0000   6.5000   9.0000 Du        
   2485 ****         7.0000   6.5000   9.2500 Du        
   2486 ****         7.0000   6.5000   9.5000 Du        
   2487 ****         7.0000   6.5000   9.7500 Du        
   2488 ****         7.0000   6.5000  10.0000 Du        
   2489 ****         7.0000   6.5000  10.2500 Du        
   2490 ****         7.0000   6.5000  10.5000 Du        
   2491 ****         7.0000   6.5000  10.7500 Du        
   2492 ****         7.0000   6.5000  11.0000 Du        
   2493 ****         7.0000   6.5000  11.2500 Du        
   2494 ****         7.0000   6.5000  11.5000 Du        
   2495 ****         7.0000   6.5000  11.7500 Du        
   2496 ****         7.0000   6.5000  12.0000 Du        
   2497 ****         7.0000   6.5000  12.2500 Du        
   2498 ****         7.0000   6.5000  12.5000 Du        
   2499 ****         7.0000   6.5000  12.7500 Du        
   2500 ****         7.0000   6.7500   6.7500 Du        
   2501 ****         7.0000   6.7500   7.0000 Du        
   2502 ****         7.0000   6.7500   7.2500 Du        
   2503 ****         7.0000   6.7500   7.5000 Du        
   2504 ****         7.0000   6.7500   7.7500 Du        
   2505 ****         7.0000   6.7500   8.0000 Du        
   2506 ****         7.0000   6.7500   8.2500 Du        
   2507 ****         7.0000   6.7500   8.5000 Du        
   2508 ****         7.0000   6.7500   8.7500 Du        
   2509 ****         7.0000   6.7500   9.0000 Du        
   2510 ****         7.0000   6.7500   9.2500 Du        
   2511 ****         7.0000   6.7500   9.5000 Du        
   2512 ****         7.0000   6.7500   9.7500 Du        
   2513 ****         7.0000   6.7500  10.0000 Du        
   2514 ****         7.0000   6.7500  10.2500 Du        
   2515 ****         7.0000   6.7500  10.5000 Du        
   2516 ****         7.0000   6.7500  10.7500 Du        
   2517 ****         7.0000   6.7500  11.0000 Du        
   2518 ****         7.0000   6.7500  11.2500 Du        
   2519 ****         7.0000   6.7500  11.5000 Du        
   2520 ****         7.0000   6.7500  11.7500 Du        
   2521 ****         7.0000   6.7500  12.0000 Du        
   2522 ****         7.0000   6.7500  12.2500 Du        
   2523 ****         7.0000   7.0000   7.0000 Du        
   2524 ****         7.0000   7.0000   7.2500 Du        
   2525 ****         7.0000   7.0000   7.5000 Du        
   2526 ****         7.0000   7.0000   7.7500 Du        
   2527 ****         7.0000   7.0000   8.0000 Du        
   2528 ****         7.0000   7.0000   8.2500 Du        
   2529 ****         7.0000   7.0000   8.5000 Du        
   2530 ****         7.0000   7.0000   8.7500 Du        
   2531 ****         7.0000   7.0000   9.0000 Du        
   2532 ****         7.0000   7.0000   9.2500 Du        
   2533 ****         7.0000   7.0000   9.5000 Du        
   2534 ****         7.0000   7.0000   9.7500 Du        
   2535 ****         7.0000   7.0000  10.0000 Du        
   2536 ****         7.0000   7.0000  10.2500 Du        
   2537 ****         7.0000   7.0000  10.5000 Du        
   2538 ****         7.0000   7.0000  10.7500 Du        
   2539 ****         7.0000   7.0000  11.0000 Du        
   2540 ****         7.0000   7.0000  11.2500 Du        
   2541 ****         7.0000   7.0000  11.5000 Du        
   2542 ****         7.0000   7.0000  11.7500 Du        
   2543 ****         7.0000   7.2500   7.2500 Du        
   2544 ****         7.0000   7.2500   7.5000 Du        
   2545 ****         7.0000   7.2500   7.7500 Du        
   2546 ****         7.0000   7.2500   8.0000 Du        
   2547 ****         7.0000   7.2500   8.2500 Du        
   2548 ****         7.0000   7.2500   8.5000 Du        
   2549 ****         7.0000   7.2500   8.7500 Du        
   2550 ****         7.0000   7.2500   9.0000 Du        
   2551 ****         7.0000   7.2500   9.2500 Du        
   2552 ****         7.0000   7.2500   9.5000 Du        
   2553 ****         7.0000   7.2500   9.7500 Du        
   2554 ****         7.0000   7.2500  10.0000 Du        
   2555 ****         7.0000   7.2500  10.2500 Du        
   2556 ****         7.0000   7.2500  10.5000 Du        
   2557 ****         7.0000   7.2500  10.7500 Du        
   2558 ****         7.0000   7.2500  11.0000 Du        
   2559 ****         7.0000   7.2500  11.2500 Du        
   2560 ****         7.0000   7.5000   7.5000 Du        
   2561 ****         7.0000   7.5000   7.7500 Du        
   2562 ****         7.0000   7.5000   8.0000 Du        
   2563 ****         7.0000   7.5000   8.2500 Du        
   2564 ****         7.0000   7.5000   8.5000 Du        
   2565 ****         7.0000   7.5000   8.7500 Du        
   2566 ****         7.0000   7.5000   9.0000 Du        
   2567 ****         7.0000   7.5000   9.2500 Du        
   2568 ****         7.0000   7.5000   9.5000 Du        
   2569 ****         7.0000   7.5000   9.7500 Du        
   2570 ****         7.0000   7.5000  10.0000 Du        
   2571 ****         7.0000   7.5000  10.2500 Du        
   2572 ****         7.0000   7.5000  10.5000 Du        
   2573 ****         7.0000   7.5000  10.7500 Du        
   2574 ****         7.0000   7.5000  11.0000 Du        
   2575 ****         7.0000   7.7500   7.7500 Du        
   2576 ****         7.0000   7.7500   8.0000 Du        
   2577 ****         7.0000   7.7500   8.2500 Du        
   2578 ****         7.0000   7.7500   8.5000 Du        
   2579 ****         7.0000   7.7500   8.7500 Du        
   2580 ****         7.0000   7.7500   9.0000 Du        
   2581 ****         7.0000   7.7500   9.2500 Du        
   2582 ****         7.0000   7.7500   9.5000 Du        
   2583 ****         7.0000   7.7500   9.7500 Du        
   2584 ****         7.0000   7.7500  10.0000 Du        
   2585 ****         7.0000   7.7500  10.2500 Du        
   2586 ****         7.0000   7.7500  10.5000 Du        
   2587 ****         7.0000   8.0000   8.2500 Du        
   2588 ****         7.0000   8.0000   8.5000 Du        
   2589 ****         7.0000   8.0000   8.7500 Du        
   2590 ****         7.0000   8.0000   9.0000 Du        
   2591 ****         7.0000   8.0000   9.2500 Du        
   2592 ****         7.0000   8.0000   9.5000 Du        
   2593 ****         7.0000   8.0000   9.7500 Du        
   2594 ****         7.0000   8.0000  10.0000 Du        
   2595 ****         7.0000   8.0000  10.2500 Du        
   2596 ****         7.0000   8.2500   8.5000 Du        
   2597 ****         7.0000   8.2500   8.7500 Du        
   2598 ****         7.0000   8.2500   9.0000 Du        
   2599 ****         7.0000   8.2500   9.2500 Du        
   2600 ****         7.0000   8.2500   9.5000 Du        
   2601 ****         7.0000   8.2500   9.7500 Du        
   2602 ****         7.0000   8.2500  10.0000 Du        
   2603 ****         7.0000   8.5000   9.0000 Du        
   2604 ****         7.0000   8.5000   9.2500 Du        
   2605 ****         7.0000   8.5000   9.5000 Du        
   2606 ****         7.0000   8.5000   9.7500 Du        
   2607 ****         7.0000   8.7500   9.2500 Du        
   2608 ****         7.0000   8.7500   9.5000 Du        
   2609 ****         7.2500   5.0000  13.0000 Du        
   2610 ****         7.2500   5.2500   6.7500 Du        
   2611 ****         7.2500   5.2500   7.0000 Du        
   2612 ****         7.2500   5.2500   7.2500 Du        
   2613 ****         7.2500   5.2500   7.5000 Du        
   2614 ****         7.2500   5.2500  12.7500 Du        
   2615 ****         7.2500   5.2500  13.0000 Du        
   2616 ****         7.2500   5.5000   6.7500 Du        
   2617 ****         7.2500   5.5000   7.0000 Du        
   2618 ****         7.2500   5.5000   7.2500 Du        
   2619 ****         7.2500   5.5000   7.5000 Du        
   2620 ****         7.2500   5.5000   7.7500 Du        
   2621 ****         7.2500   5.5000   8.0000 Du        
   2622 ****         7.2500   5.5000  12.5000 Du        
   2623 ****         7.2500   5.5000  12.7500 Du        
   2624 ****         7.2500   5.5000  13.0000 Du        
   2625 ****         7.2500   5.7500   6.5000 Du        
   2626 ****         7.2500   5.7500   6.7500 Du        
   2627 ****         7.2500   5.7500   7.0000 Du        
   2628 ****         7.2500   5.7500   7.2500 Du        
   2629 ****         7.2500   5.7500   7.5000 Du        
   2630 ****         7.2500   5.7500   7.7500 Du        
   2631 ****         7.2500   5.7500   8.0000 Du        
   2632 ****         7.2500   5.7500   8.2500 Du        
   2633 ****         7.2500   5.7500  12.0000 Du        
   2634 ****         7.2500   5.7500  12.2500 Du        
   2635 ****         7.2500   5.7500  12.5000 Du        
   2636 ****         7.2500   5.7500  12.7500 Du        
   2637 ****         7.2500   5.7500  13.0000 Du        
   2638 ****         7.2500   6.0000   6.5000 Du        
   2639 ****         7.2500   6.0000   6.7500 Du        
   2640 ****         7.2500   6.0000   7.0000 Du        
   2641 ****         7.2500   6.0000   7.2500 Du        
   2642 ****         7.2500   6.0000   7.5000 Du        
   2643 ****         7.2500   6.0000   7.7500 Du        
   2644 ****         7.2500   6.0000   8.0000 Du        
   2645 ****         7.2500   6.0000   8.2500 Du        
   2646 ****         7.2500   6.0000   8.5000 Du        
   2647 ****         7.2500   6.0000   8.7500 Du        
   2648 ****         7.2500   6.0000   9.0000 Du        
   2649 ****         7.2500   6.0000  11.7500 Du        
   2650 ****         7.2500   6.0000  12.0000 Du        
   2651 ****         7.2500   6.0000  12.2500 Du        
   2652 ****         7.2500   6.0000  12.5000 Du        
   2653 ****         7.2500   6.0000  12.7500 Du        
   2654 ****         7.2500   6.2500   6.5000 Du        
   2655 ****         7.2500   6.2500   6.7500 Du        
   2656 ****         7.2500   6.2500   7.0000 Du        
   2657 ****         7.2500   6.2500   7.2500 Du        
   2658 ****         7.2500   6.2500   7.5000 Du        
   2659 ****         7.2500   6.2500   7.7500 Du        
   2660 ****         7.2500   6.2500   8.0000 Du        
   2661 ****         7.2500   6.2500   8.2500 Du        
   2662 ****         7.2500   6.2500   8.5000 Du        
   2663 ****         7.2500   6.2500   8.7500 Du        
   2664 ****         7.2500   6.2500   9.0000 Du        
   2665 ****         7.2500   6.2500   9.2500 Du        
   2666 ****         7.2500   6.2500  11.5000 Du        
   2667 ****         7.2500   6.2500  11.7500 Du        
   2668 ****         7.2500   6.2500  12.0000 Du        
   2669 ****         7.2500   6.2500  12.2500 Du        
   2670 ****         7.2500   6.5000   6.5000 Du        
   2671 ****         7.2500   6.5000   6.7500 Du        
   2672 ****         7.2500   6.5000   7.0000 Du        
   2673 ****         7.2500   6.5000   7.2500 Du        
   2674 ****         7.2500   6.5000   7.5000 Du        
   2675 ****         7.2500   6.5000   7.7500 Du        
   2676 ****         7.2500   6.5000   8.0000 Du        
   2677 ****         7.2500   6.5000   8.2500 Du        
   2678 ****         7.2500   6.5000   8.5000 Du        
   2679 ****         7.2500   6.5000   8.7500 Du        
   2680 ****         7.2500   6.5000   9.0000 Du        
   2681 ****         7.2500   6.5000   9.2500 Du        
   2682 ****         7.2500   6.5000   9.5000 Du        
   2683 ****         7.2500   6.5000   9.7500 Du        
   2684 ****         7.2500   6.5000  10.0000 Du        
   2685 ****         7.2500   6.5000  10.2500 Du        
   2686 ****         7.2500   6.5000  10.5000 Du        
   2687 ****         7.2500   6.5000  10.7500 Du        
   2688 ****         7.2500   6.5000  11.0000 Du        
   2689 ****         7.2500   6.5000  11.2500 Du        
   2690 ****         7.2500   6.5000  11.5000 Du        
   2691 ****         7.2500   6.7500   6.7500 Du        
   2692 ****         7.2500   6.7500   7.0000 Du        
   2693 ****         7.2500   6.7500   7.2500 Du        
   2694 ****         7.2500   6.7500   7.5000 Du        
   2695 ****         7.2500   6.7500   7.7500 Du        
   2696 ****         7.2500   6.7500   8.0000 Du        
   2697 ****         7.2500   6.7500   8.2500 Du        
   2698 ****         7.2500   6.7500   8.5000 Du        
   2699 ****         7.2500   6.7500   8.7500 Du        
   2700 ****         7.2500   6.7500   9.0000 Du        
   2701 ****         7.2500   6.7500   9.2500 Du        
   2702 ****         7.2500   6.7500   9.5000 Du        
   2703 ****         7.2500   6.7500   9.7500 Du        
   2704 ****         7.2500   6.7500  10.0000 Du        
   2705 ****         7.2500   6.7500  10.2500 Du        
   2706 ****         7.2500   6.7500  10.5000 Du        
   2707 ****         7.2500   6.7500  10.7500 Du        
   2708 ****         7.2500   6.7500  11.0000 Du        
   2709 ****         7.2500   6.7500  11.2500 Du        
   2710 ****         7.2500   7.0000   7.0000 Du        
   2711 ****         7.2500   7.0000   7.2500 Du        
   2712 ****         7.2500   7.0000   7.5000 Du        
   2713 ****         7.2500   7.0000   7.7500 Du        
   2714 ****         7.2500   7.0000   8.0000 Du        
   2715 ****         7.2500   7.0000   8.2500 Du        
   2716 ****         7.2500   7.0000   8.5000 Du        
   2717 ****         7.2500   7.0000   8.7500 Du        
   2718 ****         7.2500   7.0000   9.0000 Du        
   2719 ****         7.2500   7.0000   9.2500 Du        
   2720 ****         7.2500   7.0000   9.5000 Du        
   2721 ****         7.2500   7.0000   9.7500 Du        
   2722 ****         7.2500   7.0000  10.0000 Du        
   2723 ****         7.2500   7.0000  10.2500 Du        
   2724 ****         7.2500   7.0000  10.5000 Du        
   2725 ****         7.2500   7.0000  10.7500 Du        
   2726 ****         7.2500   7.0000  11.0000 Du        
   2727 ****         7.2500   7.2500   7.2500 Du        
   2728 ****         7.2500   7.2500   7.5000 Du        
   2729 ****         7.2500   7.2500   7.7500 Du        
   2730 ****         7.2500   7.2500   8.0000 Du        
   2731 ****         7.2500   7.2500   8.2500 Du        
   2732 ****         7.2500   7.2500   8.5000 Du        
   2733 ****         7.2500   7.2500   8.7500 Du        
   2734 ****         7.2500   7.2500   9.0000 Du        
   2735 ****         7.2500   7.2500   9.2500 Du        
   2736 ****         7.2500   7.2500   9.5000 Du        
   2737 ****         7.2500   7.2500   9.7500 Du        
   2738 ****         7.2500   7.2500  10.0000 Du        
   2739 ****         7.2500   7.2500  10.2500 Du        
   2740 ****         7.2500   7.2500  10.5000 Du        
   2741 ****         7.2500   7.2500  10.7500 Du        
   2742 ****         7.2500   7.5000   7.5000 Du        
   2743 ****         7.2500   7.5000   7.7500 Du        
   2744 ****         7.2500   7.5000   8.0000 Du        
   2745 ****         7.2500   7.5000   8.2500 Du        
   2746 ****         7.2500   7.5000   8.5000 Du        
   2747 ****         7.2500   7.5000   8.7500 Du        
   2748 ****         7.2500   7.5000   9.0000 Du        
   2749 ****         7.2500   7.5000   9.2500 Du        
   2750 ****         7.2500   7.5000   9.5000 Du        
   2751 ****         7.2500   7.5000   9.7500 Du        
   2752 ****         7.2500   7.5000  10.0000 Du        
   2753 ****         7.2500   7.5000  10.2500 Du        
   2754 ****         7.2500   7.5000  10.5000 Du        
   2755 ****         7.2500   7.7500   7.7500 Du        
   2756 ****         7.2500   7.7500   8.0000 Du        
   2757 ****         7.2500   7.7500   8.2500 Du        
   2758 ****         7.2500   7.7500   8.5000 Du        
   2759 ****         7.2500   7.7500   8.7500 Du        
   2760 ****         7.2500   7.7500   9.0000 Du        
   2761 ****         7.2500   7.7500   9.2500 Du        
   2762 ****         7.2500   7.7500   9.5000 Du        
   2763 ****         7.2500   7.7500   9.7500 Du        
   2764 ****         7.2500   7.7500  10.0000 Du        
   2765 ****         7.2500   7.7500  10.2500 Du        
   2766 ****         7.2500   8.0000   8.0000 Du        
   2767 ****         7.2500   8.0000   8.2500 Du        
   2768 ****         7.2500   8.0000   8.5000 Du        
   2769 ****         7.2500   8.0000   8.7500 Du        
   2770 ****         7.2500   8.0000   9.0000 Du        
   2771 ****         7.2500   8.0000   9.2500 Du        
   2772 ****         7.2500   8.0000   9.5000 Du        
   2773 ****         7.2500   8.0000   9.7500 Du        
   2774 ****         7.2500   8.0000  10.0000 Du        
   2775 ****         7.2500   8.0000  10.2500 Du        
   2776 ****         7.2500   8.2500   8.5000 Du        
   2777 ****         7.2500   8.2500   8.7500 Du        
   2778 ****         7.2500   8.2500   9.0000 Du        
   2779 ****         7.2500   8.2500   9.2500 Du        
   2780 ****         7.2500   8.2500   9.5000 Du        
   2781 ****         7.2500   8.2500   9.7500 Du        
   2782 ****         7.2500   8.2500  10.0000 Du        
   2783 ****         7.2500   8.5000   8.7500 Du        
   2784 ****         7.2500   8.5000   9.0000 Du        
   2785 ****         7.2500   8.5000   9.2500 Du        
   2786 ****         7.2500   8.5000   9.5000 Du        
   2787 ****         7.2500   8.7500   9.2500 Du        
   2788 ****         7.5000   5.2500   7.0000 Du        
   2789 ****         7.5000   5.2500   7.2500 Du        
   2790 ****         7.5000   5.5000   6.7500 Du        
   2791 ****         7.5000   5.5000   7.0000 Du        
   2792 ****         7.5000   5.5000   7.2500 Du        
   2793 ****         7.5000   5.5000   7.5000 Du        
   2794 ****         7.5000   5.5000   7.7500 Du        
   2795 ****         7.5000   5.5000  12.7500 Du        
   2796 ****         7.5000   5.7500   6.7500 Du        
   2797 ****         7.5000   5.7500   7.0000 Du        
   2798 ****         7.5000   5.7500   7.2500 Du        
   2799 ****         7.5000   5.7500   7.5000 Du        
   2800 ****         7.5000   5.7500   7.7500 Du        
   2801 ****         7.5000   5.7500   8.0000 Du        
   2802 ****         7.5000   5.7500   8.2500 Du        
   2803 ****         7.5000   5.7500  12.5000 Du        
   2804 ****         7.5000   6.0000   6.5000 Du        
   2805 ****         7.5000   6.0000   6.7500 Du        
   2806 ****         7.5000   6.0000   7.0000 Du        
   2807 ****         7.5000   6.0000   7.2500 Du        
   2808 ****         7.5000   6.0000   7.5000 Du        
   2809 ****         7.5000   6.0000   7.7500 Du        
   2810 ****         7.5000   6.0000   8.0000 Du        
   2811 ****         7.5000   6.0000   8.2500 Du        
   2812 ****         7.5000   6.0000   8.5000 Du        
   2813 ****         7.5000   6.0000   8.7500 Du        
   2814 ****         7.5000   6.2500   6.5000 Du        
   2815 ****         7.5000   6.2500   6.7500 Du        
   2816 ****         7.5000   6.2500   7.0000 Du        
   2817 ****         7.5000   6.2500   7.2500 Du        
   2818 ****         7.5000   6.2500   7.5000 Du        
   2819 ****         7.5000   6.2500   7.7500 Du        
   2820 ****         7.5000   6.2500   8.0000 Du        
   2821 ****         7.5000   6.2500   8.2500 Du        
   2822 ****         7.5000   6.2500   8.5000 Du        
   2823 ****         7.5000   6.2500   8.7500 Du        
   2824 ****         7.5000   6.2500   9.0000 Du        
   2825 ****         7.5000   6.2500   9.2500 Du        
   2826 ****         7.5000   6.5000   6.5000 Du        
   2827 ****         7.5000   6.5000   6.7500 Du        
   2828 ****         7.5000   6.5000   7.0000 Du        
   2829 ****         7.5000   6.5000   7.2500 Du        
   2830 ****         7.5000   6.5000   7.5000 Du        
   2831 ****         7.5000   6.5000   7.7500 Du        
   2832 ****         7.5000   6.5000   8.0000 Du        
   2833 ****         7.5000   6.5000   8.2500 Du        
   2834 ****         7.5000   6.5000   8.5000 Du        
   2835 ****         7.5000   6.5000   8.7500 Du        
   2836 ****         7.5000   6.5000   9.0000 Du        
   2837 ****         7.5000   6.5000   9.2500 Du        
   2838 ****         7.5000   6.5000   9.5000 Du        
   2839 ****         7.5000   6.5000   9.7500 Du        
   2840 ****         7.5000   6.5000  10.0000 Du        
   2841 ****         7.5000   6.5000  10.2500 Du        
   2842 ****         7.5000   6.5000  10.5000 Du        
   2843 ****         7.5000   6.7500   6.7500 Du        
   2844 ****         7.5000   6.7500   7.0000 Du        
   2845 ****         7.5000   6.7500   7.2500 Du        
   2846 ****         7.5000   6.7500   7.5000 Du        
   2847 ****         7.5000   6.7500   7.7500 Du        
   2848 ****         7.5000   6.7500   8.0000 Du        
   2849 ****         7.5000   6.7500   8.2500 Du        
   2850 ****         7.5000   6.7500   8.5000 Du        
   2851 ****         7.5000   6.7500   8.7500 Du        
   2852 ****         7.5000   6.7500   9.0000 Du        
   2853 ****         7.5000   6.7500   9.2500 Du        
   2854 ****         7.5000   6.7500   9.5000 Du        
   2855 ****         7.5000   6.7500   9.7500 Du        
   2856 ****         7.5000   6.7500  10.0000 Du        
   2857 ****         7.5000   6.7500  10.2500 Du        
   2858 ****         7.5000   6.7500  10.5000 Du        
   2859 ****         7.5000   6.7500  10.7500 Du        
   2860 ****         7.5000   7.0000   7.0000 Du        
   2861 ****         7.5000   7.0000   7.2500 Du        
   2862 ****         7.5000   7.0000   7.5000 Du        
   2863 ****         7.5000   7.0000   7.7500 Du        
   2864 ****         7.5000   7.0000   8.0000 Du        
   2865 ****         7.5000   7.0000   8.2500 Du        
   2866 ****         7.5000   7.0000   8.5000 Du        
   2867 ****         7.5000   7.0000   8.7500 Du        
   2868 ****         7.5000   7.0000   9.0000 Du        
   2869 ****         7.5000   7.0000   9.2500 Du        
   2870 ****         7.5000   7.0000   9.5000 Du        
   2871 ****         7.5000   7.0000   9.7500 Du        
   2872 ****         7.5000   7.0000  10.0000 Du        
   2873 ****         7.5000   7.0000  10.2500 Du        
   2874 ****         7.5000   7.0000  10.5000 Du        
   2875 ****         7.5000   7.0000  10.7500 Du        
   2876 ****         7.5000   7.2500   7.2500 Du        
   2877 ****         7.5000   7.2500   7.5000 Du        
   2878 ****         7.5000   7.2500   7.7500 Du        
   2879 ****         7.5000   7.2500   8.0000 Du        
   2880 ****         7.5000   7.2500   8.2500 Du        
   2881 ****         7.5000   7.2500   8.5000 Du        
   2882 ****         7.5000   7.2500   8.7500 Du        
   2883 ****         7.5000   7.2500   9.0000 Du        
   2884 ****         7.5000   7.2500   9.2500 Du        
   2885 ****         7.5000   7.2500   9.5000 Du        
   2886 ****         7.5000   7.2500   9.7500 Du        
   2887 ****         7.5000   7.2500  10.0000 Du        
   2888 ****         7.5000   7.2500  10.2500 Du        
   2889 ****         7.5000   7.2500  10.5000 Du        
   2890 ****         7.5000   7.5000   7.5000 Du        
   2891 ****         7.5000   7.5000   7.7500 Du        
   2892 ****         7.5000   7.5000   8.0000 Du        
   2893 ****         7.5000   7.5000   8.2500 Du        
   2894 ****         7.5000   7.5000   8.5000 Du        
   2895 ****         7.5000   7.5000   8.7500 Du        
   2896 ****         7.5000   7.5000   9.0000 Du        
   2897 ****         7.5000   7.5000   9.2500 Du        
   2898 ****         7.5000   7.5000   9.5000 Du        
   2899 ****         7.5000   7.5000   9.7500 Du        
   2900 ****         7.5000   7.5000  10.0000 Du        
   2901 ****         7.5000   7.5000  10.2500 Du        
   2902 ****         7.5000   7.7500   7.7500 Du        
   2903 ****         7.5000   7.7500   8.0000 Du        
   2904 ****         7.5000   7.7500   8.2500 Du        
   2905 ****         7.5000   7.7500   8.5000 Du        
   2906 ****         7.5000   7.7500   8.7500 Du        
   2907 ****         7.5000   7.7500   9.0000 Du        
   2908 ****         7.5000   7.7500   9.2500 Du        
   2909 ****         7.5000   7.7500   9.5000 Du        
   2910 ****         7.5000   7.7500   9.7500 Du        
   2911 ****         7.5000   7.7500  10.0000 Du        
   2912 ****         7.5000   7.7500  10.2500 Du        
   2913 ****         7.5000   8.0000   8.0000 Du        
   2914 ****         7.5000   8.0000   8.2500 Du        
   2915 ****         7.5000   8.0000   8.5000 Du        
   2916 ****         7.5000   8.0000   8.7500 Du        
   2917 ****         7.5000   8.0000   9.0000 Du        
   2918 ****         7.5000   8.0000   9.2500 Du        
   2919 ****         7.5000   8.0000   9.5000 Du        
   2920 ****         7.5000   8.0000   9.7500 Du        
   2921 ****         7.5000   8.0000  10.0000 Du        
   2922 ****         7.5000   8.2500   8.2500 Du        
   2923 ****         7.5000   8.2500   8.5000 Du        
   2924 ****         7.5000   8.2500   8.7500 Du        
   2925 ****         7.5000   8.2500   9.0000 Du        
   2926 ****         7.5000   8.2500   9.2500 Du        
   2927 ****         7.5000   8.2500   9.5000 Du        
   2928 ****         7.5000   8.2500   9.7500 Du        
   2929 ****         7.5000   8.5000   8.7500 Du        
   2930 ****         7.5000   8.5000   9.0000 Du        
   2931 ****         7.5000   8.5000   9.2500 Du        
   2932 ****         7.5000   8.5000   9.5000 Du        
   2933 ****         7.5000   8.7500   9.2500 Du        
   2934 ****         7.7500   5.5000   6.7500 Du        
   2935 ****         7.7500   5.5000   7.0000 Du        
   2936 ****         7.7500   5.5000   7.2500 Du        
   2937 ****         7.7500   5.5000   7.5000 Du        
   2938 ****         7.7500   5.5000   7.7500 Du        
   2939 ****         7.7500   5.7500   6.7500 Du        
   2940 ****         7.7500   5.7500   7.0000 Du        
   2941 ****         7.7500   5.7500   7.2500 Du        
   2942 ****         7.7500   5.7500   7.5000 Du        
   2943 ****         7.7500   5.7500   7.7500 Du        
   2944 ****         7.7500   5.7500   8.0000 Du        
   2945 ****         7.7500   5.7500   8.2500 Du        
   2946 ****         7.7500   6.0000   6.7500 Du        
   2947 ****         7.7500   6.0000   7.0000 Du        
   2948 ****         7.7500   6.0000   7.2500 Du        
   2949 ****         7.7500   6.0000   7.5000 Du        
   2950 ****         7.7500   6.0000   7.7500 Du        
   2951 ****         7.7500   6.0000   8.0000 Du        
   2952 ****         7.7500   6.0000   8.2500 Du        
   2953 ****         7.7500   6.0000   8.5000 Du        
   2954 ****         7.7500   6.2500   6.7500 Du        
   2955 ****         7.7500   6.2500   7.0000 Du        
   2956 ****         7.7500   6.2500   7.2500 Du        
   2957 ****         7.7500   6.2500   7.5000 Du        
   2958 ****         7.7500   6.2500   7.7500 Du        
   2959 ****         7.7500   6.2500   8.0000 Du        
   2960 ****         7.7500   6.2500   8.2500 Du        
   2961 ****         7.7500   6.2500   8.5000 Du        
   2962 ****         7.7500   6.2500   8.7500 Du        
   2963 ****         7.7500   6.2500   9.0000 Du        
   2964 ****         7.7500   6.5000   6.7500 Du        
   2965 ****         7.7500   6.5000   7.0000 Du        
   2966 ****         7.7500   6.5000   7.2500 Du        
   2967 ****         7.7500   6.5000   7.5000 Du        
   2968 ****         7.7500   6.5000   7.7500 Du        
   2969 ****         7.7500   6.5000   8.0000 Du        
   2970 ****         7.7500   6.5000   8.2500 Du        
   2971 ****         7.7500   6.5000   8.5000 Du        
   2972 ****         7.7500   6.5000   8.7500 Du        
   2973 ****         7.7500   6.5000   9.0000 Du        
   2974 ****         7.7500   6.5000   9.2500 Du        
   2975 ****         7.7500   6.5000   9.5000 Du        
   2976 ****         7.7500   6.5000   9.7500 Du        
   2977 ****         7.7500   6.7500   6.7500 Du        
   2978 ****         7.7500   6.7500   7.0000 Du        
   2979 ****         7.7500   6.7500   7.2500 Du        
   2980 ****         7.7500   6.7500   7.5000 Du        
   2981 ****         7.7500   6.7500   7.7500 Du        
   2982 ****         7.7500   6.7500   8.0000 Du        
   2983 ****         7.7500   6.7500   8.2500 Du        
   2984 ****         7.7500   6.7500   8.5000 Du        
   2985 ****         7.7500   6.7500   8.7500 Du        
   2986 ****         7.7500   6.7500   9.0000 Du        
   2987 ****         7.7500   6.7500   9.2500 Du        
   2988 ****         7.7500   6.7500   9.5000 Du        
   2989 ****         7.7500   6.7500   9.7500 Du        
   2990 ****         7.7500   6.7500  10.0000 Du        
   2991 ****         7.7500   6.7500  10.2500 Du        
   2992 ****         7.7500   7.0000   7.0000 Du        
   2993 ****         7.7500   7.0000   7.2500 Du        
   2994 ****         7.7500   7.0000   7.5000 Du        
   2995 ****         7.7500   7.0000   7.7500 Du        
   2996 ****         7.7500   7.0000   8.0000 Du        
   2997 ****         7.7500   7.0000   8.2500 Du        
   2998 ****         7.7500   7.0000   8.5000 Du        
   2999 ****         7.7500   7.0000   8.7500 Du        
   3000 ****         7.7500   7.0000   9.0000 Du        
   3001 ****         7.7500   7.0000   9.2500 Du        
   3002 ****         7.7500   7.0000   9.5000 Du        
   3003 ****         7.7500   7.0000   9.7500 Du        
   3004 ****         7.7500   7.0000  10.0000 Du        
   3005 ****         7.7500   7.0000  10.2500 Du        
   3006 ****         7.7500   7.2500   7.2500 Du        
   3007 ****         7.7500   7.2500   7.5000 Du        
   3008 ****         7.7500   7.2500   7.7500 Du        
   3009 ****         7.7500   7.2500   8.0000 Du        
   3010 ****         7.7500   7.2500   8.2500 Du        
   3011 ****         7.7500   7.2500   8.5000 Du        
   3012 ****         7.7500   7.2500   8.7500 Du        
   3013 ****         7.7500   7.2500   9.0000 Du        
   3014 ****         7.7500   7.2500   9.2500 Du        
   3015 ****         7.7500   7.2500   9.5000 Du        
   3016 ****         7.7500   7.2500   9.7500 Du        
   3017 ****         7.7500   7.2500  10.0000 Du        
   3018 ****         7.7500   7.2500  10.2500 Du        
   3019 ****         7.7500   7.5000   7.5000 Du        
   3020 ****         7.7500   7.5000   7.7500 Du        
   3021 ****         7.7500   7.5000   8.0000 Du        
   3022 ****         7.7500   7.5000   8.2500 Du        
   3023 ****         7.7500   7.5000   8.5000 Du        
   3024 ****         7.7500   7.5000   8.7500 Du        
   3025 ****         7.7500   7.5000   9.0000 Du        
   3026 ****         7.7500   7.5000   9.2500 Du        
   3027 ****         7.7500   7.5000   9.5000 Du        
   3028 ****         7.7500   7.5000   9.7500 Du        
   3029 ****         7.7500   7.5000  10.0000 Du        
   3030 ****         7.7500   7.5000  10.2500 Du        
   3031 ****         7.7500   7.7500   7.7500 Du        
   3032 ****         7.7500   7.7500   8.0000 Du        
   3033 ****         7.7500   7.7500   8.2500 Du        
   3034 ****         7.7500   7.7500   8.5000 Du        
   3035 ****         7.7500   7.7500   8.7500 Du        
   3036 ****         7.7500   7.7500   9.0000 Du        
   3037 ****         7.7500   7.7500   9.2500 Du        
   3038 ****         7.7500   7.7500   9.5000 Du        
   3039 ****         7.7500   7.7500   9.7500 Du        
   3040 ****         7.7500   7.7500  10.0000 Du        
   3041 ****         7.7500   8.0000   7.7500 Du        
   3042 ****         7.7500   8.0000   8.0000 Du        
   3043 ****         7.7500   8.0000   8.2500 Du        
   3044 ****         7.7500   8.0000   8.5000 Du        
   3045 ****         7.7500   8.0000   8.7500 Du        
   3046 ****         7.7500   8.0000   9.0000 Du        
   3047 ****         7.7500   8.0000   9.2500 Du        
   3048 ****         7.7500   8.0000   9.5000 Du        
   3049 ****         7.7500   8.0000   9.7500 Du        
   3050 ****         7.7500   8.2500   8.2500 Du        
   3051 ****         7.7500   8.2500   8.5000 Du        
   3052 ****         7.7500   8.2500   8.7500 Du        
   3053 ****         7.7500   8.2500   9.0000 Du        
   3054 ****         7.7500   8.2500   9.2500 Du        
   3055 ****         7.7500   8.2500   9.5000 Du        
   3056 ****         7.7500   8.5000   8.7500 Du        
   3057 ****         7.7500   8.5000   9.0000 Du        
   3058 ****         7.7500   8.5000   9.2500 Du        
   3059 ****         8.0000   5.5000   7.0000 Du        
   3060 ****         8.0000   5.5000   7.2500 Du        
   3061 ****         8.0000   5.7500   7.0000 Du        
   3062 ****         8.0000   5.7500   7.2500 Du        
   3063 ****         8.0000   5.7500   7.5000 Du        
   3064 ****         8.0000   5.7500   7.7500 Du        
   3065 ****         8.0000   5.7500   8.0000 Du        
   3066 ****         8.0000   6.0000   6.7500 Du        
   3067 ****         8.0000   6.0000   7.0000 Du        
   3068 ****         8.0000   6.0000   7.2500 Du        
   3069 ****         8.0000   6.0000   7.5000 Du        
   3070 ****         8.0000   6.0000   7.7500 Du        
   3071 ****         8.0000   6.0000   8.0000 Du        
   3072 ****         8.0000   6.0000   8.2500 Du        
   3073 ****         8.0000   6.2500   6.7500 Du        
   3074 ****         8.0000   6.2500   7.0000 Du        
   3075 ****         8.0000   6.2500   7.2500 Du        
   3076 ****         8.0000   6.2500   7.5000 Du        
   3077 ****         8.0000   6.2500   7.7500 Du        
   3078 ****         8.0000   6.2500   8.0000 Du        
   3079 ****         8.0000   6.2500   8.2500 Du        
   3080 ****         8.0000   6.2500   8.5000 Du        
   3081 ****         8.0000   6.2500   8.7500 Du        
   3082 ****         8.0000   6.5000   7.0000 Du        
   3083 ****         8.0000   6.5000   7.2500 Du        
   3084 ****         8.0000   6.5000   7.5000 Du        
   3085 ****         8.0000   6.5000   7.7500 Du        
   3086 ****         8.0000   6.5000   8.0000 Du        
   3087 ****         8.0000   6.5000   8.2500 Du        
   3088 ****         8.0000   6.5000   8.5000 Du        
   3089 ****         8.0000   6.5000   8.7500 Du        
   3090 ****         8.0000   6.5000   9.0000 Du        
   3091 ****         8.0000   6.5000   9.2500 Du        
   3092 ****         8.0000   6.7500   7.0000 Du        
   3093 ****         8.0000   6.7500   7.2500 Du        
   3094 ****         8.0000   6.7500   7.5000 Du        
   3095 ****         8.0000   6.7500   7.7500 Du        
   3096 ****         8.0000   6.7500   8.0000 Du        
   3097 ****         8.0000   6.7500   8.2500 Du        
   3098 ****         8.0000   6.7500   8.5000 Du        
   3099 ****         8.0000   6.7500   8.7500 Du        
   3100 ****         8.0000   6.7500   9.0000 Du        
   3101 ****         8.0000   6.7500   9.2500 Du        
   3102 ****         8.0000   6.7500   9.5000 Du        
   3103 ****         8.0000   6.7500   9.7500 Du        
   3104 ****         8.0000   7.0000   7.2500 Du        
   3105 ****         8.0000   7.0000   7.5000 Du        
   3106 ****         8.0000   7.0000   7.7500 Du        
   3107 ****         8.0000   7.0000   8.0000 Du        
   3108 ****         8.0000   7.0000   8.2500 Du        
   3109 ****         8.0000   7.0000   8.5000 Du        
   3110 ****         8.0000   7.0000   8.7500 Du        
   3111 ****         8.0000   7.0000   9.0000 Du        
   3112 ****         8.0000   7.0000   9.2500 Du        
   3113 ****         8.0000   7.0000   9.5000 Du        
   3114 ****         8.0000   7.0000   9.7500 Du        
   3115 ****         8.0000   7.0000  10.0000 Du        
   3116 ****         8.0000   7.2500   7.5000 Du        
   3117 ****         8.0000   7.2500   7.7500 Du        
   3118 ****         8.0000   7.2500   8.0000 Du        
   3119 ****         8.0000   7.2500   8.2500 Du        
   3120 ****         8.0000   7.2500   8.5000 Du        
   3121 ****         8.0000   7.2500   8.7500 Du        
   3122 ****         8.0000   7.2500   9.0000 Du        
   3123 ****         8.0000   7.2500   9.2500 Du        
   3124 ****         8.0000   7.2500   9.5000 Du        
   3125 ****         8.0000   7.2500   9.7500 Du        
   3126 ****         8.0000   7.2500  10.0000 Du        
   3127 ****         8.0000   7.5000   7.5000 Du        
   3128 ****         8.0000   7.5000   7.7500 Du        
   3129 ****         8.0000   7.5000   8.0000 Du        
   3130 ****         8.0000   7.5000   8.2500 Du        
   3131 ****         8.0000   7.5000   8.5000 Du        
   3132 ****         8.0000   7.5000   8.7500 Du        
   3133 ****         8.0000   7.5000   9.0000 Du        
   3134 ****         8.0000   7.5000   9.2500 Du        
   3135 ****         8.0000   7.5000   9.5000 Du        
   3136 ****         8.0000   7.5000   9.7500 Du        
   3137 ****         8.0000   7.5000  10.0000 Du        
   3138 ****         8.0000   7.7500   7.7500 Du        
   3139 ****         8.0000   7.7500   8.0000 Du        
   3140 ****         8.0000   7.7500   8.2500 Du        
   3141 ****         8.0000   7.7500   8.5000 Du        
   3142 ****         8.0000   7.7500   8.7500 Du        
   3143 ****         8.0000   7.7500   9.0000 Du        
   3144 ****         8.0000   7.7500   9.2500 Du        
   3145 ****         8.0000   7.7500   9.5000 Du        
   3146 ****         8.0000   7.7500   9.7500 Du        
   3147 ****         8.0000   8.0000   8.0000 Du        
   3148 ****         8.0000   8.0000   8.2500 Du        
   3149 ****         8.0000   8.0000   8.5000 Du        
   3150 ****         8.0000   8.0000   8.7500 Du        
   3151 ****         8.0000   8.0000   9.0000 Du        
   3152 ****         8.0000   8.0000   9.2500 Du        
   3153 ****         8.0000   8.0000   9.5000 Du        
   3154 ****         8.0000   8.0000   9.7500 Du        
   3155 ****         8.0000   8.2500   8.2500 Du        
   3156 ****         8.0000   8.2500   8.5000 Du        
   3157 ****         8.0000   8.2500   8.7500 Du        
   3158 ****         8.0000   8.2500   9.0000 Du        
   3159 ****         8.0000   8.2500   9.2500 Du        
   3160 ****         8.0000   8.5000   8.7500 Du        
   3161 ****         8.0000   8.5000   9.0000 Du        
   3162 ****         8.2500   6.0000   7.2500 Du        
   3163 ****         8.2500   6.0000   7.5000 Du        
   3164 ****         8.2500   6.0000   7.7500 Du        
   3165 ****         8.2500   6.0000   8.0000 Du        
   3166 ****         8.2500   6.2500   7.2500 Du        
   3167 ****         8.2500   6.2500   7.5000 Du        
   3168 ****         8.2500   6.2500   7.7500 Du        
   3169 ****         8.2500   6.2500   8.0000 Du        
   3170 ****         8.2500   6.2500   8.2500 Du        
   3171 ****         8.2500   6.2500   8.5000 Du        
   3172 ****         8.2500   6.5000   7.5000 Du        
   3173 ****         8.2500   6.5000   7.7500 Du        
   3174 ****         8.2500   6.5000   8.0000 Du        
   3175 ****         8.2500   6.5000   8.2500 Du        
   3176 ****         8.2500   6.5000   8.5000 Du        
   3177 ****         8.2500   6.5000   8.7500 Du        
   3178 ****         8.2500   6.7500   7.5000 Du        
   3179 ****         8.2500   6.7500   7.7500 Du        
   3180 ****         8.2500   6.7500   8.0000 Du        
   3181 ****         8.2500   6.7500   8.2500 Du        
   3182 ****         8.2500   6.7500   8.5000 Du        
   3183 ****         8.2500   6.7500   8.7500 Du        
   3184 ****         8.2500   6.7500   9.0000 Du        
   3185 ****         8.2500   6.7500   9.2500 Du        
   3186 ****         8.2500   7.0000   7.5000 Du        
   3187 ****         8.2500   7.0000   7.7500 Du        
   3188 ****         8.2500   7.0000   8.0000 Du        
   3189 ****         8.2500   7.0000   8.2500 Du        
   3190 ****         8.2500   7.0000   8.5000 Du        
   3191 ****         8.2500   7.0000   8.7500 Du        
   3192 ****         8.2500   7.0000   9.0000 Du        
   3193 ****         8.2500   7.0000   9.2500 Du        
   3194 ****         8.2500   7.0000   9.5000 Du        
   3195 ****         8.2500   7.2500   7.7500 Du        
   3196 ****         8.2500   7.2500   8.0000 Du        
   3197 ****         8.2500   7.2500   8.2500 Du        
   3198 ****         8.2500   7.2500   8.5000 Du        
   3199 ****         8.2500   7.2500   8.7500 Du        
   3200 ****         8.2500   7.2500   9.0000 Du        
   3201 ****         8.2500   7.2500   9.2500 Du        
   3202 ****         8.2500   7.2500   9.5000 Du        
   3203 ****         8.2500   7.2500   9.7500 Du        
   3204 ****         8.2500   7.5000   7.7500 Du        
   3205 ****         8.2500   7.5000   8.0000 Du        
   3206 ****         8.2500   7.5000   8.2500 Du        
   3207 ****         8.2500   7.5000   8.5000 Du        
   3208 ****         8.2500   7.5000   8.7500 Du        
   3209 ****         8.2500   7.5000   9.0000 Du        
   3210 ****         8.2500   7.5000   9.2500 Du        
   3211 ****         8.2500   7.5000   9.5000 Du        
   3212 ****         8.2500   7.5000   9.7500 Du        
   3213 ****         8.2500   7.7500   8.0000 Du        
   3214 ****         8.2500   7.7500   8.2500 Du        
   3215 ****         8.2500   7.7500   8.5000 Du        
   3216 ****         8.2500   7.7500   8.7500 Du        
   3217 ****         8.2500   7.7500   9.0000 Du        
   3218 ****         8.2500   7.7500   9.2500 Du        
   3219 ****         8.2500   7.7500   9.5000 Du        
   3220 ****         8.2500   7.7500   9.7500 Du        
   3221 ****         8.2500   8.0000   8.2500 Du        
   3222 ****         8.2500   8.0000   8.5000 Du        
   3223 ****         8.2500   8.0000   8.7500 Du        
   3224 ****         8.2500   8.0000   9.0000 Du        
   3225 ****         8.2500   8.0000   9.2500 Du        
   3226 ****         8.5000   6.5000   8.2500 Du        
   3227 ****         8.5000   7.0000   9.0000 Du        
   3228 ****         8.5000   7.2500   9.0000 Du        
   3229 ****         8.5000   7.2500   9.2500 Du        
   3230 ****         8.5000   7.5000   9.0000 Du        
   3231 ****         8.5000   7.5000   9.2500 Du        
   3232 ****         8.5000   7.5000   9.5000 Du        
