#       Name:                CT1002167954
#       Creating user name   hitesit
#       Creation time:       Sun Apr 16 02:22:22 2023


#       File generated by GOLD software.
#

@<TRIPOS>MOLECULE
CT1002167954|ligand_prepared|mol2|1|dock5
    29    30     1
SMALL
NO_CHARGES


@<TRIPOS>ATOM
      1 C1           4.6842   6.1610   5.9561 C.3            1 RES1               0.0000
      2 C2           5.7769   6.7957   6.8403 C.ar           1 RES1               0.0000
      3 C3           3.8152   5.3198   6.8864 C.2            1 RES1               0.0000
      4 C4           3.9462   7.3187   5.2930 C.2            1 RES1               0.0000
      5 C5           5.2378   5.2452   4.8396 C.3            1 RES1               0.0000
      6 C6           5.5199   7.9598   7.5583 C.ar           1 RES1               0.0000
      7 C7           7.0436   6.2282   6.9501 C.ar           1 RES1               0.0000
      8 N8           2.5768   5.7982   7.1984 N.am           1 RES1               0.0000
      9 O9           4.2255   4.2721   7.3704 O.2            1 RES1               0.0000
     10 N10          2.6320   7.5175   5.6266 N.am           1 RES1               0.0000
     11 O11          4.4955   8.0706   4.4973 O.2            1 RES1               0.0000
     12 C12          4.1856   4.7938   3.8389 C.3            1 RES1               0.0000
     13 C13          6.4929   8.5343   8.3593 C.ar           1 RES1               0.0000
     14 C14          8.0153   6.8044   7.7515 C.ar           1 RES1               0.0000
     15 C15          1.9226   6.8286   6.5722 C.2            1 RES1               0.0000
     16 C16          7.7410   7.9568   8.4568 C.ar           1 RES1               0.0000
     17 O17          0.7597   7.1017   6.8552 O.2            1 RES1               0.0000
     18 H18          6.0288   5.7825   4.3020 H              1 RES1               0.0000
     19 H19          5.6891   4.3585   5.3015 H              1 RES1               0.0000
     20 H20          4.5443   8.4299   7.4921 H              1 RES1               0.0000
     21 H21          7.2822   5.3222   6.4035 H              1 RES1               0.0000
     22 H22          2.0923   5.3482   7.9685 H              1 RES1               0.0000
     23 H23          2.1367   8.2466   5.1231 H              1 RES1               0.0000
     24 H24          4.6268   4.1541   3.0775 H              1 RES1               0.0000
     25 H25          3.3958   4.2342   4.3357 H              1 RES1               0.0000
     26 H26          3.7336   5.6498   3.3421 H              1 RES1               0.0000
     27 H27          6.2724   9.4420   8.9113 H              1 RES1               0.0000
     28 H28          8.9964   6.3469   7.8248 H              1 RES1               0.0000
     29 H29          8.5029   8.4068   9.0847 H              1 RES1               0.0000
@<TRIPOS>BOND
    1    1    2 1     
    2    1    3 1     
    3    1    4 1     
    4    1    5 1     
    5    2    6 ar    
    6    2    7 ar    
    7    3    8 1     
    8    3    9 2     
    9    4   10 1     
   10    4   11 2     
   11    5   12 1     
   12    5   18 1     
   13    5   19 1     
   14    6   13 ar    
   15    6   20 1     
   16    7   14 ar    
   17    7   21 1     
   18    8   15 1     
   19    8   22 1     
   20   10   15 1     
   21   10   23 1     
   22   12   24 1     
   23   12   25 1     
   24   12   26 1     
   25   13   16 ar    
   26   13   27 1     
   27   14   16 ar    
   28   14   28 1     
   29   15   17 2     
   30   16   29 1     
@<TRIPOS>SUBSTRUCTURE
      1 RES1           1
@<TRIPOS>SET
DONOR_HYDROGENS      STATIC     ATOMS    <user>   **** ""
2 22 23
ATOM$RED        STATIC     ATOMS    COLORGROUP SYSTEM
2 22 23
@<TRIPOS>COMMENT
> <Gold.Version>
2022.3.0

> <Gold.Id.Protein>
unknown|4i1b_cavity_clean|pdb

> <Gold.Protein.RotatedTorsions>
[  987  978  977  976 ] final  -33.14 input   59.99 | X-H torsion
[  952  941  940  939 ] final  -91.68 input   60.01 | X-H torsion

> <Gold.Protein.ActiveResidues>
 MET20   GLU37   GLN38   GLN39   VAL40   VAL41   LEU62   LYS63   GLU64   LYS65  

> <Gold.Protein.RotatedAtoms>
    5.2822   11.1858   11.6386 H   0  0  0  0  0  0  0  0  0  0  0  0  # atno 952  bound_to 941 
    5.2914   10.1230   12.9107 H   0  0  0  0  0  0  0  0  0  0  0  0  # atno 953  bound_to 941 
    4.2647   11.4254   12.9253 H   0  0  0  0  0  0  0  0  0  0  0  0  # atno 954  bound_to 941 
    9.6515    1.1843   10.3512 H   0  0  0  0  0  0  0  0  0  0  0  0  # atno 987  bound_to 978 
    8.8126    1.9535   11.5567 H   0  0  0  0  0  0  0  0  0  0  0  0  # atno 988  bound_to 978 
    7.9987    1.0763   10.4099 H   0  0  0  0  0  0  0  0  0  0  0  0  # atno 989  bound_to 978 

> <Gold.Score>
     Fitness  S(hb_ext) S(vdw_ext)  S(hb_int)    S(int)      intcor
     31.52       1.18      22.20       0.00      -0.19      -0.78

> <Gold.Goldscore.Fitness>
31.5239

> <Gold.Goldscore.Internal.Vdw>
-0.4705

> <Gold.Goldscore.Internal.Torsion>
-0.4929

> <Gold.Goldscore.External.Vdw>
22.2018

> <Gold.Goldscore.Internal.HBond>
0.0000

> <Gold.Goldscore.External.HBond>
1.1846

> <Gold.Goldscore.Internal.Correction>
-0.7752

> <Gold.Goldscore.Hbonds>
donor molecule, donor type, donor heavy atom, donor atom, acceptor molecule, acceptor atom, score
      L1  H    10    23       P1   543  0.59

> <Gold.Goldscore.Internal.Vdw.Weighted>
-0.4705

> <Gold.Goldscore.Internal.Torsion.Weighted>
-0.4929

> <Gold.Goldscore.External.Vdw.Weighted>
30.5275

> <Gold.Goldscore.Internal.HBond.Weighted>
0.0000

> <Gold.Goldscore.External.HBond.Weighted>
1.1846

> <Gold.Goldscore.Internal.Correction.Weighted>
-0.7752

> <Gold.Rescore>
     Score     S(PLP)   S(hbond)     S(cho)   S(metal)  DE(clash)   DE(tors)     intcor
     31.70     -33.95       0.00       0.00       0.00       0.00       1.13       ----

> <Gold.PLP.Fitness>
31.7025

> <Gold.PLP.PLP>
-33.9540

> <Gold.PLP.part.hbond>
0.0000

> <Gold.PLP.part.metal>
0.0000

> <Gold.PLP.part.buried>
-4.1022

> <Gold.PLP.part.nonpolar>
-30.7679

> <Gold.PLP.part.repulsive>
0.2507

> <Gold.PLP.ligand.clash>
0.0000

> <Gold.PLP.ligand.torsion>
1.1257

> <Gold.PLP.Chemscore.Hbond>
0.0000

> <Gold.PLP.Chemscore.CHOScore>
0.0000

> <Gold.PLP.Chemscore.Metal>
0.0000

> <Gold.Chemscore.Hbonds>
donor molecule, donor type, donor heavy atom, donor atom, acceptor molecule, acceptor atom, score
      L1  H    10    23       P1   543  0.58

> <Gold.PLP.Chemscore.Internal.Correction>
   9.000000E+99

