#       Name:                CT1002167954
#       Creating user name   hitesit
#       Creation time:       Sun Apr 16 02:22:23 2023


#       File generated by GOLD software.
#

@<TRIPOS>MOLECULE
CT1002167954|ligand_prepared|mol2|1|dock7
    29    30     1
SMALL
NO_CHARGES


@<TRIPOS>ATOM
      1 C1           6.0090   7.2656   8.3976 C.3            1 RES1               0.0000
      2 C2           5.2404   6.8574   7.1243 C.ar           1 RES1               0.0000
      3 C3           5.7106   8.7450   8.6224 C.2            1 RES1               0.0000
      4 C4           5.5056   6.3532   9.5107 C.2            1 RES1               0.0000
      5 C5           7.5409   7.0847   8.2877 C.3            1 RES1               0.0000
      6 C6           5.9241   6.5514   5.9514 C.ar           1 RES1               0.0000
      7 C7           3.8503   6.7798   7.1079 C.ar           1 RES1               0.0000
      8 N8           4.8611   9.0709   9.6384 N.am           1 RES1               0.0000
      9 O9           6.1822   9.6098   7.8945 O.2            1 RES1               0.0000
     10 N10          4.8104   6.9246  10.5441 N.am           1 RES1               0.0000
     11 O11          5.6904   5.1425   9.4937 O.2            1 RES1               0.0000
     12 C12          8.2838   7.3438   9.5889 C.3            1 RES1               0.0000
     13 C13          5.2430   6.1786   4.8045 C.ar           1 RES1               0.0000
     14 C14          3.1712   6.4069   5.9598 C.ar           1 RES1               0.0000
     15 C15          4.4388   8.2377  10.6429 C.2            1 RES1               0.0000
     16 C16          3.8664   6.1056   4.8079 C.ar           1 RES1               0.0000
     17 O17          3.7666   8.6660  11.5767 O.2            1 RES1               0.0000
     18 H18          7.7527   6.0601   7.9582 H              1 RES1               0.0000
     19 H19          7.9232   7.7694   7.5206 H              1 RES1               0.0000
     20 H20          7.0074   6.6057   5.9289 H              1 RES1               0.0000
     21 H21          3.2826   7.0133   8.0022 H              1 RES1               0.0000
     22 H22          4.5070  10.0221   9.6524 H              1 RES1               0.0000
     23 H23          4.5455   6.3145  11.3109 H              1 RES1               0.0000
     24 H24          9.3545   7.2031   9.4564 H              1 RES1               0.0000
     25 H25          8.1158   8.3623   9.9328 H              1 RES1               0.0000
     26 H26          7.9464   6.6631  10.3678 H              1 RES1               0.0000
     27 H27          5.7947   5.9438   3.9002 H              1 RES1               0.0000
     28 H28          2.0876   6.3514   5.9669 H              1 RES1               0.0000
     29 H29          3.3331   5.8131   3.9095 H              1 RES1               0.0000
@<TRIPOS>BOND
    1    1    2 1     
    2    1    3 1     
    3    1    4 1     
    4    1    5 1     
    5    2    6 ar    
    6    2    7 ar    
    7    3    8 1     
    8    3    9 2     
    9    4   10 1     
   10    4   11 2     
   11    5   12 1     
   12    5   18 1     
   13    5   19 1     
   14    6   13 ar    
   15    6   20 1     
   16    7   14 ar    
   17    7   21 1     
   18    8   15 1     
   19    8   22 1     
   20   10   15 1     
   21   10   23 1     
   22   12   24 1     
   23   12   25 1     
   24   12   26 1     
   25   13   16 ar    
   26   13   27 1     
   27   14   16 ar    
   28   14   28 1     
   29   15   17 2     
   30   16   29 1     
@<TRIPOS>SUBSTRUCTURE
      1 RES1           1
@<TRIPOS>SET
DONOR_HYDROGENS      STATIC     ATOMS    <user>   **** ""
2 22 23
ATOM$RED        STATIC     ATOMS    COLORGROUP SYSTEM
2 22 23
@<TRIPOS>COMMENT
> <Gold.Version>
2022.3.0

> <Gold.Id.Protein>
unknown|4i1b_cavity_clean|pdb

> <Gold.Protein.RotatedTorsions>
[  987  978  977  976 ] final  -68.11 input   59.99 | X-H torsion
[  952  941  940  939 ] final   90.94 input   60.01 | X-H torsion

> <Gold.Protein.ActiveResidues>
 MET20   GLU37   GLN38   GLN39   VAL40   VAL41   LEU62   LYS63   GLU64   LYS65  

> <Gold.Protein.RotatedAtoms>
    4.5831   10.6712   13.3435 H   0  0  0  0  0  0  0  0  0  0  0  0  # atno 952  bound_to 941 
    4.6286   11.6928   12.0389 H   0  0  0  0  0  0  0  0  0  0  0  0  # atno 953  bound_to 941 
    5.6273   10.3698   12.0917 H   0  0  0  0  0  0  0  0  0  0  0  0  # atno 954  bound_to 941 
    9.2320    0.9340   10.0476 H   0  0  0  0  0  0  0  0  0  0  0  0  # atno 987  bound_to 978 
    9.3612    1.8901   11.3959 H   0  0  0  0  0  0  0  0  0  0  0  0  # atno 988  bound_to 978 
    7.8697    1.3898   10.8742 H   0  0  0  0  0  0  0  0  0  0  0  0  # atno 989  bound_to 978 

> <Gold.Score>
     Fitness  S(hb_ext) S(vdw_ext)  S(hb_int)    S(int)      intcor
     30.08       1.21      21.50       0.00      -0.70      -0.76

> <Gold.Goldscore.Fitness>
30.0754

> <Gold.Goldscore.Internal.Vdw>
-1.0289

> <Gold.Goldscore.Internal.Torsion>
-0.4262

> <Gold.Goldscore.External.Vdw>
21.5016

> <Gold.Goldscore.Internal.HBond>
0.0000

> <Gold.Goldscore.External.HBond>
1.2073

> <Gold.Goldscore.Internal.Correction>
-0.7585

> <Gold.Goldscore.Hbonds>
donor molecule, donor type, donor heavy atom, donor atom, acceptor molecule, acceptor atom, score
      P1  H   605   612       L1     9  0.60

> <Gold.Goldscore.Internal.Vdw.Weighted>
-1.0289

> <Gold.Goldscore.Internal.Torsion.Weighted>
-0.4262

> <Gold.Goldscore.External.Vdw.Weighted>
29.5647

> <Gold.Goldscore.Internal.HBond.Weighted>
0.0000

> <Gold.Goldscore.External.HBond.Weighted>
1.2073

> <Gold.Goldscore.Internal.Correction.Weighted>
-0.7585

> <Gold.Rescore>
     Score     S(PLP)   S(hbond)     S(cho)   S(metal)  DE(clash)   DE(tors)     intcor
     30.88     -28.29       0.99       0.00       0.00       0.00       0.20       ----

> <Gold.PLP.Fitness>
30.8760

> <Gold.PLP.PLP>
-28.2910

> <Gold.PLP.part.hbond>
-1.0000

> <Gold.PLP.part.metal>
0.0000

> <Gold.PLP.part.buried>
-3.1421

> <Gold.PLP.part.nonpolar>
-24.9172

> <Gold.PLP.part.repulsive>
0.1985

> <Gold.PLP.ligand.clash>
0.0000

> <Gold.PLP.ligand.torsion>
0.1955

> <Gold.PLP.Chemscore.Hbond>
0.9920

> <Gold.PLP.Chemscore.CHOScore>
0.0000

> <Gold.PLP.Chemscore.Metal>
0.0000

> <Gold.Chemscore.Hbonds>
donor molecule, donor type, donor heavy atom, donor atom, acceptor molecule, acceptor atom, score
      P1  H   605   612       L1     9  0.03

> <Gold.PLP.Chemscore.Internal.Correction>
   9.000000E+99

