#       Name:                CT1002167954
#       Creating user name   hitesit
#       Creation time:       Sun Apr 16 02:22:20 2023


#       File generated by GOLD software.
#

@<TRIPOS>MOLECULE
CT1002167954|ligand_prepared|mol2|1|dock2
    29    30     1
SMALL
NO_CHARGES


@<TRIPOS>ATOM
      1 C1           5.0824   5.8486   7.4456 C.3            1 RES1               0.0000
      2 C2           6.3212   6.3867   8.1903 C.ar           1 RES1               0.0000
      3 C3           4.4335   7.0521   6.7682 C.2            1 RES1               0.0000
      4 C4           5.5945   4.7898   6.4753 C.2            1 RES1               0.0000
      5 C5           4.0372   5.1832   8.3709 C.3            1 RES1               0.0000
      6 C6           7.1219   7.3694   7.6160 C.ar           1 RES1               0.0000
      7 C7           6.6739   5.9128   9.4511 C.ar           1 RES1               0.0000
      8 N8           4.5718   7.1669   5.4163 N.am           1 RES1               0.0000
      9 O9           3.8433   7.9083   7.4154 O.2            1 RES1               0.0000
     10 N10          5.4747   5.0375   5.1329 N.am           1 RES1               0.0000
     11 O11          6.1156   3.7507   6.8612 O.2            1 RES1               0.0000
     12 C12          2.7266   4.8500   7.6757 C.3            1 RES1               0.0000
     13 C13          8.2332   7.8628   8.2793 C.ar           1 RES1               0.0000
     14 C14          7.7858   6.4074  10.1126 C.ar           1 RES1               0.0000
     15 C15          5.0146   6.1915   4.5594 C.2            1 RES1               0.0000
     16 C16          8.5657   7.3825   9.5280 C.ar           1 RES1               0.0000
     17 O17          4.9882   6.3605   3.3438 O.2            1 RES1               0.0000
     18 H18          4.4649   4.2594   8.7798 H              1 RES1               0.0000
     19 H19          3.8297   5.8571   9.2113 H              1 RES1               0.0000
     20 H20          6.8773   7.7578   6.6329 H              1 RES1               0.0000
     21 H21          6.0756   5.1450   9.9299 H              1 RES1               0.0000
     22 H22          4.3231   8.0606   5.0044 H              1 RES1               0.0000
     23 H23          5.7544   4.2925   4.5027 H              1 RES1               0.0000
     24 H24          2.0292   4.3853   8.3695 H              1 RES1               0.0000
     25 H25          2.2609   5.7496   7.2787 H              1 RES1               0.0000
     26 H26          2.8924   4.1614   6.8497 H              1 RES1               0.0000
     27 H27          8.8444   8.6292   7.8143 H              1 RES1               0.0000
     28 H28          8.0441   6.0260  11.0950 H              1 RES1               0.0000
     29 H29          9.4361   7.7694  10.0476 H              1 RES1               0.0000
@<TRIPOS>BOND
    1    1    2 1     
    2    1    3 1     
    3    1    4 1     
    4    1    5 1     
    5    2    6 ar    
    6    2    7 ar    
    7    3    8 1     
    8    3    9 2     
    9    4   10 1     
   10    4   11 2     
   11    5   12 1     
   12    5   18 1     
   13    5   19 1     
   14    6   13 ar    
   15    6   20 1     
   16    7   14 ar    
   17    7   21 1     
   18    8   15 1     
   19    8   22 1     
   20   10   15 1     
   21   10   23 1     
   22   12   24 1     
   23   12   25 1     
   24   12   26 1     
   25   13   16 ar    
   26   13   27 1     
   27   14   16 ar    
   28   14   28 1     
   29   15   17 2     
   30   16   29 1     
@<TRIPOS>SUBSTRUCTURE
      1 RES1           1
@<TRIPOS>SET
DONOR_HYDROGENS      STATIC     ATOMS    <user>   **** ""
2 22 23
ATOM$RED        STATIC     ATOMS    COLORGROUP SYSTEM
2 22 23
@<TRIPOS>COMMENT
> <Gold.Version>
2022.3.0

> <Gold.Id.Protein>
unknown|4i1b_cavity_clean|pdb

> <Gold.Protein.RotatedTorsions>
[  987  978  977  976 ] final  -22.48 input   59.99 | X-H torsion
[  952  941  940  939 ] final  -23.63 input   60.01 | X-H torsion

> <Gold.Protein.ActiveResidues>
 MET20   GLU37   GLN38   GLN39   VAL40   VAL41   LEU62   LYS63   GLU64   LYS65  

> <Gold.Protein.RotatedAtoms>
    5.6211   10.3169   12.1647 H   0  0  0  0  0  0  0  0  0  0  0  0  # atno 952  bound_to 941 
    4.5305   10.7446   13.3375 H   0  0  0  0  0  0  0  0  0  0  0  0  # atno 953  bound_to 941 
    4.6870   11.6729   11.9721 H   0  0  0  0  0  0  0  0  0  0  0  0  # atno 954  bound_to 941 
    9.7242    1.2816   10.4810 H   0  0  0  0  0  0  0  0  0  0  0  0  # atno 987  bound_to 978 
    8.6362    1.9325   11.5494 H   0  0  0  0  0  0  0  0  0  0  0  0  # atno 988  bound_to 978 
    8.1024    0.9999   10.2875 H   0  0  0  0  0  0  0  0  0  0  0  0  # atno 989  bound_to 978 

> <Gold.Score>
     Fitness  S(hb_ext) S(vdw_ext)  S(hb_int)    S(int)      intcor
     30.89       1.67      21.43       0.00      -0.23      -0.78

> <Gold.Goldscore.Fitness>
30.8927

> <Gold.Goldscore.Internal.Vdw>
-0.5091

> <Gold.Goldscore.Internal.Torsion>
-0.5003

> <Gold.Goldscore.External.Vdw>
21.4258

> <Gold.Goldscore.Internal.HBond>
0.0000

> <Gold.Goldscore.External.HBond>
1.6664

> <Gold.Goldscore.Internal.Correction>
-0.7752

> <Gold.Goldscore.Hbonds>
donor molecule, donor type, donor heavy atom, donor atom, acceptor molecule, acceptor atom, score
      P1  H   279   293       L1    17  0.78
      L1  H     8    22       P1   575  0.05

> <Gold.Goldscore.Internal.Vdw.Weighted>
-0.5091

> <Gold.Goldscore.Internal.Torsion.Weighted>
-0.5003

> <Gold.Goldscore.External.Vdw.Weighted>
29.4605

> <Gold.Goldscore.Internal.HBond.Weighted>
0.0000

> <Gold.Goldscore.External.HBond.Weighted>
1.6664

> <Gold.Goldscore.Internal.Correction.Weighted>
-0.7752

> <Gold.Rescore>
     Score     S(PLP)   S(hbond)     S(cho)   S(metal)  DE(clash)   DE(tors)     intcor
     35.84     -33.93       1.00       0.00       0.00       0.00       0.55       ----

> <Gold.PLP.Fitness>
35.8422

> <Gold.PLP.PLP>
-33.9349

> <Gold.PLP.part.hbond>
-1.0000

> <Gold.PLP.part.metal>
0.0000

> <Gold.PLP.part.buried>
-4.6619

> <Gold.PLP.part.nonpolar>
-29.0966

> <Gold.PLP.part.repulsive>
0.4964

> <Gold.PLP.ligand.clash>
0.0000

> <Gold.PLP.ligand.torsion>
0.5464

> <Gold.PLP.Chemscore.Hbond>
1.0000

> <Gold.PLP.Chemscore.CHOScore>
0.0000

> <Gold.PLP.Chemscore.Metal>
0.0000

> <Gold.Chemscore.Hbonds>
donor molecule, donor type, donor heavy atom, donor atom, acceptor molecule, acceptor atom, score
      P1  H   279   293       L1    17  0.99

> <Gold.PLP.Chemscore.Internal.Correction>
   9.000000E+99

