#       Name:                CT1002167954
#       Creating user name   hitesit
#       Creation time:       Sun Apr 16 02:22:20 2023


#       File generated by GOLD software.
#

@<TRIPOS>MOLECULE
CT1002167954|ligand_prepared|mol2|1|dock1
    29    30     1
SMALL
NO_CHARGES


@<TRIPOS>ATOM
      1 C1           4.6429   5.7244   6.0300 C.3            1 RES1               0.0000
      2 C2           5.7990   6.4062   6.7898 C.ar           1 RES1               0.0000
      3 C3           4.1112   4.6303   6.9511 C.2            1 RES1               0.0000
      4 C4           3.6311   6.8217   5.7188 C.2            1 RES1               0.0000
      5 C5           5.0707   5.0758   4.6929 C.3            1 RES1               0.0000
      6 C6           7.0597   5.8188   6.8372 C.ar           1 RES1               0.0000
      7 C7           5.6211   7.6219   7.4449 C.ar           1 RES1               0.0000
      8 N8           2.9118   4.8471   7.5630 N.am           1 RES1               0.0000
      9 O9           4.7531   3.6099   7.1682 O.2            1 RES1               0.0000
     10 N10          2.4012   6.7500   6.3188 N.am           1 RES1               0.0000
     11 O11          3.8936   7.7568   4.9724 O.2            1 RES1               0.0000
     12 C12          3.9114   4.5129   3.8859 C.3            1 RES1               0.0000
     13 C13          8.1055   6.4260   7.5123 C.ar           1 RES1               0.0000
     14 C14          6.6682   8.2273   8.1197 C.ar           1 RES1               0.0000
     15 C15          2.0064   5.8291   7.2507 C.2            1 RES1               0.0000
     16 C16          7.9107   7.6307   8.1536 C.ar           1 RES1               0.0000
     17 O17          0.9022   5.8622   7.7861 O.2            1 RES1               0.0000
     18 H18          5.5910   5.8274   4.0864 H              1 RES1               0.0000
     19 H19          5.7799   4.2660   4.9042 H              1 RES1               0.0000
     20 H20          7.2313   4.8696   6.3405 H              1 RES1               0.0000
     21 H21          4.6520   8.1090   7.4324 H              1 RES1               0.0000
     22 H22          2.6653   4.2212   8.3232 H              1 RES1               0.0000
     23 H23          1.7165   7.4477   6.0453 H              1 RES1               0.0000
     24 H24          4.2666   4.0698   2.9579 H              1 RES1               0.0000
     25 H25          3.3865   3.7442   4.4493 H              1 RES1               0.0000
     26 H26          3.1987   5.2963   3.6364 H              1 RES1               0.0000
     27 H27          9.0810   5.9517   7.5372 H              1 RES1               0.0000
     28 H28          6.5102   9.1752   8.6235 H              1 RES1               0.0000
     29 H29          8.7302   8.1064   8.6821 H              1 RES1               0.0000
@<TRIPOS>BOND
    1    1    2 1     
    2    1    3 1     
    3    1    4 1     
    4    1    5 1     
    5    2    6 ar    
    6    2    7 ar    
    7    3    8 1     
    8    3    9 2     
    9    4   10 1     
   10    4   11 2     
   11    5   12 1     
   12    5   18 1     
   13    5   19 1     
   14    6   13 ar    
   15    6   20 1     
   16    7   14 ar    
   17    7   21 1     
   18    8   15 1     
   19    8   22 1     
   20   10   15 1     
   21   10   23 1     
   22   12   24 1     
   23   12   25 1     
   24   12   26 1     
   25   13   16 ar    
   26   13   27 1     
   27   14   16 ar    
   28   14   28 1     
   29   15   17 2     
   30   16   29 1     
@<TRIPOS>SUBSTRUCTURE
      1 RES1           1
@<TRIPOS>SET
DONOR_HYDROGENS      STATIC     ATOMS    <user>   **** ""
2 22 23
ATOM$RED        STATIC     ATOMS    COLORGROUP SYSTEM
2 22 23
@<TRIPOS>COMMENT
> <Gold.Version>
2022.3.0

> <Gold.Id.Protein>
unknown|4i1b_cavity_clean|pdb

> <Gold.Protein.RotatedTorsions>
[  987  978  977  976 ] final  128.12 input   59.99 | X-H torsion
[  952  941  940  939 ] final  -99.19 input   60.01 | X-H torsion

> <Gold.Protein.ActiveResidues>
 MET20   GLU37   GLN38   GLN39   VAL40   VAL41   LEU62   LYS63   GLU64   LYS65  

> <Gold.Protein.RotatedAtoms>
    5.2019   11.2817   11.6471 H   0  0  0  0  0  0  0  0  0  0  0  0  # atno 952  bound_to 941 
    5.3653   10.1118   12.8100 H   0  0  0  0  0  0  0  0  0  0  0  0  # atno 953  bound_to 941 
    4.2712   11.3407   13.0177 H   0  0  0  0  0  0  0  0  0  0  0  0  # atno 954  bound_to 941 
    8.1851    1.7760   11.3842 H   0  0  0  0  0  0  0  0  0  0  0  0  # atno 987  bound_to 978 
    8.5218    0.8656   10.0402 H   0  0  0  0  0  0  0  0  0  0  0  0  # atno 988  bound_to 978 
    9.7549    1.5721   10.8931 H   0  0  0  0  0  0  0  0  0  0  0  0  # atno 989  bound_to 978 

> <Gold.Score>
     Fitness  S(hb_ext) S(vdw_ext)  S(hb_int)    S(int)      intcor
     31.68       1.80      22.63       0.00      -1.24      -0.78

> <Gold.Goldscore.Fitness>
31.6759

> <Gold.Goldscore.Internal.Vdw>
-1.6084

> <Gold.Goldscore.Internal.Torsion>
-0.4066

> <Gold.Goldscore.External.Vdw>
22.6300

> <Gold.Goldscore.Internal.HBond>
0.0000

> <Gold.Goldscore.External.HBond>
1.7994

> <Gold.Goldscore.Internal.Correction>
-0.7752

> <Gold.Goldscore.Hbonds>
donor molecule, donor type, donor heavy atom, donor atom, acceptor molecule, acceptor atom, score
      L1  H    10    23       P1   543  0.90

> <Gold.Goldscore.Internal.Vdw.Weighted>
-1.6084

> <Gold.Goldscore.Internal.Torsion.Weighted>
-0.4066

> <Gold.Goldscore.External.Vdw.Weighted>
31.1162

> <Gold.Goldscore.Internal.HBond.Weighted>
0.0000

> <Gold.Goldscore.External.HBond.Weighted>
1.7994

> <Gold.Goldscore.Internal.Correction.Weighted>
-0.7752

> <Gold.Rescore>
     Score     S(PLP)   S(hbond)     S(cho)   S(metal)  DE(clash)   DE(tors)     intcor
     34.55     -36.20       0.00       0.00       0.00       0.04       0.81       ----

> <Gold.PLP.Fitness>
34.5485

> <Gold.PLP.PLP>
-36.1986

> <Gold.PLP.part.hbond>
0.0000

> <Gold.PLP.part.metal>
0.0000

> <Gold.PLP.part.buried>
-3.5557

> <Gold.PLP.part.nonpolar>
-32.5192

> <Gold.PLP.part.repulsive>
0.2459

> <Gold.PLP.ligand.clash>
0.0397

> <Gold.PLP.ligand.torsion>
0.8052

> <Gold.PLP.Chemscore.Hbond>
0.0000

> <Gold.PLP.Chemscore.CHOScore>
0.0000

> <Gold.PLP.Chemscore.Metal>
0.0000

> <Gold.Chemscore.Hbonds>
donor molecule, donor type, donor heavy atom, donor atom, acceptor molecule, acceptor atom, score
      L1  H    10    23       P1   543  0.63

> <Gold.PLP.Chemscore.Internal.Correction>
   9.000000E+99

