#       Name:                CT1002167954
#       Creating user name   hitesit
#       Creation time:       Sun Apr 16 02:22:24 2023


#       File generated by GOLD software.
#

@<TRIPOS>MOLECULE
CT1002167954|ligand_prepared|mol2|1|dock10
    29    30     1
SMALL
NO_CHARGES


@<TRIPOS>ATOM
      1 C1           6.5384   5.9884  11.0413 C.3            1 RES1               0.0000
      2 C2           7.0608   6.1374   9.5978 C.ar           1 RES1               0.0000
      3 C3           5.4894   4.8809  11.0052 C.2            1 RES1               0.0000
      4 C4           7.7538   5.6662  11.9037 C.2            1 RES1               0.0000
      5 C5           5.8803   7.2701  11.6030 C.3            1 RES1               0.0000
      6 C6           7.7159   7.2981   9.1975 C.ar           1 RES1               0.0000
      7 C7           6.8978   5.1234   8.6576 C.ar           1 RES1               0.0000
      8 N8           5.8279   3.6724  11.5389 N.am           1 RES1               0.0000
      9 O9           4.3960   5.0533  10.4809 O.2            1 RES1               0.0000
     10 N10          7.8097   4.4335  12.4997 N.am           1 RES1               0.0000
     11 O11          8.6715   6.4624  12.0590 O.2            1 RES1               0.0000
     12 C12          5.2268   7.0785  12.9626 C.3            1 RES1               0.0000
     13 C13          8.1933   7.4391   7.9051 C.ar           1 RES1               0.0000
     14 C14          7.3758   5.2665   7.3655 C.ar           1 RES1               0.0000
     15 C15          6.9165   3.4107  12.3315 C.2            1 RES1               0.0000
     16 C16          8.0240   6.4234   6.9884 C.ar           1 RES1               0.0000
     17 O17          7.0635   2.3115  12.8582 O.2            1 RES1               0.0000
     18 H18          6.6449   8.0524  11.6858 H              1 RES1               0.0000
     19 H19          5.1206   7.6177  10.8920 H              1 RES1               0.0000
     20 H20          7.8562   8.1092   9.9044 H              1 RES1               0.0000
     21 H21          6.3899   4.2049   8.9316 H              1 RES1               0.0000
     22 H22          5.2150   2.8909  11.3293 H              1 RES1               0.0000
     23 H23          8.5892   4.2627  13.1269 H              1 RES1               0.0000
     24 H24          4.7806   8.0078  13.3105 H              1 RES1               0.0000
     25 H25          4.4437   6.3249  12.9114 H              1 RES1               0.0000
     26 H26          5.9589   6.7570  13.7005 H              1 RES1               0.0000
     27 H27          8.7016   8.3521   7.6129 H              1 RES1               0.0000
     28 H28          7.2398   4.4648   6.6472 H              1 RES1               0.0000
     29 H29          8.3985   6.5339   5.9761 H              1 RES1               0.0000
@<TRIPOS>BOND
    1    1    2 1     
    2    1    3 1     
    3    1    4 1     
    4    1    5 1     
    5    2    6 ar    
    6    2    7 ar    
    7    3    8 1     
    8    3    9 2     
    9    4   10 1     
   10    4   11 2     
   11    5   12 1     
   12    5   18 1     
   13    5   19 1     
   14    6   13 ar    
   15    6   20 1     
   16    7   14 ar    
   17    7   21 1     
   18    8   15 1     
   19    8   22 1     
   20   10   15 1     
   21   10   23 1     
   22   12   24 1     
   23   12   25 1     
   24   12   26 1     
   25   13   16 ar    
   26   13   27 1     
   27   14   16 ar    
   28   14   28 1     
   29   15   17 2     
   30   16   29 1     
@<TRIPOS>SUBSTRUCTURE
      1 RES1           1
@<TRIPOS>SET
DONOR_HYDROGENS      STATIC     ATOMS    <user>   **** ""
2 22 23
ATOM$RED        STATIC     ATOMS    COLORGROUP SYSTEM
2 22 23
@<TRIPOS>COMMENT
> <Gold.Version>
2022.3.0

> <Gold.Id.Protein>
unknown|4i1b_cavity_clean|pdb

> <Gold.Protein.RotatedTorsions>
[  987  978  977  976 ] final -175.16 input   59.99 | X-H torsion
[  952  941  940  939 ] final -151.77 input   60.01 | X-H torsion

> <Gold.Protein.ActiveResidues>
 MET20   GLU37   GLN38   GLN39   VAL40   VAL41   LEU62   LYS63   GLU64   LYS65  

> <Gold.Protein.RotatedAtoms>
    4.6003   11.6995   12.0735 H   0  0  0  0  0  0  0  0  0  0  0  0  # atno 952  bound_to 941 
    5.6277   10.3988   12.0565 H   0  0  0  0  0  0  0  0  0  0  0  0  # atno 953  bound_to 941 
    4.6106   10.6355   13.3448 H   0  0  0  0  0  0  0  0  0  0  0  0  # atno 954  bound_to 941 
    7.8766    1.2670   10.6969 H   0  0  0  0  0  0  0  0  0  0  0  0  # atno 987  bound_to 978 
    9.4146    1.0108   10.1333 H   0  0  0  0  0  0  0  0  0  0  0  0  # atno 988  bound_to 978 
    9.1711    1.9356   11.4870 H   0  0  0  0  0  0  0  0  0  0  0  0  # atno 989  bound_to 978 

> <Gold.Score>
     Fitness  S(hb_ext) S(vdw_ext)  S(hb_int)    S(int)      intcor
     30.95       0.25      23.19       0.00      -1.18      -0.76

> <Gold.Goldscore.Fitness>
30.9537

> <Gold.Goldscore.Internal.Vdw>
-1.5015

> <Gold.Goldscore.Internal.Torsion>
-0.4395

> <Gold.Goldscore.External.Vdw>
23.1907

> <Gold.Goldscore.Internal.HBond>
0.0000

> <Gold.Goldscore.External.HBond>
0.2489

> <Gold.Goldscore.Internal.Correction>
-0.7585

> <Gold.Goldscore.Hbonds>
donor molecule, donor type, donor heavy atom, donor atom, acceptor molecule, acceptor atom, score
      P1  H   955   969       L1    11  0.12

> <Gold.Goldscore.Internal.Vdw.Weighted>
-1.5015

> <Gold.Goldscore.Internal.Torsion.Weighted>
-0.4395

> <Gold.Goldscore.External.Vdw.Weighted>
31.8872

> <Gold.Goldscore.Internal.HBond.Weighted>
0.0000

> <Gold.Goldscore.External.HBond.Weighted>
0.2489

> <Gold.Goldscore.Internal.Correction.Weighted>
-0.7585

> <Gold.Rescore>
     Score     S(PLP)   S(hbond)     S(cho)   S(metal)  DE(clash)   DE(tors)     intcor
     35.40     -33.95       1.00       0.00       0.00       1.08       0.24       ----

> <Gold.PLP.Fitness>
35.3986

> <Gold.PLP.PLP>
-33.9540

> <Gold.PLP.part.hbond>
-0.8071

> <Gold.PLP.part.metal>
0.0000

> <Gold.PLP.part.buried>
-3.6272

> <Gold.PLP.part.nonpolar>
-29.4935

> <Gold.PLP.part.repulsive>
0.2390

> <Gold.PLP.ligand.clash>
1.0765

> <Gold.PLP.ligand.torsion>
0.2394

> <Gold.PLP.Chemscore.Hbond>
1.0000

> <Gold.PLP.Chemscore.CHOScore>
0.0000

> <Gold.PLP.Chemscore.Metal>
0.0000

> <Gold.Chemscore.Hbonds>
donor molecule, donor type, donor heavy atom, donor atom, acceptor molecule, acceptor atom, score
      L1  H    10    23       P1   958  0.58
      P1  H   955   969       L1    11  0.61

> <Gold.PLP.Chemscore.Internal.Correction>
   9.000000E+99

