#       Name:                CT1002167954
#       Creating user name   hitesit
#       Creation time:       Sun Apr 16 02:22:21 2023


#       File generated by GOLD software.
#

@<TRIPOS>MOLECULE
CT1002167954|ligand_prepared|mol2|1|dock4
    29    30     1
SMALL
NO_CHARGES


@<TRIPOS>ATOM
      1 C1           5.4139   7.4378   8.6875 C.3            1 RES1               0.0000
      2 C2           5.3844   6.6968   7.3352 C.ar           1 RES1               0.0000
      3 C3           5.8216   6.4044   9.7335 C.2            1 RES1               0.0000
      4 C4           6.4069   8.5833   8.5247 C.2            1 RES1               0.0000
      5 C5           4.0511   8.0418   9.0989 C.3            1 RES1               0.0000
      6 C6           4.5412   7.1215   6.3127 C.ar           1 RES1               0.0000
      7 C7           6.1950   5.5906   7.0947 C.ar           1 RES1               0.0000
      8 N8           7.0869   6.4799  10.2366 N.am           1 RES1               0.0000
      9 O9           5.0578   5.5127  10.0824 O.2            1 RES1               0.0000
     10 N10          7.5565   8.5473   9.2697 N.am           1 RES1               0.0000
     11 O11          6.2120   9.5082   7.7457 O.2            1 RES1               0.0000
     12 C12          4.0152   8.5564  10.5293 C.3            1 RES1               0.0000
     13 C13          4.5116   6.4660   5.0930 C.ar           1 RES1               0.0000
     14 C14          6.1636   4.9363   5.8743 C.ar           1 RES1               0.0000
     15 C15          7.9557   7.5320  10.0955 C.2            1 RES1               0.0000
     16 C16          5.3229   5.3734   4.8728 C.ar           1 RES1               0.0000
     17 O17          9.0296   7.5472  10.6902 O.2            1 RES1               0.0000
     18 H18          3.8122   8.8695   8.4198 H              1 RES1               0.0000
     19 H19          3.2749   7.2757   8.9798 H              1 RES1               0.0000
     20 H20          3.8938   7.9780   6.4685 H              1 RES1               0.0000
     21 H21          6.8635   5.2285   7.8684 H              1 RES1               0.0000
     22 H22          7.4179   5.6800  10.7668 H              1 RES1               0.0000
     23 H23          8.1714   9.3521   9.2026 H              1 RES1               0.0000
     24 H24          3.0369   8.9694  10.7662 H              1 RES1               0.0000
     25 H25          4.2236   7.7536  11.2334 H              1 RES1               0.0000
     26 H26          4.7577   9.3379  10.6768 H              1 RES1               0.0000
     27 H27          3.8472   6.8131   4.3086 H              1 RES1               0.0000
     28 H28          6.8035   4.0765   5.7056 H              1 RES1               0.0000
     29 H29          5.2998   4.8603   3.9171 H              1 RES1               0.0000
@<TRIPOS>BOND
    1    1    2 1     
    2    1    3 1     
    3    1    4 1     
    4    1    5 1     
    5    2    6 ar    
    6    2    7 ar    
    7    3    8 1     
    8    3    9 2     
    9    4   10 1     
   10    4   11 2     
   11    5   12 1     
   12    5   18 1     
   13    5   19 1     
   14    6   13 ar    
   15    6   20 1     
   16    7   14 ar    
   17    7   21 1     
   18    8   15 1     
   19    8   22 1     
   20   10   15 1     
   21   10   23 1     
   22   12   24 1     
   23   12   25 1     
   24   12   26 1     
   25   13   16 ar    
   26   13   27 1     
   27   14   16 ar    
   28   14   28 1     
   29   15   17 2     
   30   16   29 1     
@<TRIPOS>SUBSTRUCTURE
      1 RES1           1
@<TRIPOS>SET
DONOR_HYDROGENS      STATIC     ATOMS    <user>   **** ""
2 22 23
ATOM$RED        STATIC     ATOMS    COLORGROUP SYSTEM
2 22 23
@<TRIPOS>COMMENT
> <Gold.Version>
2022.3.0

> <Gold.Id.Protein>
unknown|4i1b_cavity_clean|pdb

> <Gold.Protein.RotatedTorsions>
[  987  978  977  976 ] final  124.12 input   59.99 | X-H torsion
[  952  941  940  939 ] final  130.53 input   60.01 | X-H torsion

> <Gold.Protein.ActiveResidues>
 MET20   GLU37   GLN38   GLN39   VAL40   VAL41   LEU62   LYS63   GLU64   LYS65  

> <Gold.Protein.RotatedAtoms>
    4.2991   11.2126   13.1287 H   0  0  0  0  0  0  0  0  0  0  0  0  # atno 952  bound_to 941 
    5.0856   11.4028   11.6819 H   0  0  0  0  0  0  0  0  0  0  0  0  # atno 953  bound_to 941 
    5.4543   10.1182   12.6639 H   0  0  0  0  0  0  0  0  0  0  0  0  # atno 954  bound_to 941 
    8.2364    1.8036   11.4171 H   0  0  0  0  0  0  0  0  0  0  0  0  # atno 987  bound_to 978 
    8.4593    0.8751   10.0618 H   0  0  0  0  0  0  0  0  0  0  0  0  # atno 988  bound_to 978 
    9.7662    1.5350   10.8387 H   0  0  0  0  0  0  0  0  0  0  0  0  # atno 989  bound_to 978 

> <Gold.Score>
     Fitness  S(hb_ext) S(vdw_ext)  S(hb_int)    S(int)      intcor
     31.12       3.14      20.97       0.00      -0.86      -0.78

> <Gold.Goldscore.Fitness>
31.1239

> <Gold.Goldscore.Internal.Vdw>
-1.0987

> <Gold.Goldscore.Internal.Torsion>
-0.5344

> <Gold.Goldscore.External.Vdw>
20.9722

> <Gold.Goldscore.Internal.HBond>
0.0000

> <Gold.Goldscore.External.HBond>
3.1449

> <Gold.Goldscore.Internal.Correction>
-0.7752

> <Gold.Goldscore.Hbonds>
donor molecule, donor type, donor heavy atom, donor atom, acceptor molecule, acceptor atom, score
      P1  H   955   969       L1    17  0.50
      P1  H   605   612       L1    11  0.65
      L1  H    10    23       P1   608  0.42

> <Gold.Goldscore.Internal.Vdw.Weighted>
-1.0987

> <Gold.Goldscore.Internal.Torsion.Weighted>
-0.5344

> <Gold.Goldscore.External.Vdw.Weighted>
28.8368

> <Gold.Goldscore.Internal.HBond.Weighted>
0.0000

> <Gold.Goldscore.External.HBond.Weighted>
3.1449

> <Gold.Goldscore.Internal.Correction.Weighted>
-0.7752

> <Gold.Rescore>
     Score     S(PLP)   S(hbond)     S(cho)   S(metal)  DE(clash)   DE(tors)     intcor
     35.00     -30.77       2.00       0.00       0.00       0.27       0.76       ----

> <Gold.PLP.Fitness>
34.9960

> <Gold.PLP.PLP>
-30.7746

> <Gold.PLP.part.hbond>
-3.0000

> <Gold.PLP.part.metal>
0.0000

> <Gold.PLP.part.buried>
-4.7783

> <Gold.PLP.part.nonpolar>
-23.8394

> <Gold.PLP.part.repulsive>
0.4612

> <Gold.PLP.ligand.clash>
0.2667

> <Gold.PLP.ligand.torsion>
0.7559

> <Gold.PLP.Chemscore.Hbond>
2.0000

> <Gold.PLP.Chemscore.CHOScore>
0.0000

> <Gold.PLP.Chemscore.Metal>
0.0000

> <Gold.Chemscore.Hbonds>
donor molecule, donor type, donor heavy atom, donor atom, acceptor molecule, acceptor atom, score
      L1  H    10    23       P1   608  0.28
      P1  H   955   969       L1    17  0.86

> <Gold.PLP.Chemscore.Internal.Correction>
   9.000000E+99

