#       Name:                CT1002167954
#       Creating user name   hitesit
#       Creation time:       Sun Apr 16 02:22:24 2023


#       File generated by GOLD software.
#

@<TRIPOS>MOLECULE
CT1002167954|ligand_prepared|mol2|1|dock9
    29    30     1
SMALL
NO_CHARGES


@<TRIPOS>ATOM
      1 C1           6.6168   5.9747   7.7377 C.3            1 RES1               0.0000
      2 C2           5.2005   6.4765   7.3900 C.ar           1 RES1               0.0000
      3 C3           7.5367   7.1884   7.6426 C.2            1 RES1               0.0000
      4 C4           6.5247   5.3719   9.1351 C.2            1 RES1               0.0000
      5 C5           7.1451   4.8817   6.7797 C.3            1 RES1               0.0000
      6 C6           4.8771   6.8380   6.0855 C.ar           1 RES1               0.0000
      7 C7           4.2077   6.5807   8.3606 C.ar           1 RES1               0.0000
      8 N8           7.9890   7.7313   8.8090 N.am           1 RES1               0.0000
      9 O9           7.8289   7.6856   6.5620 O.2            1 RES1               0.0000
     10 N10          7.2115   5.9894  10.1473 N.am           1 RES1               0.0000
     11 O11          5.8502   4.3773   9.3719 O.2            1 RES1               0.0000
     12 C12          6.0963   3.8545   6.3834 C.3            1 RES1               0.0000
     13 C13          3.6065   7.2846   5.7624 C.ar           1 RES1               0.0000
     14 C14          2.9377   7.0278   8.0354 C.ar           1 RES1               0.0000
     15 C15          7.9147   7.1595  10.0537 C.2            1 RES1               0.0000
     16 C16          2.6359   7.3793   6.7369 C.ar           1 RES1               0.0000
     17 O17          8.4604   7.6820  11.0213 O.2            1 RES1               0.0000
     18 H18          7.5285   5.3632   5.8717 H              1 RES1               0.0000
     19 H19          7.9822   4.3630   7.2631 H              1 RES1               0.0000
     20 H20          5.6286   6.7723   5.3058 H              1 RES1               0.0000
     21 H21          4.4227   6.3106   9.3889 H              1 RES1               0.0000
     22 H22          8.4226   8.6473   8.7505 H              1 RES1               0.0000
     23 H23          7.1974   5.5347  11.0547 H              1 RES1               0.0000
     24 H24          6.5192   3.1110   5.7111 H              1 RES1               0.0000
     25 H25          5.7112   3.3383   7.2604 H              1 RES1               0.0000
     26 H26          5.2602   4.3326   5.8772 H              1 RES1               0.0000
     27 H27          3.3745   7.5613   4.7393 H              1 RES1               0.0000
     28 H28          2.1771   7.1014   8.8056 H              1 RES1               0.0000
     29 H29          1.6405   7.7288   6.4834 H              1 RES1               0.0000
@<TRIPOS>BOND
    1    1    2 1     
    2    1    3 1     
    3    1    4 1     
    4    1    5 1     
    5    2    6 ar    
    6    2    7 ar    
    7    3    8 1     
    8    3    9 2     
    9    4   10 1     
   10    4   11 2     
   11    5   12 1     
   12    5   18 1     
   13    5   19 1     
   14    6   13 ar    
   15    6   20 1     
   16    7   14 ar    
   17    7   21 1     
   18    8   15 1     
   19    8   22 1     
   20   10   15 1     
   21   10   23 1     
   22   12   24 1     
   23   12   25 1     
   24   12   26 1     
   25   13   16 ar    
   26   13   27 1     
   27   14   16 ar    
   28   14   28 1     
   29   15   17 2     
   30   16   29 1     
@<TRIPOS>SUBSTRUCTURE
      1 RES1           1
@<TRIPOS>SET
DONOR_HYDROGENS      STATIC     ATOMS    <user>   **** ""
2 22 23
ATOM$RED        STATIC     ATOMS    COLORGROUP SYSTEM
2 22 23
@<TRIPOS>COMMENT
> <Gold.Version>
2022.3.0

> <Gold.Id.Protein>
unknown|4i1b_cavity_clean|pdb

> <Gold.Protein.RotatedTorsions>
[  987  978  977  976 ] final -176.81 input   59.99 | X-H torsion
[  952  941  940  939 ] final -173.67 input   60.01 | X-H torsion

> <Gold.Protein.ActiveResidues>
 MET20   GLU37   GLN38   GLN39   VAL40   VAL41   LEU62   LYS63   GLU64   LYS65  

> <Gold.Protein.RotatedAtoms>
    4.4064   11.6936   12.3809 H   0  0  0  0  0  0  0  0  0  0  0  0  # atno 952  bound_to 941 
    5.5763   10.6650   11.8142 H   0  0  0  0  0  0  0  0  0  0  0  0  # atno 953  bound_to 941 
    4.8560   10.3751   13.2797 H   0  0  0  0  0  0  0  0  0  0  0  0  # atno 954  bound_to 941 
    7.8730    1.2824   10.7193 H   0  0  0  0  0  0  0  0  0  0  0  0  # atno 987  bound_to 978 
    9.3929    0.9999   10.1205 H   0  0  0  0  0  0  0  0  0  0  0  0  # atno 988  bound_to 978 
    9.1963    1.9311   11.4774 H   0  0  0  0  0  0  0  0  0  0  0  0  # atno 989  bound_to 978 

> <Gold.Score>
     Fitness  S(hb_ext) S(vdw_ext)  S(hb_int)    S(int)      intcor
     28.36       2.94      20.89       0.00      -3.31      -0.76

> <Gold.Goldscore.Fitness>
28.3562

> <Gold.Goldscore.Internal.Vdw>
-3.1533

> <Gold.Goldscore.Internal.Torsion>
-0.9156

> <Gold.Goldscore.External.Vdw>
20.8944

> <Gold.Goldscore.Internal.HBond>
0.0000

> <Gold.Goldscore.External.HBond>
2.9368

> <Gold.Goldscore.Internal.Correction>
-0.7585

> <Gold.Goldscore.Hbonds>
donor molecule, donor type, donor heavy atom, donor atom, acceptor molecule, acceptor atom, score
      P1  H   955   969       L1    17  0.92
      L1  H     8    22       P1   608  0.55

> <Gold.Goldscore.Internal.Vdw.Weighted>
-3.1533

> <Gold.Goldscore.Internal.Torsion.Weighted>
-0.9156

> <Gold.Goldscore.External.Vdw.Weighted>
28.7298

> <Gold.Goldscore.Internal.HBond.Weighted>
0.0000

> <Gold.Goldscore.External.HBond.Weighted>
2.9368

> <Gold.Goldscore.Internal.Correction.Weighted>
-0.7585

> <Gold.Rescore>
     Score     S(PLP)   S(hbond)     S(cho)   S(metal)  DE(clash)   DE(tors)     intcor
     28.28     -27.44       1.00       0.00       0.00       1.10       0.53       ----

> <Gold.PLP.Fitness>
28.2780

> <Gold.PLP.PLP>
-27.4371

> <Gold.PLP.part.hbond>
-1.0000

> <Gold.PLP.part.metal>
0.0000

> <Gold.PLP.part.buried>
-5.9873

> <Gold.PLP.part.nonpolar>
-20.8089

> <Gold.PLP.part.repulsive>
0.2194

> <Gold.PLP.ligand.clash>
1.0979

> <Gold.PLP.ligand.torsion>
0.5306

> <Gold.PLP.Chemscore.Hbond>
1.0000

> <Gold.PLP.Chemscore.CHOScore>
0.0000

> <Gold.PLP.Chemscore.Metal>
0.0000

> <Gold.Chemscore.Hbonds>
donor molecule, donor type, donor heavy atom, donor atom, acceptor molecule, acceptor atom, score
      P1  H   955   969       L1    17  0.78

> <Gold.PLP.Chemscore.Internal.Correction>
   9.000000E+99

