#       Name:                00000001
#       Creating user name   hitesit
#       Creation time:       Thu Mar  2 16:48:38 2023


#       File generated by GOLD software.
#

@<TRIPOS>MOLECULE
00000001|prep_AF_1_R|mol2|1|dock1
    36    37     1
SMALL
USER_CHARGES


@<TRIPOS>ATOM
      1 C1         -36.8291 -41.8518   1.2303 C.2            1 noname             0.1635
      2 N1         -38.0069 -42.6102   1.3377 N.am           1 noname            -0.2225
      3 C2         -39.2691 -42.1100   1.1406 C.2            1 noname             0.2098
      4 C3         -39.4508 -40.6668   0.6943 C.3            1 noname             0.1150
      5 C4         -38.1667 -39.9459   0.3871 C.2            1 noname             0.0067
      6 C5         -36.9848 -40.5160   0.6527 C.2            1 noname             0.0922
      7 O1         -38.2742 -38.7448  -0.1411 O.3            1 noname            -0.2878
      8 O2         -35.7614 -42.3495   1.6136 O.2            1 noname            -0.2627
      9 O3         -40.2187 -42.8612   1.3253 O.2            1 noname            -0.2565
     10 C6         -40.1245 -39.8890   1.8542 C.3            1 noname            -0.0318
     11 C7         -40.3230 -40.7291  -0.5782 C.ar           1 noname            -0.0457
     12 C8         -39.8286 -41.2909  -1.7523 C.ar           1 noname            -0.0513
     13 C9         -40.6098 -41.3648  -2.8936 C.ar           1 noname            -0.0590
     14 C10        -41.8974 -40.8726  -2.8870 C.ar           1 noname            -0.0613
     15 C11        -42.4022 -40.3035  -1.7374 C.ar           1 noname            -0.0590
     16 C12        -41.6229 -40.2300  -0.5946 C.ar           1 noname            -0.0513
     17 C13        -41.3677 -40.5221   2.4634 C.3            1 noname            -0.0636
     18 H1         -37.9182 -43.5926   1.5768 H              1 noname            -0.2225
     19 H2         -36.0826 -39.9504   0.4247 H              1 noname             0.0922
     20 H3         -37.4898 -38.5066  -0.6929 H              1 noname            -0.2878
     21 H4         -40.4005 -38.8943   1.4835 H              1 noname            -0.0318
     22 H5         -39.3845 -39.7463   2.6513 H              1 noname            -0.0318
     23 H6         -38.8154 -41.6777  -1.7821 H              1 noname            -0.0513
     24 H7         -40.2066 -41.8113  -3.7965 H              1 noname            -0.0590
     25 H8         -42.5094 -40.9323  -3.7808 H              1 noname            -0.0613
     26 H9         -43.4139 -39.9117  -1.7276 H              1 noname            -0.0590
     27 H10        -42.0391 -39.7742   0.2974 H              1 noname            -0.0513
     28 H11        -41.1332 -41.4740   2.9337 H              1 noname            -0.0636
     29 H12        -41.7907 -39.8714   3.2258 H              1 noname            -0.0636
     30 H13        -42.1314 -40.6948   1.7086 H              1 noname            -0.0636
     31 ****       -38.3636 -38.0757   0.5968 LP             1 noname             0.0000
     32 ****       -39.0920 -38.7182  -0.7160 LP             1 noname             0.0000
     33 ****       -35.7484 -43.2753   1.9913 LP             1 noname             0.0000
     34 ****       -34.9125 -41.8253   1.5453 LP             1 noname             0.0000
     35 ****       -40.0604 -43.8064   1.6107 LP             1 noname             0.0000
     36 ****       -41.1524 -42.5292   1.1908 LP             1 noname             0.0000
@<TRIPOS>BOND
    1    1    2 am    
    2    1    6 1     
    3    1    8 2     
    4    2    3 am    
    5    4    3 1     
    6    3    9 2     
    7    4    5 1     
    8    4   10 1     
    9    4   11 1     
   10    5    6 2     
   11    5    7 1     
   12   10   17 1     
   13   11   12 ar    
   14   11   16 ar    
   15   12   13 ar    
   16   13   14 ar    
   17   14   15 ar    
   18   15   16 ar    
   19    2   18 1     
   20    6   19 1     
   21    7   20 1     
   22   10   21 1     
   23   10   22 1     
   24   12   23 1     
   25   13   24 1     
   26   14   25 1     
   27   15   26 1     
   28   16   27 1     
   29   17   28 1     
   30   17   29 1     
   31   17   30 1     
   32    7   31 1     
   33    7   32 1     
   34    8   33 1     
   35    8   34 1     
   36    9   35 1     
   37    9   36 1     
@<TRIPOS>SUBSTRUCTURE
      1 noname         1
@<TRIPOS>SET
LONE_PAIRS      STATIC     ATOMS    <user>   **** ""
6 31 32 33 34 35 36
DONOR_HYDROGENS      STATIC     ATOMS    <user>   **** ""
2 18 20
ATOM$BLUE        STATIC     ATOMS    COLORGROUP SYSTEM
6 31 32 33 34 35 36
ATOM$RED        STATIC     ATOMS    COLORGROUP SYSTEM
2 18 20
@<TRIPOS>COMMENT
> <Gold.Version>
2022.3.0

> <Gold.Id.Protein>
unknown|6c5f_clean|pdb

> <Gold.Protein.ActiveResidues>
 LEU49   SER50   GLN58   ILE95   LEU96   ILE97   ARG98   PRO1    PHE2    LEU3   
 LEU30   LYS32   PRO33   ASP35   ARG36   VAL37   ASN38   ILE61   SER62   SER63  
 ILE64   GLY65   VAL66   VAL67   PHE100  LEU102  GLU103  SER104  TRP105  GLN106 
 ILE107  GLY108  LYS109  ILE110  THR112  VAL113  PRO1    GLN58   PHE2    LEU96  
 LEU30   LYS32   PRO33   PHE2    PRO1    PRO101  LEU102  GLU103  VAL37   ASN38  
 LEU49   SER50   ILE61   SER62   SER63   ILE64   ILE64   GLY65   VAL66   VAL67  
 PRO33   ARG36   VAL37   PRO1    SER104  TRP105  GLN106  ILE107  GLY108  LYS109 
 ILE110  PRO1    PHE2    LEU3    ILE110  VAL113  LEU96   ILE97   ARG98   PHE2   
 PRO1   

> <Gold.Score>
     Score     S(PLP)   S(hbond)     S(cho)   S(metal)  DE(clash)   DE(tors)     intcor
     41.96     -39.25       1.00       0.00       0.00       0.00       0.16       0.02

> <Gold.PLP.Fitness>
41.9605

> <Gold.PLP.PLP>
-39.2525

> <Gold.PLP.part.hbond>
-1.0000

> <Gold.PLP.part.metal>
0.0000

> <Gold.PLP.part.buried>
-4.0107

> <Gold.PLP.part.nonpolar>
-34.5280

> <Gold.PLP.part.repulsive>
0.1589

> <Gold.PLP.ligand.clash>
0.0000

> <Gold.PLP.ligand.torsion>
0.1553

> <Gold.PLP.Chemscore.Hbond>
1.0000

> <Gold.PLP.Chemscore.CHOScore>
0.0000

> <Gold.PLP.Chemscore.Metal>
0.0000

> <Gold.Chemscore.Hbonds>
donor molecule, donor type, donor heavy atom, donor atom, acceptor molecule, acceptor atom, score
      L1  H     7    20       P1  1669  1.00

> <Gold.PLP.Chemscore.Internal.Correction>
0.0185

> <Gold.PLP.Reference.RMSD>
4.8153

> <Gold.Rescore>
     Score         DG    S(hbond)    S(metal)    S(lipo)     H(rot)  DE(clash)    DE(int)     intcor
     19.13     -20.71       0.95        0.00     139.54       1.66       0.15       1.44       ----

> <Gold.Chemscore.Fitness>
19.1269

> <Gold.Chemscore.DG>
-20.7135

> <Gold.Chemscore.ZeroCoef>
-5.4800

> <Gold.Chemscore.Hbond>
0.9462

> <Gold.Chemscore.Metal>
0.0000

> <Gold.Chemscore.Lipo>
139.5351

> <Gold.Chemscore.Internal_Hbond>
0.0000

> <Gold.Chemscore.DEClash>
0.1453

> <Gold.Chemscore.DEInternal>
1.4412

> <Gold.Chemscore.Rot>
1.6611

> <Gold.Chemscore.Internal.Correction>
   9.000000E+99

> <Gold.Chemscore.Reference.RMSD>
0.0000

> <Gold.Chemscore.Hbonds>
donor molecule, donor type, donor heavy atom, donor atom, acceptor molecule, acceptor atom, score
      L1  H     7    20       P1  1669  0.23

> <Gold.Chemscore.Hbond.Weighted>
-3.1602

> <Gold.Chemscore.Metal.Weighted>
-0.0000

> <Gold.Chemscore.Lipo.Weighted>
-16.3256

> <Gold.Chemscore.Internal_Hbond.Weighted>
0.0000

> <Gold.Chemscore.DEClash.Weighted>
0.1453

> <Gold.Chemscore.DEInternal.Weighted>
1.4412

> <Gold.Chemscore.Rot.Weighted>
4.2523

> <Gold.Chemscore.Internal.Correction.Weighted>
   9.000000E+99

> <Gold.Reference.RMSD>
4.8153

