#       Name:                00000001
#       Creating user name   hitesit
#       Creation time:       Thu Mar  2 16:48:38 2023


#       File generated by GOLD software.
#

@<TRIPOS>MOLECULE
00000001
    36    37     1
SMALL
USER_CHARGES


@<TRIPOS>ATOM
      1 C1          -2.7835  -1.2557  -0.8380 C.2            1 noname             0.1635
      2 N1          -2.6458  -0.5511   0.3697 N.am           1 noname            -0.2225
      3 C2          -1.4442  -0.1592   0.9033 C.2            1 noname             0.2098
      4 C3          -0.1560  -0.4083   0.1330 C.3            1 noname             0.1150
      5 C4          -0.3572  -0.9744  -1.2461 C.2            1 noname             0.0067
      6 C5          -1.5730  -1.3589  -1.6542 C.2            1 noname             0.0922
      7 O1           0.7124  -1.0721  -2.0075 O.3            1 noname            -0.2878
      8 O2          -3.8911  -1.7263  -1.1319 O.2            1 noname            -0.2627
      9 O3          -1.4556   0.3954   1.9953 O.2            1 noname            -0.2565
     10 C6           0.6768  -1.4534   0.9195 C.3            1 noname            -0.0318
     11 C7           0.5413   0.9653   0.0287 C.ar           1 noname            -0.0457
     12 C8           1.7261   1.2152   0.7159 C.ar           1 noname            -0.0513
     13 C9           2.3662   2.4393   0.6154 C.ar           1 noname            -0.0590
     14 C10          1.8319   3.4403  -0.1674 C.ar           1 noname            -0.0613
     15 C11          0.6543   3.2162  -0.8480 C.ar           1 noname            -0.0590
     16 C12          0.0135   1.9921  -0.7498 C.ar           1 noname            -0.0513
     17 C13          0.0609  -2.8375   1.0696 C.3            1 noname            -0.0636
     18 H1          -3.4907  -0.3167   0.8809 H              1 noname            -0.2225
     19 H2          -1.6672  -1.7745  -2.6564 H              1 noname             0.0922
     20 H3           1.5443  -0.8745  -1.5121 H              1 noname            -0.2878
     21 H4           0.8614  -1.0563   1.9251 H              1 noname            -0.0318
     22 H5           1.6512  -1.5612   0.4273 H              1 noname            -0.0318
     23 H6           2.1604   0.4442   1.3436 H              1 noname            -0.0513
     24 H7           3.2915   2.6113   1.1553 H              1 noname            -0.0590
     25 H8           2.3347   4.3984  -0.2470 H              1 noname            -0.0613
     26 H9           0.2277   4.0017  -1.4630 H              1 noname            -0.0590
     27 H10         -0.9143   1.8393  -1.2906 H              1 noname            -0.0513
     28 H11         -0.0574  -3.3215   0.1031 H              1 noname            -0.0636
     29 H12          0.6977  -3.4723   1.6820 H              1 noname            -0.0636
     30 H13         -0.9158  -2.7841   1.5449 H              1 noname            -0.0636
     31 ****         0.6279  -0.4252  -2.7654 LP             1 noname             0.0000
     32 ****         0.7664  -2.0032  -2.3685 LP             1 noname             0.0000
     33 ****        -4.6673  -1.6016  -0.5139 LP             1 noname             0.0000
     34 ****        -4.0090  -2.2310  -1.9872 LP             1 noname             0.0000
     35 ****        -2.3228   0.5495   2.4688 LP             1 noname             0.0000
     36 ****        -0.5977   0.6941   2.4134 LP             1 noname             0.0000
@<TRIPOS>BOND
    1    1    2 am    
    2    1    6 1     
    3    1    8 2     
    4    2    3 am    
    5    4    3 1     
    6    3    9 2     
    7    4    5 1     
    8    4   10 1     
    9    4   11 1     
   10    5    6 2     
   11    5    7 1     
   12   10   17 1     
   13   11   12 ar    
   14   11   16 ar    
   15   12   13 ar    
   16   13   14 ar    
   17   14   15 ar    
   18   15   16 ar    
   19    2   18 1     
   20    6   19 1     
   21    7   20 1     
   22   10   21 1     
   23   10   22 1     
   24   12   23 1     
   25   13   24 1     
   26   14   25 1     
   27   15   26 1     
   28   16   27 1     
   29   17   28 1     
   30   17   29 1     
   31   17   30 1     
   32    7   31 1     
   33    7   32 1     
   34    8   33 1     
   35    8   34 1     
   36    9   35 1     
   37    9   36 1     
@<TRIPOS>SUBSTRUCTURE
      1 noname         1
@<TRIPOS>SET
LONE_PAIRS      STATIC     ATOMS    <user>   **** ""
6 31 32 33 34 35 36
DONOR_HYDROGENS      STATIC     ATOMS    <user>   **** ""
2 18 20
ATOM$BLUE        STATIC     ATOMS    COLORGROUP SYSTEM
6 31 32 33 34 35 36
ATOM$RED        STATIC     ATOMS    COLORGROUP SYSTEM
2 18 20
