#       Name:                00000001
#       Creating user name   hitesit
#       Creation time:       Mon Feb 27 15:35:07 2023


#       File generated by GOLD software.
#

@<TRIPOS>MOLECULE
00000001|prep_AF_1_R|mol2|1|dock1
    36    37     1
SMALL
USER_CHARGES


@<TRIPOS>ATOM
      1 C1         -37.1964 -39.3329   1.6085 C.2            1 noname             0.1635
      2 N1         -38.1321 -38.3274   1.4490 N.am           1 noname            -0.2225
      3 C2         -39.3691 -38.4260   0.8676 C.2            1 noname             0.2098
      4 C3         -39.7892 -39.7709   0.2745 C.3            1 noname             0.1150
      5 C4         -38.7442 -40.8602   0.5179 C.2            1 noname             0.0067
      6 C5         -37.5669 -40.6215   1.1289 C.2            1 noname             0.0922
      7 O1         -39.0869 -42.0518   0.0755 O.3            1 noname            -0.2878
      8 O2         -36.1171 -39.0630   2.1534 O.2            1 noname            -0.2627
      9 O3         -40.1026 -37.4454   0.8477 O.2            1 noname            -0.2565
     10 C6         -39.9212 -39.6248  -1.2636 C.3            1 noname            -0.0318
     11 C7         -41.1148 -40.1671   0.9598 C.ar           1 noname            -0.0457
     12 C8         -41.2178 -40.1917   2.3480 C.ar           1 noname            -0.0513
     13 C9         -42.4076 -40.5309   2.9707 C.ar           1 noname            -0.0590
     14 C10        -43.5158 -40.8589   2.2193 C.ar           1 noname            -0.0613
     15 C11        -43.4316 -40.8501   0.8434 C.ar           1 noname            -0.0590
     16 C12        -42.2429 -40.5099   0.2190 C.ar           1 noname            -0.0513
     17 C13        -38.7190 -39.0445  -1.9953 C.3            1 noname            -0.0636
     18 H1         -37.8763 -37.4100   1.8140 H              1 noname            -0.2225
     19 H2         -36.8729 -41.4450   1.2608 H              1 noname             0.0922
     20 H3         -38.4111 -42.7400   0.2904 H              1 noname            -0.2878
     21 H4         -40.7850 -38.9821  -1.4728 H              1 noname            -0.0318
     22 H5         -40.1392 -40.6126  -1.6879 H              1 noname            -0.0318
     23 H6         -40.3561 -39.9443   2.9590 H              1 noname            -0.0513
     24 H7         -42.4677 -40.5387   4.0540 H              1 noname            -0.0590
     25 H8         -44.4480 -41.1228   2.7076 H              1 noname            -0.0613
     26 H9         -44.2999 -41.1107   0.2472 H              1 noname            -0.0590
     27 H10        -42.1983 -40.5137  -0.8647 H              1 noname            -0.0513
     28 H11        -37.8516 -39.6936  -1.9019 H              1 noname            -0.0636
     29 H12        -38.9368 -38.9334  -3.0554 H              1 noname            -0.0636
     30 H13        -38.4546 -38.0653  -1.6028 H              1 noname            -0.0636
     31 ****       -39.1959 -42.0071  -0.9176 LP             1 noname             0.0000
     32 ****       -39.9564 -42.3127   0.4948 LP             1 noname             0.0000
     33 ****       -35.9352 -38.1317   2.4688 LP             1 noname             0.0000
     34 ****       -35.4276 -39.7766   2.2777 LP             1 noname             0.0000
     35 ****       -39.7968 -36.5840   1.2532 LP             1 noname             0.0000
     36 ****       -41.0073 -37.5061   0.4260 LP             1 noname             0.0000
@<TRIPOS>BOND
    1    1    2 am    
    2    1    6 1     
    3    1    8 2     
    4    2    3 am    
    5    4    3 1     
    6    3    9 2     
    7    4    5 1     
    8    4   10 1     
    9    4   11 1     
   10    5    6 2     
   11    5    7 1     
   12   10   17 1     
   13   11   12 ar    
   14   11   16 ar    
   15   12   13 ar    
   16   13   14 ar    
   17   14   15 ar    
   18   15   16 ar    
   19    2   18 1     
   20    6   19 1     
   21    7   20 1     
   22   10   21 1     
   23   10   22 1     
   24   12   23 1     
   25   13   24 1     
   26   14   25 1     
   27   15   26 1     
   28   16   27 1     
   29   17   28 1     
   30   17   29 1     
   31   17   30 1     
   32    7   31 1     
   33    7   32 1     
   34    8   33 1     
   35    8   34 1     
   36    9   35 1     
   37    9   36 1     
@<TRIPOS>SUBSTRUCTURE
      1 noname         1
@<TRIPOS>SET
LONE_PAIRS      STATIC     ATOMS    <user>   **** ""
6 31 32 33 34 35 36
DONOR_HYDROGENS      STATIC     ATOMS    <user>   **** ""
2 18 20
ATOM$BLUE        STATIC     ATOMS    COLORGROUP SYSTEM
6 31 32 33 34 35 36
ATOM$RED        STATIC     ATOMS    COLORGROUP SYSTEM
2 18 20
@<TRIPOS>COMMENT
> <Gold.Version>
2022.3.0

> <Gold.Id.Protein>
unknown|6c5f_clean|pdb

> <Gold.Protein.ActiveResidues>
 LEU49   SER50   GLN58   ILE95   LEU96   ILE97   ARG98   PRO1    PHE2    LEU3   
 LEU30   LYS32   PRO33   ASP35   ARG36   VAL37   ASN38   ILE61   SER62   SER63  
 ILE64   GLY65   VAL66   VAL67   PHE100  LEU102  GLU103  SER104  TRP105  GLN106 
 ILE107  GLY108  LYS109  ILE110  THR112  VAL113  PHE2    ILE61   SER62   SER63  
 ILE64   PHE2    PRO1    PHE2    PRO1    PHE2    LEU3    LEU96   ILE97   ARG98  
 PHE2    ARG36   VAL37   ASN38   PRO1    PRO1    VAL113  PHE2    LEU30   LYS32  
 PRO33   GLN106  ILE107  GLY108  LYS109  ILE110  ILE64   GLY65   VAL66   VAL67  
 GLN58   PRO1    PRO101  LEU102  GLU103  SER104  TRP105  PHE2    LEU49   SER50  
 PHE2   

> <Gold.Score>
     Fitness  S(hb_ext) S(vdw_ext)  S(hb_int)    S(int)      intcor
     35.08       0.67      25.76       0.00      -1.01      -2.15

> <Gold.Goldscore.Fitness>
35.0820

> <Gold.Goldscore.Internal.Vdw>
-2.6707

> <Gold.Goldscore.Internal.Torsion>
-0.4937

> <Gold.Goldscore.External.Vdw>
25.7597

> <Gold.Goldscore.Internal.HBond>
0.0000

> <Gold.Goldscore.External.HBond>
0.6742

> <Gold.Goldscore.Internal.Correction>
-2.1528

> <Gold.Goldscore.Reference.RMSD>
5.3734

> <Gold.Goldscore.Hbonds>
donor molecule, donor type, donor heavy atom, donor atom, acceptor molecule, acceptor atom, score
      L1  H     2    18       P1  2116  0.11

> <Gold.Goldscore.Internal.Vdw.Weighted>
-2.6707

> <Gold.Goldscore.Internal.Torsion.Weighted>
-0.4937

> <Gold.Goldscore.External.Vdw.Weighted>
35.4196

> <Gold.Goldscore.Internal.HBond.Weighted>
0.0000

> <Gold.Goldscore.External.HBond.Weighted>
0.6742

> <Gold.Goldscore.Internal.Correction.Weighted>
-2.1528

> <Gold.Rescore>
     Score         DG    S(hbond)    S(metal)    S(lipo)     H(rot)  DE(clash)    DE(int)     intcor
     12.54     -16.01       0.00        0.00     126.31       1.66       3.35       0.12       ----

> <Gold.Chemscore.Fitness>
12.5355

> <Gold.Chemscore.DG>
-16.0061

> <Gold.Chemscore.ZeroCoef>
-5.4800

> <Gold.Chemscore.Hbond>
0.0000

> <Gold.Chemscore.Metal>
0.0000

> <Gold.Chemscore.Lipo>
126.3114

> <Gold.Chemscore.Internal_Hbond>
0.0000

> <Gold.Chemscore.DEClash>
3.3520

> <Gold.Chemscore.DEInternal>
0.1186

> <Gold.Chemscore.Rot>
1.6611

> <Gold.Chemscore.Internal.Correction>
   9.000000E+99

> <Gold.Chemscore.Reference.RMSD>
0.0000

> <Gold.Chemscore.Hbond.Weighted>
-0.0000

> <Gold.Chemscore.Metal.Weighted>
-0.0000

> <Gold.Chemscore.Lipo.Weighted>
-14.7784

> <Gold.Chemscore.Internal_Hbond.Weighted>
0.0000

> <Gold.Chemscore.DEClash.Weighted>
3.3520

> <Gold.Chemscore.DEInternal.Weighted>
0.1186

> <Gold.Chemscore.Rot.Weighted>
4.2523

> <Gold.Chemscore.Internal.Correction.Weighted>
   9.000000E+99

> <Gold.Reference.RMSD>
5.3734

