#       Name:                00000001
#       Creating user name   hitesit
#       Creation time:       Thu Mar  2 16:48:39 2023


#       File generated by GOLD software.
#

@<TRIPOS>MOLECULE
00000001|prep_AF_1_R|mol2|1|dock3
    36    37     1
SMALL
USER_CHARGES


@<TRIPOS>ATOM
      1 C1         -37.1593 -41.5739   1.6347 C.2            1 noname             0.1635
      2 N1         -38.4821 -41.6380   2.1036 N.am           1 noname            -0.2225
      3 C2         -39.5180 -40.8933   1.5991 C.2            1 noname             0.2098
      4 C3         -39.2853 -39.9867   0.3996 C.3            1 noname             0.1150
      5 C4         -37.9133 -40.0997  -0.2067 C.2            1 noname             0.0067
      6 C5         -36.9624 -40.8290   0.3903 C.2            1 noname             0.0922
      7 O1         -37.7078 -39.4470  -1.3315 O.3            1 noname            -0.2878
      8 O2         -36.2683 -42.1418   2.2814 O.2            1 noname            -0.2627
      9 O3         -40.6133 -40.9962   2.1376 O.2            1 noname            -0.2565
     10 C6         -39.4364 -38.5182   0.8739 C.3            1 noname            -0.0318
     11 C7         -40.3452 -40.3961  -0.6459 C.ar           1 noname            -0.0457
     12 C8         -41.3211 -39.4935  -1.0600 C.ar           1 noname            -0.0513
     13 C9         -42.2658 -39.8476  -2.0088 C.ar           1 noname            -0.0590
     14 C10        -42.2591 -41.1123  -2.5574 C.ar           1 noname            -0.0613
     15 C11        -41.3072 -42.0238  -2.1535 C.ar           1 noname            -0.0590
     16 C12        -40.3607 -41.6710  -1.2057 C.ar           1 noname            -0.0513
     17 C13        -38.2160 -37.8889   1.5313 C.3            1 noname            -0.0636
     18 H1         -38.6847 -42.2771   2.8657 H              1 noname            -0.2225
     19 H2         -35.9808 -40.8707  -0.0795 H              1 noname             0.0922
     20 H3         -37.3908 -40.0395  -2.0560 H              1 noname            -0.2878
     21 H4         -40.2652 -38.4744   1.5910 H              1 noname            -0.0318
     22 H5         -39.7188 -37.9028   0.0108 H              1 noname            -0.0318
     23 H6         -41.3496 -38.4953  -0.6360 H              1 noname            -0.0513
     24 H7         -43.0145 -39.1271  -2.3212 H              1 noname            -0.0590
     25 H8         -42.9984 -41.3885  -3.3018 H              1 noname            -0.0613
     26 H9         -41.2994 -43.0216  -2.5797 H              1 noname            -0.0590
     27 H10        -39.6237 -42.4056  -0.8996 H              1 noname            -0.0513
     28 H11        -37.3862 -37.8180   0.8322 H              1 noname            -0.0636
     29 H12        -38.4461 -36.8827   1.8750 H              1 noname            -0.0636
     30 H13        -37.8883 -38.4699   2.3902 H              1 noname            -0.0636
     31 ****       -37.0204 -38.7386  -1.1713 LP             1 noname             0.0000
     32 ****       -38.5659 -39.0203  -1.6171 LP             1 noname             0.0000
     33 ****       -36.4966 -42.6344   3.1211 LP             1 noname             0.0000
     34 ****       -35.3207 -42.1074   1.9637 LP             1 noname             0.0000
     35 ****       -40.7306 -41.6086   2.9194 LP             1 noname             0.0000
     36 ****       -41.3903 -40.4677   1.7954 LP             1 noname             0.0000
@<TRIPOS>BOND
    1    1    2 am    
    2    1    6 1     
    3    1    8 2     
    4    2    3 am    
    5    4    3 1     
    6    3    9 2     
    7    4    5 1     
    8    4   10 1     
    9    4   11 1     
   10    5    6 2     
   11    5    7 1     
   12   10   17 1     
   13   11   12 ar    
   14   11   16 ar    
   15   12   13 ar    
   16   13   14 ar    
   17   14   15 ar    
   18   15   16 ar    
   19    2   18 1     
   20    6   19 1     
   21    7   20 1     
   22   10   21 1     
   23   10   22 1     
   24   12   23 1     
   25   13   24 1     
   26   14   25 1     
   27   15   26 1     
   28   16   27 1     
   29   17   28 1     
   30   17   29 1     
   31   17   30 1     
   32    7   31 1     
   33    7   32 1     
   34    8   33 1     
   35    8   34 1     
   36    9   35 1     
   37    9   36 1     
@<TRIPOS>SUBSTRUCTURE
      1 noname         1
@<TRIPOS>SET
LONE_PAIRS      STATIC     ATOMS    <user>   **** ""
6 31 32 33 34 35 36
DONOR_HYDROGENS      STATIC     ATOMS    <user>   **** ""
2 18 20
ATOM$BLUE        STATIC     ATOMS    COLORGROUP SYSTEM
6 31 32 33 34 35 36
ATOM$RED        STATIC     ATOMS    COLORGROUP SYSTEM
2 18 20
@<TRIPOS>COMMENT
> <Gold.Version>
2022.3.0

> <Gold.Id.Protein>
unknown|6c5f_clean|pdb

> <Gold.Protein.ActiveResidues>
 LEU49   SER50   GLN58   ILE95   LEU96   ILE97   ARG98   PRO1    PHE2    LEU3   
 LEU30   LYS32   PRO33   ASP35   ARG36   VAL37   ASN38   ILE61   SER62   SER63  
 ILE64   GLY65   VAL66   VAL67   PHE100  LEU102  GLU103  SER104  TRP105  GLN106 
 ILE107  GLY108  LYS109  ILE110  THR112  VAL113  PRO1    GLN58   PHE2    LEU96  
 LEU30   LYS32   PRO33   PHE2    PRO1    PRO101  LEU102  GLU103  VAL37   ASN38  
 LEU49   SER50   ILE61   SER62   SER63   ILE64   ILE64   GLY65   VAL66   VAL67  
 PRO33   ARG36   VAL37   PRO1    SER104  TRP105  GLN106  ILE107  GLY108  LYS109 
 ILE110  PRO1    PHE2    LEU3    ILE110  VAL113  LEU96   ILE97   ARG98   PHE2   
 PRO1   

> <Gold.Score>
     Score     S(PLP)   S(hbond)     S(cho)   S(metal)  DE(clash)   DE(tors)     intcor
     41.44     -39.03       1.00       0.00       0.00       0.00       0.30       0.02

> <Gold.PLP.Fitness>
41.4364

> <Gold.PLP.PLP>
-39.0260

> <Gold.PLP.part.hbond>
0.0497

> <Gold.PLP.part.metal>
0.0000

> <Gold.PLP.part.buried>
-0.5646

> <Gold.PLP.part.nonpolar>
-38.6904

> <Gold.PLP.part.repulsive>
0.0616

> <Gold.PLP.ligand.clash>
0.0000

> <Gold.PLP.ligand.torsion>
0.3041

> <Gold.PLP.Chemscore.Hbond>
1.0000

> <Gold.PLP.Chemscore.CHOScore>
0.0000

> <Gold.PLP.Chemscore.Metal>
0.0000

> <Gold.Chemscore.Hbonds>
donor molecule, donor type, donor heavy atom, donor atom, acceptor molecule, acceptor atom, score
      L1  H     7    20       P1  1923  0.93

> <Gold.PLP.Chemscore.Internal.Correction>
0.0185

> <Gold.PLP.Reference.RMSD>
5.0739

> <Gold.Rescore>
     Score         DG    S(hbond)    S(metal)    S(lipo)     H(rot)  DE(clash)    DE(int)     intcor
     21.08     -22.41       1.00        0.00     152.57       1.66       0.90       0.43       ----

> <Gold.Chemscore.Fitness>
21.0771

> <Gold.Chemscore.DG>
-22.4145

> <Gold.Chemscore.ZeroCoef>
-5.4800

> <Gold.Chemscore.Hbond>
0.9989

> <Gold.Chemscore.Metal>
0.0000

> <Gold.Chemscore.Lipo>
152.5674

> <Gold.Chemscore.Internal_Hbond>
0.0000

> <Gold.Chemscore.DEClash>
0.9032

> <Gold.Chemscore.DEInternal>
0.4342

> <Gold.Chemscore.Rot>
1.6611

> <Gold.Chemscore.Internal.Correction>
   9.000000E+99

> <Gold.Chemscore.Reference.RMSD>
0.0000

> <Gold.Chemscore.Hbonds>
donor molecule, donor type, donor heavy atom, donor atom, acceptor molecule, acceptor atom, score
      L1  H     7    20       P1  1923  0.84

> <Gold.Chemscore.Hbond.Weighted>
-3.3364

> <Gold.Chemscore.Metal.Weighted>
-0.0000

> <Gold.Chemscore.Lipo.Weighted>
-17.8504

> <Gold.Chemscore.Internal_Hbond.Weighted>
0.0000

> <Gold.Chemscore.DEClash.Weighted>
0.9032

> <Gold.Chemscore.DEInternal.Weighted>
0.4342

> <Gold.Chemscore.Rot.Weighted>
4.2523

> <Gold.Chemscore.Internal.Correction.Weighted>
   9.000000E+99

> <Gold.Reference.RMSD>
5.0739

