#       Name:                00000001
#       Creating user name   hitesit
#       Creation time:       Mon Feb 27 15:35:05 2023


#       File generated by GOLD software.
#

@<TRIPOS>MOLECULE
00000001
    36    37     1
SMALL
USER_CHARGES


@<TRIPOS>ATOM
      1 C1          -2.9321  -1.2493  -1.1951 C.2            1 noname             0.1635
      2 N1          -2.7752  -0.7512   0.0852 N.am           1 noname            -0.2225
      3 C2          -1.6025  -0.4171   0.7105 C.2            1 noname             0.2098
      4 C3          -0.2887  -0.6441  -0.0374 C.3            1 noname             0.1150
      5 C4          -0.5163  -1.1491  -1.4626 C.2            1 noname             0.0067
      6 C5          -1.7408  -1.4188  -1.9567 C.2            1 noname             0.0922
      7 O1           0.5848  -1.3049  -2.1671 O.3            1 noname            -0.2878
      8 O2          -4.0743  -1.5070  -1.5997 O.2            1 noname            -0.2627
      9 O3          -1.6385   0.0597   1.8381 O.2            1 noname            -0.2565
     10 C6           0.5244  -1.7437   0.6935 C.3            1 noname            -0.0318
     11 C7           0.4401   0.7162  -0.0837 C.ar           1 noname            -0.0457
     12 C8          -0.2711   1.8977  -0.2751 C.ar           1 noname            -0.0513
     13 C9           0.3731   3.1235  -0.3023 C.ar           1 noname            -0.0590
     14 C10          1.7410   3.1928  -0.1459 C.ar           1 noname            -0.0613
     15 C11          2.4645   2.0335   0.0349 C.ar           1 noname            -0.0590
     16 C12          1.8218   0.8069   0.0637 C.ar           1 noname            -0.0513
     17 C13          0.9005  -1.4597   2.1411 C.3            1 noname            -0.0636
     18 H1          -3.6304  -0.6074   0.6221 H              1 noname            -0.2225
     19 H2          -1.8223  -1.7798  -2.9766 H              1 noname             0.0922
     20 H3           1.3954  -1.0730  -1.6517 H              1 noname            -0.2878
     21 H4           1.4512  -1.9133   0.1320 H              1 noname            -0.0318
     22 H5          -0.0507  -2.6773   0.6635 H              1 noname            -0.0318
     23 H6          -1.3474   1.8659  -0.4077 H              1 noname            -0.0513
     24 H7          -0.2009   4.0327  -0.4475 H              1 noname            -0.0590
     25 H8           2.2448   4.1535  -0.1656 H              1 noname            -0.0613
     26 H9           3.5418   2.0821   0.1552 H              1 noname            -0.0590
     27 H10          2.4115  -0.0927   0.2030 H              1 noname            -0.0513
     28 H11          0.0156  -1.3766   2.7676 H              1 noname            -0.0636
     29 H12          1.5137  -2.2653   2.5393 H              1 noname            -0.0636
     30 H13          1.4656  -0.5344   2.2264 H              1 noname            -0.0636
     31 ****         0.5368  -0.7155  -2.9736 LP             1 noname             0.0000
     32 ****         0.6496  -2.2601  -2.4558 LP             1 noname             0.0000
     33 ****        -4.8623  -1.3540  -1.0034 LP             1 noname             0.0000
     34 ****        -4.2082  -1.8680  -2.5227 LP             1 noname             0.0000
     35 ****        -2.5176   0.2016   2.2931 LP             1 noname             0.0000
     36 ****        -0.7887   0.3071   2.3037 LP             1 noname             0.0000
@<TRIPOS>BOND
    1    1    2 am    
    2    1    6 1     
    3    1    8 2     
    4    2    3 am    
    5    4    3 1     
    6    3    9 2     
    7    4    5 1     
    8    4   10 1     
    9    4   11 1     
   10    5    6 2     
   11    5    7 1     
   12   10   17 1     
   13   11   12 ar    
   14   11   16 ar    
   15   12   13 ar    
   16   13   14 ar    
   17   14   15 ar    
   18   15   16 ar    
   19    2   18 1     
   20    6   19 1     
   21    7   20 1     
   22   10   21 1     
   23   10   22 1     
   24   12   23 1     
   25   13   24 1     
   26   14   25 1     
   27   15   26 1     
   28   16   27 1     
   29   17   28 1     
   30   17   29 1     
   31   17   30 1     
   32    7   31 1     
   33    7   32 1     
   34    8   33 1     
   35    8   34 1     
   36    9   35 1     
   37    9   36 1     
@<TRIPOS>SUBSTRUCTURE
      1 noname         1
@<TRIPOS>SET
LONE_PAIRS      STATIC     ATOMS    <user>   **** ""
6 31 32 33 34 35 36
DONOR_HYDROGENS      STATIC     ATOMS    <user>   **** ""
2 18 20
ATOM$BLUE        STATIC     ATOMS    COLORGROUP SYSTEM
6 31 32 33 34 35 36
ATOM$RED        STATIC     ATOMS    COLORGROUP SYSTEM
2 18 20
