#       Name:                00000001
#       Creating user name   hitesit
#       Creation time:       Mon Feb 27 15:35:08 2023


#       File generated by GOLD software.
#

@<TRIPOS>MOLECULE
00000001|prep_AF_1_R|mol2|1|dock2
    36    37     1
SMALL
USER_CHARGES


@<TRIPOS>ATOM
      1 C1         -40.2867 -39.6359  -2.0264 C.2            1 noname             0.1635
      2 N1         -38.9174 -39.8169  -2.0923 N.am           1 noname            -0.2225
      3 C2         -38.0650 -40.1035  -1.0584 C.2            1 noname             0.2098
      4 C3         -38.6413 -40.2013   0.3541 C.3            1 noname             0.1150
      5 C4         -40.1620 -40.0422   0.3688 C.2            1 noname             0.0067
      6 C5         -40.8812 -39.7802  -0.7405 C.2            1 noname             0.0922
      7 O1         -40.7118 -40.1766   1.5573 O.3            1 noname            -0.2878
      8 O2         -40.9048 -39.3717  -3.0671 O.2            1 noname            -0.2627
      9 O3         -36.8762 -40.2820  -1.2928 O.2            1 noname            -0.2565
     10 C6         -38.0704 -39.0436   1.2133 C.3            1 noname            -0.0318
     11 C7         -38.2648 -41.5976   0.8948 C.ar           1 noname            -0.0457
     12 C8         -36.9750 -41.8603   1.3486 C.ar           1 noname            -0.0513
     13 C9         -36.6332 -43.1054   1.8497 C.ar           1 noname            -0.0590
     14 C10        -37.5708 -44.1148   1.9008 C.ar           1 noname            -0.0613
     15 C11        -38.8507 -43.8778   1.4472 C.ar           1 noname            -0.0590
     16 C12        -39.1947 -42.6328   0.9470 C.ar           1 noname            -0.0513
     17 C13        -38.5935 -37.6478   0.9040 C.3            1 noname            -0.0636
     18 H1         -38.4950 -39.7371  -3.0173 H              1 noname            -0.2225
     19 H2         -41.9572 -39.6749  -0.6500 H              1 noname             0.0922
     20 H3         -41.6991 -40.1687   1.5166 H              1 noname            -0.2878
     21 H4         -36.9809 -39.0302   1.0877 H              1 noname            -0.0318
     22 H5         -38.2745 -39.2623   2.2686 H              1 noname            -0.0318
     23 H6         -36.2193 -41.0828   1.3108 H              1 noname            -0.0513
     24 H7         -35.6236 -43.2874   2.2030 H              1 noname            -0.0590
     25 H8         -37.3028 -45.0894   2.2950 H              1 noname            -0.0613
     26 H9         -39.5916 -44.6697   1.4821 H              1 noname            -0.0590
     27 H10        -40.2064 -42.4700   0.5917 H              1 noname            -0.0513
     28 H11        -39.6599 -37.5750   1.1037 H              1 noname            -0.0636
     29 H12        -38.0896 -36.9077   1.5219 H              1 noname            -0.0636
     30 H13        -38.4241 -37.3862  -0.1380 H              1 noname            -0.0636
     31 ****       -40.4079 -39.4224   2.1394 LP             1 noname             0.0000
     32 ****       -40.4132 -41.0447   1.9537 LP             1 noname             0.0000
     33 ****       -40.4131 -39.2929  -3.9343 LP             1 noname             0.0000
     34 ****       -41.8953 -39.2373  -3.0398 LP             1 noname             0.0000
     35 ****       -36.5365 -40.2181  -2.2312 LP             1 noname             0.0000
     36 ****       -36.2452 -40.4918  -0.5459 LP             1 noname             0.0000
@<TRIPOS>BOND
    1    1    2 am    
    2    1    6 1     
    3    1    8 2     
    4    2    3 am    
    5    4    3 1     
    6    3    9 2     
    7    4    5 1     
    8    4   10 1     
    9    4   11 1     
   10    5    6 2     
   11    5    7 1     
   12   10   17 1     
   13   11   12 ar    
   14   11   16 ar    
   15   12   13 ar    
   16   13   14 ar    
   17   14   15 ar    
   18   15   16 ar    
   19    2   18 1     
   20    6   19 1     
   21    7   20 1     
   22   10   21 1     
   23   10   22 1     
   24   12   23 1     
   25   13   24 1     
   26   14   25 1     
   27   15   26 1     
   28   16   27 1     
   29   17   28 1     
   30   17   29 1     
   31   17   30 1     
   32    7   31 1     
   33    7   32 1     
   34    8   33 1     
   35    8   34 1     
   36    9   35 1     
   37    9   36 1     
@<TRIPOS>SUBSTRUCTURE
      1 noname         1
@<TRIPOS>SET
LONE_PAIRS      STATIC     ATOMS    <user>   **** ""
6 31 32 33 34 35 36
DONOR_HYDROGENS      STATIC     ATOMS    <user>   **** ""
2 18 20
ATOM$BLUE        STATIC     ATOMS    COLORGROUP SYSTEM
6 31 32 33 34 35 36
ATOM$RED        STATIC     ATOMS    COLORGROUP SYSTEM
2 18 20
@<TRIPOS>COMMENT
> <Gold.Version>
2022.3.0

> <Gold.Id.Protein>
unknown|6c5f_clean|pdb

> <Gold.Protein.ActiveResidues>
 LEU49   SER50   GLN58   ILE95   LEU96   ILE97   ARG98   PRO1    PHE2    LEU3   
 LEU30   LYS32   PRO33   ASP35   ARG36   VAL37   ASN38   ILE61   SER62   SER63  
 ILE64   GLY65   VAL66   VAL67   PHE100  LEU102  GLU103  SER104  TRP105  GLN106 
 ILE107  GLY108  LYS109  ILE110  THR112  VAL113  PHE2    ILE61   SER62   SER63  
 ILE64   PHE2    PRO1    PHE2    PRO1    PHE2    LEU3    LEU96   ILE97   ARG98  
 PHE2    ARG36   VAL37   ASN38   PRO1    PRO1    VAL113  PHE2    LEU30   LYS32  
 PRO33   GLN106  ILE107  GLY108  LYS109  ILE110  ILE64   GLY65   VAL66   VAL67  
 GLN58   PRO1    PRO101  LEU102  GLU103  SER104  TRP105  PHE2    LEU49   SER50  
 PHE2   

> <Gold.Score>
     Fitness  S(hb_ext) S(vdw_ext)  S(hb_int)    S(int)      intcor
     35.88       0.17      26.18       0.00      -0.29      -2.15

> <Gold.Goldscore.Fitness>
35.8794

> <Gold.Goldscore.Internal.Vdw>
-1.7262

> <Gold.Goldscore.Internal.Torsion>
-0.7215

> <Gold.Goldscore.External.Vdw>
26.1825

> <Gold.Goldscore.Internal.HBond>
0.0000

> <Gold.Goldscore.External.HBond>
0.1733

> <Gold.Goldscore.Internal.Correction>
-2.1528

> <Gold.Goldscore.Reference.RMSD>
4.6806

> <Gold.Goldscore.Hbonds>
donor molecule, donor type, donor heavy atom, donor atom, acceptor molecule, acceptor atom, score
      L1  H     2    18       P1  1923  0.09

> <Gold.Goldscore.Internal.Vdw.Weighted>
-1.7262

> <Gold.Goldscore.Internal.Torsion.Weighted>
-0.7215

> <Gold.Goldscore.External.Vdw.Weighted>
36.0010

> <Gold.Goldscore.Internal.HBond.Weighted>
0.0000

> <Gold.Goldscore.External.HBond.Weighted>
0.1733

> <Gold.Goldscore.Internal.Correction.Weighted>
-2.1528

> <Gold.Rescore>
     Score         DG    S(hbond)    S(metal)    S(lipo)     H(rot)  DE(clash)    DE(int)     intcor
     14.54     -16.22       1.00        0.00      99.67       1.66       0.50       1.18       ----

> <Gold.Chemscore.Fitness>
14.5383

> <Gold.Chemscore.DG>
-16.2191

> <Gold.Chemscore.ZeroCoef>
-5.4800

> <Gold.Chemscore.Hbond>
0.9971

> <Gold.Chemscore.Metal>
0.0000

> <Gold.Chemscore.Lipo>
99.6685

> <Gold.Chemscore.Internal_Hbond>
0.0000

> <Gold.Chemscore.DEClash>
0.4969

> <Gold.Chemscore.DEInternal>
1.1839

> <Gold.Chemscore.Rot>
1.6611

> <Gold.Chemscore.Internal.Correction>
   9.000000E+99

> <Gold.Chemscore.Reference.RMSD>
0.0000

> <Gold.Chemscore.Hbonds>
donor molecule, donor type, donor heavy atom, donor atom, acceptor molecule, acceptor atom, score
      L1  H     2    18       P1  1923  0.58

> <Gold.Chemscore.Hbond.Weighted>
-3.3302

> <Gold.Chemscore.Metal.Weighted>
-0.0000

> <Gold.Chemscore.Lipo.Weighted>
-11.6612

> <Gold.Chemscore.Internal_Hbond.Weighted>
0.0000

> <Gold.Chemscore.DEClash.Weighted>
0.4969

> <Gold.Chemscore.DEInternal.Weighted>
1.1839

> <Gold.Chemscore.Rot.Weighted>
4.2523

> <Gold.Chemscore.Internal.Correction.Weighted>
   9.000000E+99

> <Gold.Reference.RMSD>
4.6806

#       Name:                00000001
#       Creating user name   hitesit
#       Creation time:       Mon Feb 27 15:35:07 2023


#       File generated by GOLD software.
#

@<TRIPOS>MOLECULE
00000001|prep_AF_1_R|mol2|1|dock1
    36    37     1
SMALL
USER_CHARGES


@<TRIPOS>ATOM
      1 C1         -37.1964 -39.3329   1.6085 C.2            1 noname             0.1635
      2 N1         -38.1321 -38.3274   1.4490 N.am           1 noname            -0.2225
      3 C2         -39.3691 -38.4260   0.8676 C.2            1 noname             0.2098
      4 C3         -39.7892 -39.7709   0.2745 C.3            1 noname             0.1150
      5 C4         -38.7442 -40.8602   0.5179 C.2            1 noname             0.0067
      6 C5         -37.5669 -40.6215   1.1289 C.2            1 noname             0.0922
      7 O1         -39.0869 -42.0518   0.0755 O.3            1 noname            -0.2878
      8 O2         -36.1171 -39.0630   2.1534 O.2            1 noname            -0.2627
      9 O3         -40.1026 -37.4454   0.8477 O.2            1 noname            -0.2565
     10 C6         -39.9212 -39.6248  -1.2636 C.3            1 noname            -0.0318
     11 C7         -41.1148 -40.1671   0.9598 C.ar           1 noname            -0.0457
     12 C8         -41.2178 -40.1917   2.3480 C.ar           1 noname            -0.0513
     13 C9         -42.4076 -40.5309   2.9707 C.ar           1 noname            -0.0590
     14 C10        -43.5158 -40.8589   2.2193 C.ar           1 noname            -0.0613
     15 C11        -43.4316 -40.8501   0.8434 C.ar           1 noname            -0.0590
     16 C12        -42.2429 -40.5099   0.2190 C.ar           1 noname            -0.0513
     17 C13        -38.7190 -39.0445  -1.9953 C.3            1 noname            -0.0636
     18 H1         -37.8763 -37.4100   1.8140 H              1 noname            -0.2225
     19 H2         -36.8729 -41.4450   1.2608 H              1 noname             0.0922
     20 H3         -38.4111 -42.7400   0.2904 H              1 noname            -0.2878
     21 H4         -40.7850 -38.9821  -1.4728 H              1 noname            -0.0318
     22 H5         -40.1392 -40.6126  -1.6879 H              1 noname            -0.0318
     23 H6         -40.3561 -39.9443   2.9590 H              1 noname            -0.0513
     24 H7         -42.4677 -40.5387   4.0540 H              1 noname            -0.0590
     25 H8         -44.4480 -41.1228   2.7076 H              1 noname            -0.0613
     26 H9         -44.2999 -41.1107   0.2472 H              1 noname            -0.0590
     27 H10        -42.1983 -40.5137  -0.8647 H              1 noname            -0.0513
     28 H11        -37.8516 -39.6936  -1.9019 H              1 noname            -0.0636
     29 H12        -38.9368 -38.9334  -3.0554 H              1 noname            -0.0636
     30 H13        -38.4546 -38.0653  -1.6028 H              1 noname            -0.0636
     31 ****       -39.1959 -42.0071  -0.9176 LP             1 noname             0.0000
     32 ****       -39.9564 -42.3127   0.4948 LP             1 noname             0.0000
     33 ****       -35.9352 -38.1317   2.4688 LP             1 noname             0.0000
     34 ****       -35.4276 -39.7766   2.2777 LP             1 noname             0.0000
     35 ****       -39.7968 -36.5840   1.2532 LP             1 noname             0.0000
     36 ****       -41.0073 -37.5061   0.4260 LP             1 noname             0.0000
@<TRIPOS>BOND
    1    1    2 am    
    2    1    6 1     
    3    1    8 2     
    4    2    3 am    
    5    4    3 1     
    6    3    9 2     
    7    4    5 1     
    8    4   10 1     
    9    4   11 1     
   10    5    6 2     
   11    5    7 1     
   12   10   17 1     
   13   11   12 ar    
   14   11   16 ar    
   15   12   13 ar    
   16   13   14 ar    
   17   14   15 ar    
   18   15   16 ar    
   19    2   18 1     
   20    6   19 1     
   21    7   20 1     
   22   10   21 1     
   23   10   22 1     
   24   12   23 1     
   25   13   24 1     
   26   14   25 1     
   27   15   26 1     
   28   16   27 1     
   29   17   28 1     
   30   17   29 1     
   31   17   30 1     
   32    7   31 1     
   33    7   32 1     
   34    8   33 1     
   35    8   34 1     
   36    9   35 1     
   37    9   36 1     
@<TRIPOS>SUBSTRUCTURE
      1 noname         1
@<TRIPOS>SET
LONE_PAIRS      STATIC     ATOMS    <user>   **** ""
6 31 32 33 34 35 36
DONOR_HYDROGENS      STATIC     ATOMS    <user>   **** ""
2 18 20
ATOM$BLUE        STATIC     ATOMS    COLORGROUP SYSTEM
6 31 32 33 34 35 36
ATOM$RED        STATIC     ATOMS    COLORGROUP SYSTEM
2 18 20
@<TRIPOS>COMMENT
> <Gold.Version>
2022.3.0

> <Gold.Id.Protein>
unknown|6c5f_clean|pdb

> <Gold.Protein.ActiveResidues>
 LEU49   SER50   GLN58   ILE95   LEU96   ILE97   ARG98   PRO1    PHE2    LEU3   
 LEU30   LYS32   PRO33   ASP35   ARG36   VAL37   ASN38   ILE61   SER62   SER63  
 ILE64   GLY65   VAL66   VAL67   PHE100  LEU102  GLU103  SER104  TRP105  GLN106 
 ILE107  GLY108  LYS109  ILE110  THR112  VAL113  PHE2    ILE61   SER62   SER63  
 ILE64   PHE2    PRO1    PHE2    PRO1    PHE2    LEU3    LEU96   ILE97   ARG98  
 PHE2    ARG36   VAL37   ASN38   PRO1    PRO1    VAL113  PHE2    LEU30   LYS32  
 PRO33   GLN106  ILE107  GLY108  LYS109  ILE110  ILE64   GLY65   VAL66   VAL67  
 GLN58   PRO1    PRO101  LEU102  GLU103  SER104  TRP105  PHE2    LEU49   SER50  
 PHE2   

> <Gold.Score>
     Fitness  S(hb_ext) S(vdw_ext)  S(hb_int)    S(int)      intcor
     35.08       0.67      25.76       0.00      -1.01      -2.15

> <Gold.Goldscore.Fitness>
35.0820

> <Gold.Goldscore.Internal.Vdw>
-2.6707

> <Gold.Goldscore.Internal.Torsion>
-0.4937

> <Gold.Goldscore.External.Vdw>
25.7597

> <Gold.Goldscore.Internal.HBond>
0.0000

> <Gold.Goldscore.External.HBond>
0.6742

> <Gold.Goldscore.Internal.Correction>
-2.1528

> <Gold.Goldscore.Reference.RMSD>
5.3734

> <Gold.Goldscore.Hbonds>
donor molecule, donor type, donor heavy atom, donor atom, acceptor molecule, acceptor atom, score
      L1  H     2    18       P1  2116  0.11

> <Gold.Goldscore.Internal.Vdw.Weighted>
-2.6707

> <Gold.Goldscore.Internal.Torsion.Weighted>
-0.4937

> <Gold.Goldscore.External.Vdw.Weighted>
35.4196

> <Gold.Goldscore.Internal.HBond.Weighted>
0.0000

> <Gold.Goldscore.External.HBond.Weighted>
0.6742

> <Gold.Goldscore.Internal.Correction.Weighted>
-2.1528

> <Gold.Rescore>
     Score         DG    S(hbond)    S(metal)    S(lipo)     H(rot)  DE(clash)    DE(int)     intcor
     12.54     -16.01       0.00        0.00     126.31       1.66       3.35       0.12       ----

> <Gold.Chemscore.Fitness>
12.5355

> <Gold.Chemscore.DG>
-16.0061

> <Gold.Chemscore.ZeroCoef>
-5.4800

> <Gold.Chemscore.Hbond>
0.0000

> <Gold.Chemscore.Metal>
0.0000

> <Gold.Chemscore.Lipo>
126.3114

> <Gold.Chemscore.Internal_Hbond>
0.0000

> <Gold.Chemscore.DEClash>
3.3520

> <Gold.Chemscore.DEInternal>
0.1186

> <Gold.Chemscore.Rot>
1.6611

> <Gold.Chemscore.Internal.Correction>
   9.000000E+99

> <Gold.Chemscore.Reference.RMSD>
0.0000

> <Gold.Chemscore.Hbond.Weighted>
-0.0000

> <Gold.Chemscore.Metal.Weighted>
-0.0000

> <Gold.Chemscore.Lipo.Weighted>
-14.7784

> <Gold.Chemscore.Internal_Hbond.Weighted>
0.0000

> <Gold.Chemscore.DEClash.Weighted>
3.3520

> <Gold.Chemscore.DEInternal.Weighted>
0.1186

> <Gold.Chemscore.Rot.Weighted>
4.2523

> <Gold.Chemscore.Internal.Correction.Weighted>
   9.000000E+99

> <Gold.Reference.RMSD>
5.3734

#       Name:                00000001
#       Creating user name   hitesit
#       Creation time:       Mon Feb 27 15:35:14 2023


#       File generated by GOLD software.
#

@<TRIPOS>MOLECULE
00000001|prep_AF_1_R|mol2|1|dock5
    36    37     1
SMALL
USER_CHARGES


@<TRIPOS>ATOM
      1 C1         -37.1756 -39.5422   1.6622 C.2            1 noname             0.1635
      2 N1         -38.1110 -38.5277   1.5746 N.am           1 noname            -0.2225
      3 C2         -39.3680 -38.5989   1.0334 C.2            1 noname             0.2098
      4 C3         -39.8155 -39.9181   0.4038 C.3            1 noname             0.1150
      5 C4         -38.7682 -41.0201   0.5682 C.2            1 noname             0.0067
      6 C5         -37.5692 -40.8098   1.1464 C.2            1 noname             0.0922
      7 O1         -39.1323 -42.1922   0.0922 O.3            1 noname            -0.2878
      8 O2         -36.0765 -39.2979   2.1790 O.2            1 noname            -0.2627
      9 O3         -40.0966 -37.6154   1.0772 O.2            1 noname            -0.2565
     10 C6         -40.0002 -39.7119  -1.1219 C.3            1 noname            -0.0318
     11 C7         -41.1184 -40.3356   1.1193 C.ar           1 noname            -0.0457
     12 C8         -41.1758 -40.4048   2.5086 C.ar           1 noname            -0.0513
     13 C9         -42.3450 -40.7633   3.1588 C.ar           1 noname            -0.0590
     14 C10        -43.4778 -41.0664   2.4341 C.ar           1 noname            -0.0613
     15 C11        -43.4388 -41.0134   1.0572 C.ar           1 noname            -0.0590
     16 C12        -42.2708 -40.6538   0.4053 C.ar           1 noname            -0.0513
     17 C13        -38.8037 -39.1547  -1.8807 C.3            1 noname            -0.0636
     18 H1         -37.8379 -37.6261   1.9656 H              1 noname            -0.2225
     19 H2         -36.8753 -41.6404   1.2219 H              1 noname             0.0922
     20 H3         -38.4534 -42.8910   0.2574 H              1 noname            -0.2878
     21 H4         -40.8438 -39.0277  -1.2745 H              1 noname            -0.0318
     22 H5         -40.2753 -40.6743  -1.5707 H              1 noname            -0.0318
     23 H6         -40.2941 -40.1776   3.0986 H              1 noname            -0.0513
     24 H7         -42.3695 -40.8059   4.2427 H              1 noname            -0.0590
     25 H8         -44.3939 -41.3455   2.9441 H              1 noname            -0.0613
     26 H9         -44.3267 -41.2542   0.4818 H              1 noname            -0.0590
     27 H10        -42.2618 -40.6227  -0.6788 H              1 noname            -0.0513
     28 H11        -37.9612 -39.8413  -1.8441 H              1 noname            -0.0636
     29 H12        -39.0572 -38.9971  -2.9268 H              1 noname            -0.0636
     30 H13        -38.4839 -38.2017  -1.4657 H              1 noname            -0.0636
     31 ****       -39.2747 -42.1087  -0.8941 LP             1 noname             0.0000
     32 ****       -39.9885 -42.4655   0.5307 LP             1 noname             0.0000
     33 ****       -35.8790 -38.3802   2.5237 LP             1 noname             0.0000
     34 ****       -35.3868 -40.0184   2.2515 LP             1 noname             0.0000
     35 ****       -39.7724 -36.7716   1.5048 LP             1 noname             0.0000
     36 ****       -41.0158 -37.6563   0.6854 LP             1 noname             0.0000
@<TRIPOS>BOND
    1    1    2 am    
    2    1    6 1     
    3    1    8 2     
    4    2    3 am    
    5    4    3 1     
    6    3    9 2     
    7    4    5 1     
    8    4   10 1     
    9    4   11 1     
   10    5    6 2     
   11    5    7 1     
   12   10   17 1     
   13   11   12 ar    
   14   11   16 ar    
   15   12   13 ar    
   16   13   14 ar    
   17   14   15 ar    
   18   15   16 ar    
   19    2   18 1     
   20    6   19 1     
   21    7   20 1     
   22   10   21 1     
   23   10   22 1     
   24   12   23 1     
   25   13   24 1     
   26   14   25 1     
   27   15   26 1     
   28   16   27 1     
   29   17   28 1     
   30   17   29 1     
   31   17   30 1     
   32    7   31 1     
   33    7   32 1     
   34    8   33 1     
   35    8   34 1     
   36    9   35 1     
   37    9   36 1     
@<TRIPOS>SUBSTRUCTURE
      1 noname         1
@<TRIPOS>SET
LONE_PAIRS      STATIC     ATOMS    <user>   **** ""
6 31 32 33 34 35 36
DONOR_HYDROGENS      STATIC     ATOMS    <user>   **** ""
2 18 20
ATOM$BLUE        STATIC     ATOMS    COLORGROUP SYSTEM
6 31 32 33 34 35 36
ATOM$RED        STATIC     ATOMS    COLORGROUP SYSTEM
2 18 20
@<TRIPOS>COMMENT
> <Gold.Version>
2022.3.0

> <Gold.Id.Protein>
unknown|6c5f_clean|pdb

> <Gold.Protein.ActiveResidues>
 LEU49   SER50   GLN58   ILE95   LEU96   ILE97   ARG98   PRO1    PHE2    LEU3   
 LEU30   LYS32   PRO33   ASP35   ARG36   VAL37   ASN38   ILE61   SER62   SER63  
 ILE64   GLY65   VAL66   VAL67   PHE100  LEU102  GLU103  SER104  TRP105  GLN106 
 ILE107  GLY108  LYS109  ILE110  THR112  VAL113  PHE2    ILE61   SER62   SER63  
 ILE64   PHE2    PRO1    PHE2    PRO1    PHE2    LEU3    LEU96   ILE97   ARG98  
 PHE2    ARG36   VAL37   ASN38   PRO1    PRO1    VAL113  PHE2    LEU30   LYS32  
 PRO33   GLN106  ILE107  GLY108  LYS109  ILE110  ILE64   GLY65   VAL66   VAL67  
 GLN58   PRO1    PRO101  LEU102  GLU103  SER104  TRP105  PHE2    LEU49   SER50  
 PHE2   

> <Gold.Score>
     Fitness  S(hb_ext) S(vdw_ext)  S(hb_int)    S(int)      intcor
     34.49       1.24      24.78       0.00      -0.82      -2.15

> <Gold.Goldscore.Fitness>
34.4881

> <Gold.Goldscore.Internal.Vdw>
-2.5186

> <Gold.Goldscore.Internal.Torsion>
-0.4506

> <Gold.Goldscore.External.Vdw>
24.7763

> <Gold.Goldscore.Internal.HBond>
0.0000

> <Gold.Goldscore.External.HBond>
1.2372

> <Gold.Goldscore.Internal.Correction>
-2.1528

> <Gold.Goldscore.Reference.RMSD>
5.3441

> <Gold.Goldscore.Hbonds>
donor molecule, donor type, donor heavy atom, donor atom, acceptor molecule, acceptor atom, score
      L1  H     2    18       P1  2116  0.21

> <Gold.Goldscore.Internal.Vdw.Weighted>
-2.5186

> <Gold.Goldscore.Internal.Torsion.Weighted>
-0.4506

> <Gold.Goldscore.External.Vdw.Weighted>
34.0675

> <Gold.Goldscore.Internal.HBond.Weighted>
0.0000

> <Gold.Goldscore.External.HBond.Weighted>
1.2372

> <Gold.Goldscore.Internal.Correction.Weighted>
-2.1528

> <Gold.Rescore>
     Score         DG    S(hbond)    S(metal)    S(lipo)     H(rot)  DE(clash)    DE(int)     intcor
     12.11     -15.28       0.00        0.00     120.13       1.66       2.82       0.35       ----

> <Gold.Chemscore.Fitness>
12.1075

> <Gold.Chemscore.DG>
-15.2826

> <Gold.Chemscore.ZeroCoef>
-5.4800

> <Gold.Chemscore.Hbond>
0.0000

> <Gold.Chemscore.Metal>
0.0000

> <Gold.Chemscore.Lipo>
120.1273

> <Gold.Chemscore.Internal_Hbond>
0.0000

> <Gold.Chemscore.DEClash>
2.8244

> <Gold.Chemscore.DEInternal>
0.3507

> <Gold.Chemscore.Rot>
1.6611

> <Gold.Chemscore.Internal.Correction>
   9.000000E+99

> <Gold.Chemscore.Reference.RMSD>
0.0000

> <Gold.Chemscore.Hbond.Weighted>
-0.0000

> <Gold.Chemscore.Metal.Weighted>
-0.0000

> <Gold.Chemscore.Lipo.Weighted>
-14.0549

> <Gold.Chemscore.Internal_Hbond.Weighted>
0.0000

> <Gold.Chemscore.DEClash.Weighted>
2.8244

> <Gold.Chemscore.DEInternal.Weighted>
0.3507

> <Gold.Chemscore.Rot.Weighted>
4.2523

> <Gold.Chemscore.Internal.Correction.Weighted>
   9.000000E+99

> <Gold.Reference.RMSD>
5.3441

#       Name:                00000001
#       Creating user name   hitesit
#       Creation time:       Mon Feb 27 15:35:16 2023


#       File generated by GOLD software.
#

@<TRIPOS>MOLECULE
00000001|prep_AF_1_R|mol2|1|dock6
    36    37     1
SMALL
USER_CHARGES


@<TRIPOS>ATOM
      1 C1         -37.0625 -39.3901   1.6073 C.2            1 noname             0.1635
      2 N1         -38.0257 -38.4000   1.5451 N.am           1 noname            -0.2225
      3 C2         -39.2949 -38.5039   1.0388 C.2            1 noname             0.2098
      4 C3         -39.7257 -39.8349   0.4225 C.3            1 noname             0.1150
      5 C4         -38.6465 -40.9095   0.5584 C.2            1 noname             0.0067
      6 C5         -37.4377 -40.6680   1.1031 C.2            1 noname             0.0922
      7 O1         -38.9934 -42.0911   0.0932 O.3            1 noname            -0.2878
      8 O2         -35.9562 -39.1171   2.0933 O.2            1 noname            -0.2627
      9 O3         -40.0470 -37.5393   1.1023 O.2            1 noname            -0.2565
     10 C6         -39.9577 -39.6353  -1.0977 C.3            1 noname            -0.0318
     11 C7         -40.9972 -40.2847   1.1739 C.ar           1 noname            -0.0457
     12 C8         -40.9757 -40.4847   2.5515 C.ar           1 noname            -0.0513
     13 C9         -42.1158 -40.8730   3.2354 C.ar           1 noname            -0.0590
     14 C10        -43.2980 -41.0760   2.5560 C.ar           1 noname            -0.0613
     15 C11        -43.3376 -40.8928   1.1903 C.ar           1 noname            -0.0590
     16 C12        -42.1988 -40.5032   0.5049 C.ar           1 noname            -0.0513
     17 C13        -38.7853 -39.0818  -1.8957 C.3            1 noname            -0.0636
     18 H1         -37.7650 -37.4912   1.9279 H              1 noname            -0.2225
     19 H2         -36.7209 -41.4805   1.1598 H              1 noname             0.0922
     20 H3         -38.2975 -42.7748   0.2504 H              1 noname            -0.2878
     21 H4         -40.8055 -38.9515  -1.2269 H              1 noname            -0.0318
     22 H5         -40.2468 -40.5995  -1.5335 H              1 noname            -0.0318
     23 H6         -40.0544 -40.3378   3.1052 H              1 noname            -0.0513
     24 H7         -42.0784 -41.0182   4.3100 H              1 noname            -0.0590
     25 H8         -44.1911 -41.3785   3.0926 H              1 noname            -0.0613
     26 H9         -44.2647 -41.0545   0.6502 H              1 noname            -0.0590
     27 H10        -42.2521 -40.3691  -0.5701 H              1 noname            -0.0513
     28 H11        -37.9422 -39.7684  -1.8823 H              1 noname            -0.0636
     29 H12        -39.0712 -38.9286  -2.9341 H              1 noname            -0.0636
     30 H13        -38.4526 -38.1270  -1.4950 H              1 noname            -0.0636
     31 ****       -39.1532 -42.0151  -0.8910 LP             1 noname             0.0000
     32 ****       -39.8367 -42.3803   0.5464 LP             1 noname             0.0000
     33 ****       -35.7728 -38.1943   2.4320 LP             1 noname             0.0000
     34 ****       -35.2466 -39.8197   2.1471 LP             1 noname             0.0000
     35 ****       -39.7328 -36.6870   1.5203 LP             1 noname             0.0000
     36 ****       -40.9752 -37.6042   0.7360 LP             1 noname             0.0000
@<TRIPOS>BOND
    1    1    2 am    
    2    1    6 1     
    3    1    8 2     
    4    2    3 am    
    5    4    3 1     
    6    3    9 2     
    7    4    5 1     
    8    4   10 1     
    9    4   11 1     
   10    5    6 2     
   11    5    7 1     
   12   10   17 1     
   13   11   12 ar    
   14   11   16 ar    
   15   12   13 ar    
   16   13   14 ar    
   17   14   15 ar    
   18   15   16 ar    
   19    2   18 1     
   20    6   19 1     
   21    7   20 1     
   22   10   21 1     
   23   10   22 1     
   24   12   23 1     
   25   13   24 1     
   26   14   25 1     
   27   15   26 1     
   28   16   27 1     
   29   17   28 1     
   30   17   29 1     
   31   17   30 1     
   32    7   31 1     
   33    7   32 1     
   34    8   33 1     
   35    8   34 1     
   36    9   35 1     
   37    9   36 1     
@<TRIPOS>SUBSTRUCTURE
      1 noname         1
@<TRIPOS>SET
LONE_PAIRS      STATIC     ATOMS    <user>   **** ""
6 31 32 33 34 35 36
DONOR_HYDROGENS      STATIC     ATOMS    <user>   **** ""
2 18 20
ATOM$BLUE        STATIC     ATOMS    COLORGROUP SYSTEM
6 31 32 33 34 35 36
ATOM$RED        STATIC     ATOMS    COLORGROUP SYSTEM
2 18 20
@<TRIPOS>COMMENT
> <Gold.Version>
2022.3.0

> <Gold.Id.Protein>
unknown|6c5f_clean|pdb

> <Gold.Protein.ActiveResidues>
 LEU49   SER50   GLN58   ILE95   LEU96   ILE97   ARG98   PRO1    PHE2    LEU3   
 LEU30   LYS32   PRO33   ASP35   ARG36   VAL37   ASN38   ILE61   SER62   SER63  
 ILE64   GLY65   VAL66   VAL67   PHE100  LEU102  GLU103  SER104  TRP105  GLN106 
 ILE107  GLY108  LYS109  ILE110  THR112  VAL113  PHE2    ILE61   SER62   SER63  
 ILE64   PHE2    PRO1    PHE2    PRO1    PHE2    LEU3    LEU96   ILE97   ARG98  
 PHE2    ARG36   VAL37   ASN38   PRO1    PRO1    VAL113  PHE2    LEU30   LYS32  
 PRO33   GLN106  ILE107  GLY108  LYS109  ILE110  ILE64   GLY65   VAL66   VAL67  
 GLN58   PRO1    PRO101  LEU102  GLU103  SER104  TRP105  PHE2    LEU49   SER50  
 PHE2   

> <Gold.Score>
     Fitness  S(hb_ext) S(vdw_ext)  S(hb_int)    S(int)      intcor
     34.26       1.31      24.79       0.00      -1.14      -2.15

> <Gold.Goldscore.Fitness>
34.2555

> <Gold.Goldscore.Internal.Vdw>
-2.8511

> <Gold.Goldscore.Internal.Torsion>
-0.4464

> <Gold.Goldscore.External.Vdw>
24.7915

> <Gold.Goldscore.Internal.HBond>
0.0000

> <Gold.Goldscore.External.HBond>
1.3119

> <Gold.Goldscore.Internal.Correction>
-2.1528

> <Gold.Goldscore.Reference.RMSD>
5.3766

> <Gold.Goldscore.Hbonds>
donor molecule, donor type, donor heavy atom, donor atom, acceptor molecule, acceptor atom, score
      L1  H     2    18       P1  2116  0.22

> <Gold.Goldscore.Internal.Vdw.Weighted>
-2.8511

> <Gold.Goldscore.Internal.Torsion.Weighted>
-0.4464

> <Gold.Goldscore.External.Vdw.Weighted>
34.0883

> <Gold.Goldscore.Internal.HBond.Weighted>
0.0000

> <Gold.Goldscore.External.HBond.Weighted>
1.3119

> <Gold.Goldscore.Internal.Correction.Weighted>
-2.1528

> <Gold.Rescore>
     Score         DG    S(hbond)    S(metal)    S(lipo)     H(rot)  DE(clash)    DE(int)     intcor
     11.06     -15.12       0.00        0.00     118.71       1.66       4.05       0.00       ----

> <Gold.Chemscore.Fitness>
11.0639

> <Gold.Chemscore.DG>
-15.1165

> <Gold.Chemscore.ZeroCoef>
-5.4800

> <Gold.Chemscore.Hbond>
0.0000

> <Gold.Chemscore.Metal>
0.0000

> <Gold.Chemscore.Lipo>
118.7077

> <Gold.Chemscore.Internal_Hbond>
0.0000

> <Gold.Chemscore.DEClash>
4.0480

> <Gold.Chemscore.DEInternal>
0.0046

> <Gold.Chemscore.Rot>
1.6611

> <Gold.Chemscore.Internal.Correction>
   9.000000E+99

> <Gold.Chemscore.Reference.RMSD>
0.0000

> <Gold.Chemscore.Hbond.Weighted>
-0.0000

> <Gold.Chemscore.Metal.Weighted>
-0.0000

> <Gold.Chemscore.Lipo.Weighted>
-13.8888

> <Gold.Chemscore.Internal_Hbond.Weighted>
0.0000

> <Gold.Chemscore.DEClash.Weighted>
4.0480

> <Gold.Chemscore.DEInternal.Weighted>
0.0046

> <Gold.Chemscore.Rot.Weighted>
4.2523

> <Gold.Chemscore.Internal.Correction.Weighted>
   9.000000E+99

> <Gold.Reference.RMSD>
5.3766

#       Name:                00000001
#       Creating user name   hitesit
#       Creation time:       Mon Feb 27 15:35:10 2023


#       File generated by GOLD software.
#

@<TRIPOS>MOLECULE
00000001|prep_AF_1_R|mol2|1|dock3
    36    37     1
SMALL
USER_CHARGES


@<TRIPOS>ATOM
      1 C1         -37.2305 -39.5671   1.6976 C.2            1 noname             0.1635
      2 N1         -38.1317 -38.5238   1.5920 N.am           1 noname            -0.2225
      3 C2         -39.3788 -38.5551   1.0248 C.2            1 noname             0.2098
      4 C3         -39.8543 -39.8592   0.3844 C.3            1 noname             0.1150
      5 C4         -38.8458 -40.9936   0.5689 C.2            1 noname             0.0067
      6 C5         -37.6529 -40.8215   1.1720 C.2            1 noname             0.0922
      7 O1         -39.2365 -42.1534   0.0840 O.3            1 noname            -0.2878
      8 O2         -36.1353 -39.3578   2.2373 O.2            1 noname            -0.2627
      9 O3         -40.0770 -37.5493   1.0548 O.2            1 noname            -0.2565
     10 C6         -40.0008 -39.6463  -1.1446 C.3            1 noname            -0.0318
     11 C7         -41.1842 -40.2361   1.0722 C.ar           1 noname            -0.0457
     12 C8         -42.3190 -40.5214   0.3177 C.ar           1 noname            -0.0513
     13 C9         -43.5117 -40.8755   0.9263 C.ar           1 noname            -0.0590
     14 C10        -43.5964 -40.9447   2.3005 C.ar           1 noname            -0.0613
     15 C11        -42.4868 -40.6563   3.0658 C.ar           1 noname            -0.0590
     16 C12        -41.2928 -40.3033   2.4588 C.ar           1 noname            -0.0513
     17 C13        -38.7854 -39.0871  -1.8709 C.3            1 noname            -0.0636
     18 H1         -37.8386 -37.6315   1.9897 H              1 noname            -0.2225
     19 H2         -36.9871 -41.6735   1.2608 H              1 noname             0.0922
     20 H3         -38.5778 -42.8707   0.2515 H              1 noname            -0.2878
     21 H4         -40.8398 -38.9607  -1.3151 H              1 noname            -0.0318
     22 H5         -40.2655 -40.6065  -1.6042 H              1 noname            -0.0318
     23 H6         -42.2769 -40.4660  -0.7649 H              1 noname            -0.0513
     24 H7         -44.3828 -41.0990   0.3193 H              1 noname            -0.0590
     25 H8         -44.5306 -41.2238   2.7766 H              1 noname            -0.0613
     26 H9         -42.5489 -40.7060   4.1479 H              1 noname            -0.0590
     27 H10        -40.4336 -40.0765   3.0807 H              1 noname            -0.0513
     28 H11        -37.9447 -39.7746  -1.8164 H              1 noname            -0.0636
     29 H12        -39.0127 -38.9247  -2.9224 H              1 noname            -0.0636
     30 H13        -38.4752 -38.1361  -1.4441 H              1 noname            -0.0636
     31 ****       -39.3680 -42.0615  -0.9031 LP             1 noname             0.0000
     32 ****       -40.1034 -42.4061   0.5137 LP             1 noname             0.0000
     33 ****       -35.9162 -38.4470   2.5872 LP             1 noname             0.0000
     34 ****       -35.4702 -40.0996   2.3231 LP             1 noname             0.0000
     35 ****       -39.7354 -36.7163   1.4901 LP             1 noname             0.0000
     36 ****       -40.9887 -37.5611   0.6440 LP             1 noname             0.0000
@<TRIPOS>BOND
    1    1    2 am    
    2    1    6 1     
    3    1    8 2     
    4    2    3 am    
    5    4    3 1     
    6    3    9 2     
    7    4    5 1     
    8    4   10 1     
    9    4   11 1     
   10    5    6 2     
   11    5    7 1     
   12   10   17 1     
   13   11   12 ar    
   14   11   16 ar    
   15   12   13 ar    
   16   13   14 ar    
   17   14   15 ar    
   18   15   16 ar    
   19    2   18 1     
   20    6   19 1     
   21    7   20 1     
   22   10   21 1     
   23   10   22 1     
   24   12   23 1     
   25   13   24 1     
   26   14   25 1     
   27   15   26 1     
   28   16   27 1     
   29   17   28 1     
   30   17   29 1     
   31   17   30 1     
   32    7   31 1     
   33    7   32 1     
   34    8   33 1     
   35    8   34 1     
   36    9   35 1     
   37    9   36 1     
@<TRIPOS>SUBSTRUCTURE
      1 noname         1
@<TRIPOS>SET
LONE_PAIRS      STATIC     ATOMS    <user>   **** ""
6 31 32 33 34 35 36
DONOR_HYDROGENS      STATIC     ATOMS    <user>   **** ""
2 18 20
ATOM$BLUE        STATIC     ATOMS    COLORGROUP SYSTEM
6 31 32 33 34 35 36
ATOM$RED        STATIC     ATOMS    COLORGROUP SYSTEM
2 18 20
@<TRIPOS>COMMENT
> <Gold.Version>
2022.3.0

> <Gold.Id.Protein>
unknown|6c5f_clean|pdb

> <Gold.Protein.ActiveResidues>
 LEU49   SER50   GLN58   ILE95   LEU96   ILE97   ARG98   PRO1    PHE2    LEU3   
 LEU30   LYS32   PRO33   ASP35   ARG36   VAL37   ASN38   ILE61   SER62   SER63  
 ILE64   GLY65   VAL66   VAL67   PHE100  LEU102  GLU103  SER104  TRP105  GLN106 
 ILE107  GLY108  LYS109  ILE110  THR112  VAL113  PHE2    ILE61   SER62   SER63  
 ILE64   PHE2    PRO1    PHE2    PRO1    PHE2    LEU3    LEU96   ILE97   ARG98  
 PHE2    ARG36   VAL37   ASN38   PRO1    PRO1    VAL113  PHE2    LEU30   LYS32  
 PRO33   GLN106  ILE107  GLY108  LYS109  ILE110  ILE64   GLY65   VAL66   VAL67  
 GLN58   PRO1    PRO101  LEU102  GLU103  SER104  TRP105  PHE2    LEU49   SER50  
 PHE2   

> <Gold.Score>
     Fitness  S(hb_ext) S(vdw_ext)  S(hb_int)    S(int)      intcor
     34.13       1.35      25.04       0.00      -1.65      -2.15

> <Gold.Goldscore.Fitness>
34.1313

> <Gold.Goldscore.Internal.Vdw>
-3.3318

> <Gold.Goldscore.Internal.Torsion>
-0.4717

> <Gold.Goldscore.External.Vdw>
25.0387

> <Gold.Goldscore.Internal.HBond>
0.0000

> <Gold.Goldscore.External.HBond>
1.3537

> <Gold.Goldscore.Internal.Correction>
-2.1528

> <Gold.Goldscore.Reference.RMSD>
5.1880

> <Gold.Goldscore.Hbonds>
donor molecule, donor type, donor heavy atom, donor atom, acceptor molecule, acceptor atom, score
      L1  H     2    18       P1  2116  0.23

> <Gold.Goldscore.Internal.Vdw.Weighted>
-3.3318

> <Gold.Goldscore.Internal.Torsion.Weighted>
-0.4717

> <Gold.Goldscore.External.Vdw.Weighted>
34.4283

> <Gold.Goldscore.Internal.HBond.Weighted>
0.0000

> <Gold.Goldscore.External.HBond.Weighted>
1.3537

> <Gold.Goldscore.Internal.Correction.Weighted>
-2.1528

> <Gold.Rescore>
     Score         DG    S(hbond)    S(metal)    S(lipo)     H(rot)  DE(clash)    DE(int)     intcor
     12.40     -15.86       0.00        0.00     125.07       1.66       3.34       0.13       ----

> <Gold.Chemscore.Fitness>
12.3977

> <Gold.Chemscore.DG>
-15.8609

> <Gold.Chemscore.ZeroCoef>
-5.4800

> <Gold.Chemscore.Hbond>
0.0000

> <Gold.Chemscore.Metal>
0.0000

> <Gold.Chemscore.Lipo>
125.0700

> <Gold.Chemscore.Internal_Hbond>
0.0000

> <Gold.Chemscore.DEClash>
3.3377

> <Gold.Chemscore.DEInternal>
0.1255

> <Gold.Chemscore.Rot>
1.6611

> <Gold.Chemscore.Internal.Correction>
   9.000000E+99

> <Gold.Chemscore.Reference.RMSD>
0.0000

> <Gold.Chemscore.Hbond.Weighted>
-0.0000

> <Gold.Chemscore.Metal.Weighted>
-0.0000

> <Gold.Chemscore.Lipo.Weighted>
-14.6332

> <Gold.Chemscore.Internal_Hbond.Weighted>
0.0000

> <Gold.Chemscore.DEClash.Weighted>
3.3377

> <Gold.Chemscore.DEInternal.Weighted>
0.1255

> <Gold.Chemscore.Rot.Weighted>
4.2523

> <Gold.Chemscore.Internal.Correction.Weighted>
   9.000000E+99

> <Gold.Reference.RMSD>
5.1880

#       Name:                00000001
#       Creating user name   hitesit
#       Creation time:       Mon Feb 27 15:35:19 2023


#       File generated by GOLD software.
#

@<TRIPOS>MOLECULE
00000001|prep_AF_1_R|mol2|1|dock8
    36    37     1
SMALL
USER_CHARGES


@<TRIPOS>ATOM
      1 C1         -37.5769 -42.4815   2.6854 C.2            1 noname             0.1635
      2 N1         -38.7308 -41.7552   2.9154 N.am           1 noname            -0.2225
      3 C2         -39.2102 -40.7005   2.1835 C.2            1 noname             0.2098
      4 C3         -38.3877 -40.2072   0.9930 C.3            1 noname             0.1150
      5 C4         -37.1490 -41.0703   0.7507 C.2            1 noname             0.0067
      6 C5         -36.8077 -42.1012   1.5489 C.2            1 noname             0.0922
      7 O1         -36.4384 -40.7195  -0.3004 O.3            1 noname            -0.2878
      8 O2         -37.2885 -43.4050   3.4592 O.2            1 noname            -0.2627
      9 O3         -40.2805 -40.1922   2.4937 O.2            1 noname            -0.2565
     10 C6         -37.8734 -38.7756   1.2937 C.3            1 noname            -0.0318
     11 C7         -39.3093 -40.2709  -0.2440 C.ar           1 noname            -0.0457
     12 C8         -39.1604 -39.3630  -1.2890 C.ar           1 noname            -0.0513
     13 C9         -39.9726 -39.4229  -2.4093 C.ar           1 noname            -0.0590
     14 C10        -40.9541 -40.3862  -2.5048 C.ar           1 noname            -0.0613
     15 C11        -41.1241 -41.2883  -1.4765 C.ar           1 noname            -0.0590
     16 C12        -40.3119 -41.2307  -0.3560 C.ar           1 noname            -0.0513
     17 C13        -38.9290 -37.6834   1.3963 C.3            1 noname            -0.0636
     18 H1         -39.2940 -42.0430   3.7156 H              1 noname            -0.2225
     19 H2         -35.9101 -42.6644   1.3160 H              1 noname             0.0922
     20 H3         -35.6436 -41.2935  -0.4241 H              1 noname            -0.2878
     21 H4         -37.1710 -38.4914   0.5008 H              1 noname            -0.0318
     22 H5         -37.3105 -38.8004   2.2348 H              1 noname            -0.0318
     23 H6         -38.3993 -38.5920  -1.2316 H              1 noname            -0.0513
     24 H7         -39.8362 -38.7088  -3.2147 H              1 noname            -0.0590
     25 H8         -41.5889 -40.4336  -3.3834 H              1 noname            -0.0613
     26 H9         -41.8973 -42.0465  -1.5451 H              1 noname            -0.0590
     27 H10        -40.4663 -41.9479   0.4429 H              1 noname            -0.0513
     28 H11        -39.6010 -37.8641   2.2319 H              1 noname            -0.0636
     29 H12        -38.4593 -36.7147   1.5526 H              1 noname            -0.0636
     30 H13        -39.5241 -37.6250   0.4878 H              1 noname            -0.0636
     31 ****       -36.1367 -39.7732  -0.1835 LP             1 noname             0.0000
     32 ****       -37.0142 -40.7874  -1.1152 LP             1 noname             0.0000
     33 ****       -37.8861 -43.6136   4.2335 LP             1 noname             0.0000
     34 ****       -36.4582 -43.9419   3.3096 LP             1 noname             0.0000
     35 ****       -40.7950 -40.5472   3.2742 LP             1 noname             0.0000
     36 ****       -40.6397 -39.4221   1.9666 LP             1 noname             0.0000
@<TRIPOS>BOND
    1    1    2 am    
    2    1    6 1     
    3    1    8 2     
    4    2    3 am    
    5    4    3 1     
    6    3    9 2     
    7    4    5 1     
    8    4   10 1     
    9    4   11 1     
   10    5    6 2     
   11    5    7 1     
   12   10   17 1     
   13   11   12 ar    
   14   11   16 ar    
   15   12   13 ar    
   16   13   14 ar    
   17   14   15 ar    
   18   15   16 ar    
   19    2   18 1     
   20    6   19 1     
   21    7   20 1     
   22   10   21 1     
   23   10   22 1     
   24   12   23 1     
   25   13   24 1     
   26   14   25 1     
   27   15   26 1     
   28   16   27 1     
   29   17   28 1     
   30   17   29 1     
   31   17   30 1     
   32    7   31 1     
   33    7   32 1     
   34    8   33 1     
   35    8   34 1     
   36    9   35 1     
   37    9   36 1     
@<TRIPOS>SUBSTRUCTURE
      1 noname         1
@<TRIPOS>SET
LONE_PAIRS      STATIC     ATOMS    <user>   **** ""
6 31 32 33 34 35 36
DONOR_HYDROGENS      STATIC     ATOMS    <user>   **** ""
2 18 20
ATOM$BLUE        STATIC     ATOMS    COLORGROUP SYSTEM
6 31 32 33 34 35 36
ATOM$RED        STATIC     ATOMS    COLORGROUP SYSTEM
2 18 20
@<TRIPOS>COMMENT
> <Gold.Version>
2022.3.0

> <Gold.Id.Protein>
unknown|6c5f_clean|pdb

> <Gold.Protein.ActiveResidues>
 LEU49   SER50   GLN58   ILE95   LEU96   ILE97   ARG98   PRO1    PHE2    LEU3   
 LEU30   LYS32   PRO33   ASP35   ARG36   VAL37   ASN38   ILE61   SER62   SER63  
 ILE64   GLY65   VAL66   VAL67   PHE100  LEU102  GLU103  SER104  TRP105  GLN106 
 ILE107  GLY108  LYS109  ILE110  THR112  VAL113  PHE2    ILE61   SER62   SER63  
 ILE64   PHE2    PRO1    PHE2    PRO1    PHE2    LEU3    LEU96   ILE97   ARG98  
 PHE2    ARG36   VAL37   ASN38   PRO1    PRO1    VAL113  PHE2    LEU30   LYS32  
 PRO33   GLN106  ILE107  GLY108  LYS109  ILE110  ILE64   GLY65   VAL66   VAL67  
 GLN58   PRO1    PRO101  LEU102  GLU103  SER104  TRP105  PHE2    LEU49   SER50  
 PHE2   

> <Gold.Score>
     Fitness  S(hb_ext) S(vdw_ext)  S(hb_int)    S(int)      intcor
     33.89       0.00      26.77       0.00      -2.91      -2.15

> <Gold.Goldscore.Fitness>
33.8949

> <Gold.Goldscore.Internal.Vdw>
-4.6172

> <Gold.Goldscore.Internal.Torsion>
-0.4434

> <Gold.Goldscore.External.Vdw>
26.7657

> <Gold.Goldscore.Internal.HBond>
0.0000

> <Gold.Goldscore.External.HBond>
0.0000

> <Gold.Goldscore.Internal.Correction>
-2.1528

> <Gold.Goldscore.Reference.RMSD>
4.9136

> <Gold.Goldscore.Internal.Vdw.Weighted>
-4.6172

> <Gold.Goldscore.Internal.Torsion.Weighted>
-0.4434

> <Gold.Goldscore.External.Vdw.Weighted>
36.8028

> <Gold.Goldscore.Internal.HBond.Weighted>
0.0000

> <Gold.Goldscore.External.HBond.Weighted>
0.0000

> <Gold.Goldscore.Internal.Correction.Weighted>
-2.1528

> <Gold.Rescore>
     Score         DG    S(hbond)    S(metal)    S(lipo)     H(rot)  DE(clash)    DE(int)     intcor
     14.83     -19.12       0.00        0.00     152.95       1.66       1.35       2.94       ----

> <Gold.Chemscore.Fitness>
14.8349

> <Gold.Chemscore.DG>
-19.1229

> <Gold.Chemscore.ZeroCoef>
-5.4800

> <Gold.Chemscore.Hbond>
0.0000

> <Gold.Chemscore.Metal>
0.0000

> <Gold.Chemscore.Lipo>
152.9507

> <Gold.Chemscore.Internal_Hbond>
0.0000

> <Gold.Chemscore.DEClash>
1.3480

> <Gold.Chemscore.DEInternal>
2.9401

> <Gold.Chemscore.Rot>
1.6611

> <Gold.Chemscore.Internal.Correction>
   9.000000E+99

> <Gold.Chemscore.Reference.RMSD>
0.0000

> <Gold.Chemscore.Hbond.Weighted>
-0.0000

> <Gold.Chemscore.Metal.Weighted>
-0.0000

> <Gold.Chemscore.Lipo.Weighted>
-17.8952

> <Gold.Chemscore.Internal_Hbond.Weighted>
0.0000

> <Gold.Chemscore.DEClash.Weighted>
1.3480

> <Gold.Chemscore.DEInternal.Weighted>
2.9401

> <Gold.Chemscore.Rot.Weighted>
4.2523

> <Gold.Chemscore.Internal.Correction.Weighted>
   9.000000E+99

> <Gold.Reference.RMSD>
4.9136

#       Name:                00000001
#       Creating user name   hitesit
#       Creation time:       Mon Feb 27 15:35:12 2023


#       File generated by GOLD software.
#

@<TRIPOS>MOLECULE
00000001|prep_AF_1_R|mol2|1|dock4
    36    37     1
SMALL
USER_CHARGES


@<TRIPOS>ATOM
      1 C1         -37.4077 -42.6300   2.5756 C.2            1 noname             0.1635
      2 N1         -38.5683 -41.9247   2.8352 N.am           1 noname            -0.2225
      3 C2         -39.0621 -40.8504   2.1425 C.2            1 noname             0.2098
      4 C3         -38.2498 -40.3068   0.9669 C.3            1 noname             0.1150
      5 C4         -37.0030 -41.1474   0.6899 C.2            1 noname             0.0067
      6 C5         -36.6473 -42.2018   1.4503 C.2            1 noname             0.0922
      7 O1         -36.3005 -40.7523  -0.3509 O.3            1 noname            -0.2878
      8 O2         -37.1062 -43.5768   3.3155 O.2            1 noname            -0.2627
      9 O3         -40.1364 -40.3649   2.4743 O.2            1 noname            -0.2565
     10 C6         -37.7497 -38.8811   1.3157 C.3            1 noname            -0.0318
     11 C7         -39.1757 -40.3372  -0.2682 C.ar           1 noname            -0.0457
     12 C8         -39.0494 -39.3840  -1.2751 C.ar           1 noname            -0.0513
     13 C9         -39.8655 -39.4133  -2.3937 C.ar           1 noname            -0.0590
     14 C10        -40.8285 -40.3909  -2.5254 C.ar           1 noname            -0.0613
     15 C11        -40.9762 -41.3380  -1.5348 C.ar           1 noname            -0.0590
     16 C12        -40.1600 -41.3111  -0.4160 C.ar           1 noname            -0.0513
     17 C13        -38.8165 -37.8046   1.4597 C.3            1 noname            -0.0636
     18 H1         -39.1251 -42.2464   3.6269 H              1 noname            -0.2225
     19 H2         -35.7447 -42.7467   1.1944 H              1 noname             0.0922
     20 H3         -35.5185 -41.3330  -0.5176 H              1 noname            -0.2878
     21 H4         -37.0532 -38.5619   0.5308 H              1 noname            -0.0318
     22 H5         -37.1830 -38.9326   2.2535 H              1 noname            -0.0318
     23 H6         -38.3032 -38.6013  -1.1886 H              1 noname            -0.0513
     24 H7         -39.7468 -38.6639  -3.1693 H              1 noname            -0.0590
     25 H8         -41.4663 -40.4143  -3.4028 H              1 noname            -0.0613
     26 H9         -41.7348 -42.1078  -1.6319 H              1 noname            -0.0590
     27 H10        -40.2967 -42.0637   0.3529 H              1 noname            -0.0513
     28 H11        -39.4835 -38.0214   2.2907 H              1 noname            -0.0636
     29 H12        -38.3565 -36.8368   1.6481 H              1 noname            -0.0636
     30 H13        -39.4155 -37.7210   0.5558 H              1 noname            -0.0636
     31 ****       -35.9793 -39.8196  -0.1869 LP             1 noname             0.0000
     32 ****       -36.8887 -40.7649  -1.1595 LP             1 noname             0.0000
     33 ****       -37.6983 -43.8188   4.0842 LP             1 noname             0.0000
     34 ****       -36.2708 -44.0990   3.1441 LP             1 noname             0.0000
     35 ****       -40.6440 -40.7526   3.2438 LP             1 noname             0.0000
     36 ****       -40.5061 -39.5808   1.9758 LP             1 noname             0.0000
@<TRIPOS>BOND
    1    1    2 am    
    2    1    6 1     
    3    1    8 2     
    4    2    3 am    
    5    4    3 1     
    6    3    9 2     
    7    4    5 1     
    8    4   10 1     
    9    4   11 1     
   10    5    6 2     
   11    5    7 1     
   12   10   17 1     
   13   11   12 ar    
   14   11   16 ar    
   15   12   13 ar    
   16   13   14 ar    
   17   14   15 ar    
   18   15   16 ar    
   19    2   18 1     
   20    6   19 1     
   21    7   20 1     
   22   10   21 1     
   23   10   22 1     
   24   12   23 1     
   25   13   24 1     
   26   14   25 1     
   27   15   26 1     
   28   16   27 1     
   29   17   28 1     
   30   17   29 1     
   31   17   30 1     
   32    7   31 1     
   33    7   32 1     
   34    8   33 1     
   35    8   34 1     
   36    9   35 1     
   37    9   36 1     
@<TRIPOS>SUBSTRUCTURE
      1 noname         1
@<TRIPOS>SET
LONE_PAIRS      STATIC     ATOMS    <user>   **** ""
6 31 32 33 34 35 36
DONOR_HYDROGENS      STATIC     ATOMS    <user>   **** ""
2 18 20
ATOM$BLUE        STATIC     ATOMS    COLORGROUP SYSTEM
6 31 32 33 34 35 36
ATOM$RED        STATIC     ATOMS    COLORGROUP SYSTEM
2 18 20
@<TRIPOS>COMMENT
> <Gold.Version>
2022.3.0

> <Gold.Id.Protein>
unknown|6c5f_clean|pdb

> <Gold.Protein.ActiveResidues>
 LEU49   SER50   GLN58   ILE95   LEU96   ILE97   ARG98   PRO1    PHE2    LEU3   
 LEU30   LYS32   PRO33   ASP35   ARG36   VAL37   ASN38   ILE61   SER62   SER63  
 ILE64   GLY65   VAL66   VAL67   PHE100  LEU102  GLU103  SER104  TRP105  GLN106 
 ILE107  GLY108  LYS109  ILE110  THR112  VAL113  PHE2    ILE61   SER62   SER63  
 ILE64   PHE2    PRO1    PHE2    PRO1    PHE2    LEU3    LEU96   ILE97   ARG98  
 PHE2    ARG36   VAL37   ASN38   PRO1    PRO1    VAL113  PHE2    LEU30   LYS32  
 PRO33   GLN106  ILE107  GLY108  LYS109  ILE110  ILE64   GLY65   VAL66   VAL67  
 GLN58   PRO1    PRO101  LEU102  GLU103  SER104  TRP105  PHE2    LEU49   SER50  
 PHE2   

> <Gold.Score>
     Fitness  S(hb_ext) S(vdw_ext)  S(hb_int)    S(int)      intcor
     33.76       0.00      26.77       0.00      -3.06      -2.15

> <Gold.Goldscore.Fitness>
33.7582

> <Gold.Goldscore.Internal.Vdw>
-4.7524

> <Gold.Goldscore.Internal.Torsion>
-0.4567

> <Gold.Goldscore.External.Vdw>
26.7742

> <Gold.Goldscore.Internal.HBond>
0.0000

> <Gold.Goldscore.External.HBond>
0.0000

> <Gold.Goldscore.Internal.Correction>
-2.1528

> <Gold.Goldscore.Reference.RMSD>
4.9810

> <Gold.Goldscore.Internal.Vdw.Weighted>
-4.7524

> <Gold.Goldscore.Internal.Torsion.Weighted>
-0.4567

> <Gold.Goldscore.External.Vdw.Weighted>
36.8145

> <Gold.Goldscore.Internal.HBond.Weighted>
0.0000

> <Gold.Goldscore.External.HBond.Weighted>
0.0000

> <Gold.Goldscore.Internal.Correction.Weighted>
-2.1528

> <Gold.Rescore>
     Score         DG    S(hbond)    S(metal)    S(lipo)     H(rot)  DE(clash)    DE(int)     intcor
     15.50     -19.17       0.00        0.00     153.36       1.66       1.77       1.90       ----

> <Gold.Chemscore.Fitness>
15.5001

> <Gold.Chemscore.DG>
-19.1710

> <Gold.Chemscore.ZeroCoef>
-5.4800

> <Gold.Chemscore.Hbond>
0.0000

> <Gold.Chemscore.Metal>
0.0000

> <Gold.Chemscore.Lipo>
153.3616

> <Gold.Chemscore.Internal_Hbond>
0.0000

> <Gold.Chemscore.DEClash>
1.7715

> <Gold.Chemscore.DEInternal>
1.8994

> <Gold.Chemscore.Rot>
1.6611

> <Gold.Chemscore.Internal.Correction>
   9.000000E+99

> <Gold.Chemscore.Reference.RMSD>
0.0000

> <Gold.Chemscore.Hbond.Weighted>
-0.0000

> <Gold.Chemscore.Metal.Weighted>
-0.0000

> <Gold.Chemscore.Lipo.Weighted>
-17.9433

> <Gold.Chemscore.Internal_Hbond.Weighted>
0.0000

> <Gold.Chemscore.DEClash.Weighted>
1.7715

> <Gold.Chemscore.DEInternal.Weighted>
1.8994

> <Gold.Chemscore.Rot.Weighted>
4.2523

> <Gold.Chemscore.Internal.Correction.Weighted>
   9.000000E+99

> <Gold.Reference.RMSD>
4.9810

#       Name:                00000001
#       Creating user name   hitesit
#       Creation time:       Mon Feb 27 15:35:22 2023


#       File generated by GOLD software.
#

@<TRIPOS>MOLECULE
00000001|prep_AF_1_R|mol2|1|dock10
    36    37     1
SMALL
USER_CHARGES


@<TRIPOS>ATOM
      1 C1         -37.1945 -39.2933   1.4507 C.2            1 noname             0.1635
      2 N1         -38.1612 -38.3151   1.3082 N.am           1 noname            -0.2225
      3 C2         -39.4423 -38.4716   0.8475 C.2            1 noname             0.2098
      4 C3         -39.8852 -39.8601   0.3861 C.3            1 noname             0.1150
      5 C4         -38.8004 -40.9146   0.6080 C.2            1 noname             0.0067
      6 C5         -37.5790 -40.6173   1.0938 C.2            1 noname             0.0922
      7 O1         -39.1560 -42.1387   0.2791 O.3            1 noname            -0.2878
      8 O2         -36.0771 -38.9709   1.8775 O.2            1 noname            -0.2627
      9 O3         -40.1948 -37.5054   0.8273 O.2            1 noname            -0.2565
     10 C6         -40.1552 -39.8222  -1.1403 C.3            1 noname            -0.0318
     11 C7         -41.1366 -40.2275   1.2123 C.ar           1 noname            -0.0457
     12 C8         -41.0675 -40.3331   2.5988 C.ar           1 noname            -0.0513
     13 C9         -42.1889 -40.6470   3.3487 C.ar           1 noname            -0.0590
     14 C10        -43.3998 -40.8684   2.7280 C.ar           1 noname            -0.0613
     15 C11        -43.4869 -40.7783   1.3552 C.ar           1 noname            -0.0590
     16 C12        -42.3668 -40.4632   0.6039 C.ar           1 noname            -0.0513
     17 C13        -38.9668 -39.4876  -2.0311 C.3            1 noname            -0.0636
     18 H1         -37.8932 -37.3710   1.5862 H              1 noname            -0.2225
     19 H2         -36.8592 -41.4195   1.2183 H              1 noname             0.0922
     20 H3         -38.4884 -42.8111   0.5596 H              1 noname            -0.2878
     21 H4         -40.9383 -39.0781  -1.3303 H              1 noname            -0.0318
     22 H5         -40.5514 -40.7982  -1.4463 H              1 noname            -0.0318
     23 H6         -40.1232 -40.1703   3.1074 H              1 noname            -0.0513
     24 H7         -42.1142 -40.7191   4.4287 H              1 noname            -0.0590
     25 H8         -44.2782 -41.1125   3.3161 H              1 noname            -0.0613
     26 H9         -44.4368 -40.9548   0.8614 H              1 noname            -0.0590
     27 H10        -42.4576 -40.4018  -0.4752 H              1 noname            -0.0513
     28 H11        -38.1931 -40.2480  -1.9556 H              1 noname            -0.0636
     29 H12        -39.2764 -39.4325  -3.0726 H              1 noname            -0.0636
     30 H13        -38.5295 -38.5294  -1.7600 H              1 noname            -0.0636
     31 ****       -39.2632 -42.1867  -0.7140 LP             1 noname             0.0000
     32 ****       -40.0290 -42.3492   0.7191 LP             1 noname             0.0000
     33 ****       -35.8875 -38.0174   2.1121 LP             1 noname             0.0000
     34 ****       -35.3647 -39.6640   1.9875 LP             1 noname             0.0000
     35 ****       -39.8724 -36.6138   1.1450 LP             1 noname             0.0000
     36 ****       -41.1317 -37.6083   0.4932 LP             1 noname             0.0000
@<TRIPOS>BOND
    1    1    2 am    
    2    1    6 1     
    3    1    8 2     
    4    2    3 am    
    5    4    3 1     
    6    3    9 2     
    7    4    5 1     
    8    4   10 1     
    9    4   11 1     
   10    5    6 2     
   11    5    7 1     
   12   10   17 1     
   13   11   12 ar    
   14   11   16 ar    
   15   12   13 ar    
   16   13   14 ar    
   17   14   15 ar    
   18   15   16 ar    
   19    2   18 1     
   20    6   19 1     
   21    7   20 1     
   22   10   21 1     
   23   10   22 1     
   24   12   23 1     
   25   13   24 1     
   26   14   25 1     
   27   15   26 1     
   28   16   27 1     
   29   17   28 1     
   30   17   29 1     
   31   17   30 1     
   32    7   31 1     
   33    7   32 1     
   34    8   33 1     
   35    8   34 1     
   36    9   35 1     
   37    9   36 1     
@<TRIPOS>SUBSTRUCTURE
      1 noname         1
@<TRIPOS>SET
LONE_PAIRS      STATIC     ATOMS    <user>   **** ""
6 31 32 33 34 35 36
DONOR_HYDROGENS      STATIC     ATOMS    <user>   **** ""
2 18 20
ATOM$BLUE        STATIC     ATOMS    COLORGROUP SYSTEM
6 31 32 33 34 35 36
ATOM$RED        STATIC     ATOMS    COLORGROUP SYSTEM
2 18 20
@<TRIPOS>COMMENT
> <Gold.Version>
2022.3.0

> <Gold.Id.Protein>
unknown|6c5f_clean|pdb

> <Gold.Protein.ActiveResidues>
 LEU49   SER50   GLN58   ILE95   LEU96   ILE97   ARG98   PRO1    PHE2    LEU3   
 LEU30   LYS32   PRO33   ASP35   ARG36   VAL37   ASN38   ILE61   SER62   SER63  
 ILE64   GLY65   VAL66   VAL67   PHE100  LEU102  GLU103  SER104  TRP105  GLN106 
 ILE107  GLY108  LYS109  ILE110  THR112  VAL113  PHE2    ILE61   SER62   SER63  
 ILE64   PHE2    PRO1    PHE2    PRO1    PHE2    LEU3    LEU96   ILE97   ARG98  
 PHE2    ARG36   VAL37   ASN38   PRO1    PRO1    VAL113  PHE2    LEU30   LYS32  
 PRO33   GLN106  ILE107  GLY108  LYS109  ILE110  ILE64   GLY65   VAL66   VAL67  
 GLN58   PRO1    PRO101  LEU102  GLU103  SER104  TRP105  PHE2    LEU49   SER50  
 PHE2   

> <Gold.Score>
     Fitness  S(hb_ext) S(vdw_ext)  S(hb_int)    S(int)      intcor
     33.59       0.00      25.15       0.00      -0.99      -2.15

> <Gold.Goldscore.Fitness>
33.5890

> <Gold.Goldscore.Internal.Vdw>
-2.5035

> <Gold.Goldscore.Internal.Torsion>
-0.6411

> <Gold.Goldscore.External.Vdw>
25.1497

> <Gold.Goldscore.Internal.HBond>
0.0000

> <Gold.Goldscore.External.HBond>
0.0000

> <Gold.Goldscore.Internal.Correction>
-2.1528

> <Gold.Goldscore.Reference.RMSD>
5.3479

> <Gold.Goldscore.Internal.Vdw.Weighted>
-2.5035

> <Gold.Goldscore.Internal.Torsion.Weighted>
-0.6411

> <Gold.Goldscore.External.Vdw.Weighted>
34.5808

> <Gold.Goldscore.Internal.HBond.Weighted>
0.0000

> <Gold.Goldscore.External.HBond.Weighted>
0.0000

> <Gold.Goldscore.Internal.Correction.Weighted>
-2.1528

> <Gold.Rescore>
     Score         DG    S(hbond)    S(metal)    S(lipo)     H(rot)  DE(clash)    DE(int)     intcor
     10.19     -14.42       0.00        0.00     112.76       1.66       4.22       0.01       ----

> <Gold.Chemscore.Fitness>
10.1901

> <Gold.Chemscore.DG>
-14.4208

> <Gold.Chemscore.ZeroCoef>
-5.4800

> <Gold.Chemscore.Hbond>
0.0000

> <Gold.Chemscore.Metal>
0.0000

> <Gold.Chemscore.Lipo>
112.7613

> <Gold.Chemscore.Internal_Hbond>
0.0000

> <Gold.Chemscore.DEClash>
4.2164

> <Gold.Chemscore.DEInternal>
0.0143

> <Gold.Chemscore.Rot>
1.6611

> <Gold.Chemscore.Internal.Correction>
   9.000000E+99

> <Gold.Chemscore.Reference.RMSD>
0.0000

> <Gold.Chemscore.Hbond.Weighted>
-0.0000

> <Gold.Chemscore.Metal.Weighted>
-0.0000

> <Gold.Chemscore.Lipo.Weighted>
-13.1931

> <Gold.Chemscore.Internal_Hbond.Weighted>
0.0000

> <Gold.Chemscore.DEClash.Weighted>
4.2164

> <Gold.Chemscore.DEInternal.Weighted>
0.0143

> <Gold.Chemscore.Rot.Weighted>
4.2523

> <Gold.Chemscore.Internal.Correction.Weighted>
   9.000000E+99

> <Gold.Reference.RMSD>
5.3479

#       Name:                00000001
#       Creating user name   hitesit
#       Creation time:       Mon Feb 27 15:35:21 2023


#       File generated by GOLD software.
#

@<TRIPOS>MOLECULE
00000001|prep_AF_1_R|mol2|1|dock9
    36    37     1
SMALL
USER_CHARGES


@<TRIPOS>ATOM
      1 C1         -39.2629 -39.5312  -1.7013 C.2            1 noname             0.1635
      2 N1         -39.7891 -40.8096  -1.6796 N.am           1 noname            -0.2225
      3 C2         -40.2651 -41.4955  -0.5929 C.2            1 noname             0.2098
      4 C3         -40.1863 -40.8284   0.7803 C.3            1 noname             0.1150
      5 C4         -39.6434 -39.4014   0.6979 C.2            1 noname             0.0067
      6 C5         -39.2267 -38.8424  -0.4554 C.2            1 noname             0.0922
      7 O1         -39.6108 -38.7641   1.8494 O.3            1 noname            -0.2878
      8 O2         -38.8686 -39.0660  -2.7797 O.2            1 noname            -0.2627
      9 O3         -40.7460 -42.6108  -0.7509 O.2            1 noname            -0.2565
     10 C6         -39.1975 -41.6236   1.6715 C.3            1 noname            -0.0318
     11 C7         -41.6223 -40.8008   1.3469 C.ar           1 noname            -0.0457
     12 C8         -42.7232 -40.8170   0.4948 C.ar           1 noname            -0.0513
     13 C9         -44.0147 -40.8082   0.9952 C.ar           1 noname            -0.0590
     14 C10        -44.2320 -40.7759   2.3561 C.ar           1 noname            -0.0613
     15 C11        -43.1552 -40.7494   3.2164 C.ar           1 noname            -0.0590
     16 C12        -41.8630 -40.7595   2.7178 C.ar           1 noname            -0.0513
     17 C13        -37.8229 -41.9010   1.0788 C.3            1 noname            -0.0636
     18 H1         -39.8370 -41.2939  -2.5759 H              1 noname            -0.2225
     19 H2         -38.8481 -37.8258  -0.4338 H              1 noname             0.0922
     20 H3         -39.2565 -37.8461   1.7597 H              1 noname            -0.2878
     21 H4         -39.6588 -42.5879   1.9174 H              1 noname            -0.0318
     22 H5         -39.0631 -41.0768   2.6129 H              1 noname            -0.0318
     23 H6         -42.5755 -40.8351  -0.5798 H              1 noname            -0.0513
     24 H7         -44.8586 -40.8265   0.3136 H              1 noname            -0.0590
     25 H8         -45.2439 -40.7707   2.7475 H              1 noname            -0.0613
     26 H9         -43.3207 -40.7206   4.2884 H              1 noname            -0.0590
     27 H10        -41.0309 -40.7340   3.4130 H              1 noname            -0.0513
     28 H11        -37.2777 -40.9768   0.9024 H              1 noname            -0.0636
     29 H12        -37.2315 -42.5096   1.7595 H              1 noname            -0.0636
     30 H13        -37.9021 -42.4345   0.1345 H              1 noname            -0.0636
     31 ****       -39.0280 -39.2735   2.4825 LP             1 noname             0.0000
     32 ****       -40.5396 -38.7160   2.2167 LP             1 noname             0.0000
     33 ****       -38.9340 -39.6133  -3.6141 LP             1 noname             0.0000
     34 ****       -38.4849 -38.1433  -2.8158 LP             1 noname             0.0000
     35 ****       -40.7883 -43.0121  -1.6659 LP             1 noname             0.0000
     36 ****       -41.0963 -43.1202   0.0351 LP             1 noname             0.0000
@<TRIPOS>BOND
    1    1    2 am    
    2    1    6 1     
    3    1    8 2     
    4    2    3 am    
    5    4    3 1     
    6    3    9 2     
    7    4    5 1     
    8    4   10 1     
    9    4   11 1     
   10    5    6 2     
   11    5    7 1     
   12   10   17 1     
   13   11   12 ar    
   14   11   16 ar    
   15   12   13 ar    
   16   13   14 ar    
   17   14   15 ar    
   18   15   16 ar    
   19    2   18 1     
   20    6   19 1     
   21    7   20 1     
   22   10   21 1     
   23   10   22 1     
   24   12   23 1     
   25   13   24 1     
   26   14   25 1     
   27   15   26 1     
   28   16   27 1     
   29   17   28 1     
   30   17   29 1     
   31   17   30 1     
   32    7   31 1     
   33    7   32 1     
   34    8   33 1     
   35    8   34 1     
   36    9   35 1     
   37    9   36 1     
@<TRIPOS>SUBSTRUCTURE
      1 noname         1
@<TRIPOS>SET
LONE_PAIRS      STATIC     ATOMS    <user>   **** ""
6 31 32 33 34 35 36
DONOR_HYDROGENS      STATIC     ATOMS    <user>   **** ""
2 18 20
ATOM$BLUE        STATIC     ATOMS    COLORGROUP SYSTEM
6 31 32 33 34 35 36
ATOM$RED        STATIC     ATOMS    COLORGROUP SYSTEM
2 18 20
@<TRIPOS>COMMENT
> <Gold.Version>
2022.3.0

> <Gold.Id.Protein>
unknown|6c5f_clean|pdb

> <Gold.Protein.ActiveResidues>
 LEU49   SER50   GLN58   ILE95   LEU96   ILE97   ARG98   PRO1    PHE2    LEU3   
 LEU30   LYS32   PRO33   ASP35   ARG36   VAL37   ASN38   ILE61   SER62   SER63  
 ILE64   GLY65   VAL66   VAL67   PHE100  LEU102  GLU103  SER104  TRP105  GLN106 
 ILE107  GLY108  LYS109  ILE110  THR112  VAL113  PHE2    ILE61   SER62   SER63  
 ILE64   PHE2    PRO1    PHE2    PRO1    PHE2    LEU3    LEU96   ILE97   ARG98  
 PHE2    ARG36   VAL37   ASN38   PRO1    PRO1    VAL113  PHE2    LEU30   LYS32  
 PRO33   GLN106  ILE107  GLY108  LYS109  ILE110  ILE64   GLY65   VAL66   VAL67  
 GLN58   PRO1    PRO101  LEU102  GLU103  SER104  TRP105  PHE2    LEU49   SER50  
 PHE2   

> <Gold.Score>
     Fitness  S(hb_ext) S(vdw_ext)  S(hb_int)    S(int)      intcor
     33.50       0.00      25.29       0.00      -1.27      -2.15

> <Gold.Goldscore.Fitness>
33.4973

> <Gold.Goldscore.Internal.Vdw>
-2.9254

> <Gold.Goldscore.Internal.Torsion>
-0.4971

> <Gold.Goldscore.External.Vdw>
25.2851

> <Gold.Goldscore.Internal.HBond>
0.0000

> <Gold.Goldscore.External.HBond>
0.0000

> <Gold.Goldscore.Internal.Correction>
-2.1528

> <Gold.Goldscore.Reference.RMSD>
4.6764

> <Gold.Goldscore.Internal.Vdw.Weighted>
-2.9254

> <Gold.Goldscore.Internal.Torsion.Weighted>
-0.4971

> <Gold.Goldscore.External.Vdw.Weighted>
34.7670

> <Gold.Goldscore.Internal.HBond.Weighted>
0.0000

> <Gold.Goldscore.External.HBond.Weighted>
0.0000

> <Gold.Goldscore.Internal.Correction.Weighted>
-2.1528

> <Gold.Rescore>
     Score         DG    S(hbond)    S(metal)    S(lipo)     H(rot)  DE(clash)    DE(int)     intcor
      9.10     -14.11       0.00        0.00     110.12       1.66       2.78       2.23       ----

> <Gold.Chemscore.Fitness>
9.0972

> <Gold.Chemscore.DG>
-14.1119

> <Gold.Chemscore.ZeroCoef>
-5.4800

> <Gold.Chemscore.Hbond>
0.0000

> <Gold.Chemscore.Metal>
0.0000

> <Gold.Chemscore.Lipo>
110.1210

> <Gold.Chemscore.Internal_Hbond>
0.0000

> <Gold.Chemscore.DEClash>
2.7845

> <Gold.Chemscore.DEInternal>
2.2301

> <Gold.Chemscore.Rot>
1.6611

> <Gold.Chemscore.Internal.Correction>
   9.000000E+99

> <Gold.Chemscore.Reference.RMSD>
0.0000

> <Gold.Chemscore.Hbond.Weighted>
-0.0000

> <Gold.Chemscore.Metal.Weighted>
-0.0000

> <Gold.Chemscore.Lipo.Weighted>
-12.8842

> <Gold.Chemscore.Internal_Hbond.Weighted>
0.0000

> <Gold.Chemscore.DEClash.Weighted>
2.7845

> <Gold.Chemscore.DEInternal.Weighted>
2.2301

> <Gold.Chemscore.Rot.Weighted>
4.2523

> <Gold.Chemscore.Internal.Correction.Weighted>
   9.000000E+99

> <Gold.Reference.RMSD>
4.6764

#       Name:                00000001
#       Creating user name   hitesit
#       Creation time:       Mon Feb 27 15:35:17 2023


#       File generated by GOLD software.
#

@<TRIPOS>MOLECULE
00000001|prep_AF_1_R|mol2|1|dock7
    36    37     1
SMALL
USER_CHARGES


@<TRIPOS>ATOM
      1 C1         -37.8372 -41.8434   2.5972 C.2            1 noname             0.1635
      2 N1         -39.0342 -41.1539   2.6591 N.am           1 noname            -0.2225
      3 C2         -39.5608 -40.3139   1.7131 C.2            1 noname             0.2098
      4 C3         -38.7483 -40.0435   0.4468 C.3            1 noname             0.1150
      5 C4         -37.4587 -40.8638   0.4029 C.2            1 noname             0.0067
      6 C5         -37.0724 -41.6745   1.4079 C.2            1 noname             0.0922
      7 O1         -36.7520 -40.7085  -0.6968 O.3            1 noname            -0.2878
      8 O2         -37.5095 -42.5578   3.5548 O.2            1 noname            -0.2627
      9 O3         -40.6632 -39.8144   1.9012 O.2            1 noname            -0.2565
     10 C6         -38.3213 -38.5529   0.4300 C.3            1 noname            -0.0318
     11 C7         -39.6443 -40.4289  -0.7500 C.ar           1 noname            -0.0457
     12 C8         -40.1699 -41.7135  -0.8600 C.ar           1 noname            -0.0513
     13 C9         -40.9872 -42.0629  -1.9222 C.ar           1 noname            -0.0590
     14 C10        -41.2900 -41.1385  -2.8990 C.ar           1 noname            -0.0613
     15 C11        -40.7714 -39.8641  -2.8135 C.ar           1 noname            -0.0590
     16 C12        -39.9550 -39.5125  -1.7513 C.ar           1 noname            -0.0513
     17 C13        -37.4417 -38.0864   1.5816 C.3            1 noname            -0.0636
     18 H1         -39.5932 -41.2936   3.5007 H              1 noname            -0.2225
     19 H2         -36.1405 -42.2208   1.3067 H              1 noname             0.0922
     20 H3         -35.9092 -41.2241  -0.6767 H              1 noname            -0.2878
     21 H4         -39.2292 -37.9375   0.4292 H              1 noname            -0.0318
     22 H5         -37.7921 -38.3548  -0.5102 H              1 noname            -0.0318
     23 H6         -39.9387 -42.4590  -0.1066 H              1 noname            -0.0513
     24 H7         -41.3906 -43.0681  -1.9859 H              1 noname            -0.0590
     25 H8         -41.9317 -41.4124  -3.7299 H              1 noname            -0.0613
     26 H9         -41.0039 -39.1336  -3.5814 H              1 noname            -0.0590
     27 H10        -39.5547 -38.5054  -1.7066 H              1 noname            -0.0513
     28 H11        -36.4822 -38.5981   1.5751 H              1 noname            -0.0636
     29 H12        -37.2481 -37.0187   1.5034 H              1 noname            -0.0636
     30 H13        -37.9191 -38.2714   2.5411 H              1 noname            -0.0636
     31 ****       -36.5333 -39.7387  -0.8044 LP             1 noname             0.0000
     32 ****       -37.2983 -41.0155  -1.4762 LP             1 noname             0.0000
     33 ****       -38.1069 -42.6280   4.3537 LP             1 noname             0.0000
     34 ****       -36.6477 -43.0643   3.5288 LP             1 noname             0.0000
     35 ****       -41.1695 -40.0210   2.7385 LP             1 noname             0.0000
     36 ****       -41.0570 -39.2000   1.2175 LP             1 noname             0.0000
@<TRIPOS>BOND
    1    1    2 am    
    2    1    6 1     
    3    1    8 2     
    4    2    3 am    
    5    4    3 1     
    6    3    9 2     
    7    4    5 1     
    8    4   10 1     
    9    4   11 1     
   10    5    6 2     
   11    5    7 1     
   12   10   17 1     
   13   11   12 ar    
   14   11   16 ar    
   15   12   13 ar    
   16   13   14 ar    
   17   14   15 ar    
   18   15   16 ar    
   19    2   18 1     
   20    6   19 1     
   21    7   20 1     
   22   10   21 1     
   23   10   22 1     
   24   12   23 1     
   25   13   24 1     
   26   14   25 1     
   27   15   26 1     
   28   16   27 1     
   29   17   28 1     
   30   17   29 1     
   31   17   30 1     
   32    7   31 1     
   33    7   32 1     
   34    8   33 1     
   35    8   34 1     
   36    9   35 1     
   37    9   36 1     
@<TRIPOS>SUBSTRUCTURE
      1 noname         1
@<TRIPOS>SET
LONE_PAIRS      STATIC     ATOMS    <user>   **** ""
6 31 32 33 34 35 36
DONOR_HYDROGENS      STATIC     ATOMS    <user>   **** ""
2 18 20
ATOM$BLUE        STATIC     ATOMS    COLORGROUP SYSTEM
6 31 32 33 34 35 36
ATOM$RED        STATIC     ATOMS    COLORGROUP SYSTEM
2 18 20
@<TRIPOS>COMMENT
> <Gold.Version>
2022.3.0

> <Gold.Id.Protein>
unknown|6c5f_clean|pdb

> <Gold.Protein.ActiveResidues>
 LEU49   SER50   GLN58   ILE95   LEU96   ILE97   ARG98   PRO1    PHE2    LEU3   
 LEU30   LYS32   PRO33   ASP35   ARG36   VAL37   ASN38   ILE61   SER62   SER63  
 ILE64   GLY65   VAL66   VAL67   PHE100  LEU102  GLU103  SER104  TRP105  GLN106 
 ILE107  GLY108  LYS109  ILE110  THR112  VAL113  PHE2    ILE61   SER62   SER63  
 ILE64   PHE2    PRO1    PHE2    PRO1    PHE2    LEU3    LEU96   ILE97   ARG98  
 PHE2    ARG36   VAL37   ASN38   PRO1    PRO1    VAL113  PHE2    LEU30   LYS32  
 PRO33   GLN106  ILE107  GLY108  LYS109  ILE110  ILE64   GLY65   VAL66   VAL67  
 GLN58   PRO1    PRO101  LEU102  GLU103  SER104  TRP105  PHE2    LEU49   SER50  
 PHE2   

> <Gold.Score>
     Fitness  S(hb_ext) S(vdw_ext)  S(hb_int)    S(int)      intcor
     33.27       0.00      24.88       0.00      -0.95      -2.15

> <Gold.Goldscore.Fitness>
33.2677

> <Gold.Goldscore.Internal.Vdw>
-2.7163

> <Gold.Goldscore.Internal.Torsion>
-0.3823

> <Gold.Goldscore.External.Vdw>
24.8826

> <Gold.Goldscore.Internal.HBond>
0.0000

> <Gold.Goldscore.External.HBond>
0.0000

> <Gold.Goldscore.Internal.Correction>
-2.1528

> <Gold.Goldscore.Reference.RMSD>
4.9602

> <Gold.Goldscore.Internal.Vdw.Weighted>
-2.7163

> <Gold.Goldscore.Internal.Torsion.Weighted>
-0.3823

> <Gold.Goldscore.External.Vdw.Weighted>
34.2135

> <Gold.Goldscore.Internal.HBond.Weighted>
0.0000

> <Gold.Goldscore.External.HBond.Weighted>
0.0000

> <Gold.Goldscore.Internal.Correction.Weighted>
-2.1528

> <Gold.Rescore>
     Score         DG    S(hbond)    S(metal)    S(lipo)     H(rot)  DE(clash)    DE(int)     intcor
     21.00     -21.87       0.64        0.00     158.31       1.66       0.87       0.00       ----

> <Gold.Chemscore.Fitness>
21.0003

> <Gold.Chemscore.DG>
-21.8717

> <Gold.Chemscore.ZeroCoef>
-5.4800

> <Gold.Chemscore.Hbond>
0.6353

> <Gold.Chemscore.Metal>
0.0000

> <Gold.Chemscore.Lipo>
158.3093

> <Gold.Chemscore.Internal_Hbond>
0.0000

> <Gold.Chemscore.DEClash>
0.8674

> <Gold.Chemscore.DEInternal>
0.0041

> <Gold.Chemscore.Rot>
1.6611

> <Gold.Chemscore.Internal.Correction>
   9.000000E+99

> <Gold.Chemscore.Reference.RMSD>
0.0000

> <Gold.Chemscore.Hbond.Weighted>
-2.1218

> <Gold.Chemscore.Metal.Weighted>
-0.0000

> <Gold.Chemscore.Lipo.Weighted>
-18.5222

> <Gold.Chemscore.Internal_Hbond.Weighted>
0.0000

> <Gold.Chemscore.DEClash.Weighted>
0.8674

> <Gold.Chemscore.DEInternal.Weighted>
0.0041

> <Gold.Chemscore.Rot.Weighted>
4.2523

> <Gold.Chemscore.Internal.Correction.Weighted>
   9.000000E+99

> <Gold.Reference.RMSD>
4.9602

