#       Name:                00000001
#       Creating user name   hitesit
#       Creation time:       Thu Mar  2 16:48:38 2023


#       File generated by GOLD software.
#

@<TRIPOS>MOLECULE
00000001|prep_AF_1_R|mol2|1|dock1
    36    37     1
SMALL
USER_CHARGES


@<TRIPOS>ATOM
      1 C1         -36.8291 -41.8518   1.2303 C.2            1 noname             0.1635
      2 N1         -38.0069 -42.6102   1.3377 N.am           1 noname            -0.2225
      3 C2         -39.2691 -42.1100   1.1406 C.2            1 noname             0.2098
      4 C3         -39.4508 -40.6668   0.6943 C.3            1 noname             0.1150
      5 C4         -38.1667 -39.9459   0.3871 C.2            1 noname             0.0067
      6 C5         -36.9848 -40.5160   0.6527 C.2            1 noname             0.0922
      7 O1         -38.2742 -38.7448  -0.1411 O.3            1 noname            -0.2878
      8 O2         -35.7614 -42.3495   1.6136 O.2            1 noname            -0.2627
      9 O3         -40.2187 -42.8612   1.3253 O.2            1 noname            -0.2565
     10 C6         -40.1245 -39.8890   1.8542 C.3            1 noname            -0.0318
     11 C7         -40.3230 -40.7291  -0.5782 C.ar           1 noname            -0.0457
     12 C8         -39.8286 -41.2909  -1.7523 C.ar           1 noname            -0.0513
     13 C9         -40.6098 -41.3648  -2.8936 C.ar           1 noname            -0.0590
     14 C10        -41.8974 -40.8726  -2.8870 C.ar           1 noname            -0.0613
     15 C11        -42.4022 -40.3035  -1.7374 C.ar           1 noname            -0.0590
     16 C12        -41.6229 -40.2300  -0.5946 C.ar           1 noname            -0.0513
     17 C13        -41.3677 -40.5221   2.4634 C.3            1 noname            -0.0636
     18 H1         -37.9182 -43.5926   1.5768 H              1 noname            -0.2225
     19 H2         -36.0826 -39.9504   0.4247 H              1 noname             0.0922
     20 H3         -37.4898 -38.5066  -0.6929 H              1 noname            -0.2878
     21 H4         -40.4005 -38.8943   1.4835 H              1 noname            -0.0318
     22 H5         -39.3845 -39.7463   2.6513 H              1 noname            -0.0318
     23 H6         -38.8154 -41.6777  -1.7821 H              1 noname            -0.0513
     24 H7         -40.2066 -41.8113  -3.7965 H              1 noname            -0.0590
     25 H8         -42.5094 -40.9323  -3.7808 H              1 noname            -0.0613
     26 H9         -43.4139 -39.9117  -1.7276 H              1 noname            -0.0590
     27 H10        -42.0391 -39.7742   0.2974 H              1 noname            -0.0513
     28 H11        -41.1332 -41.4740   2.9337 H              1 noname            -0.0636
     29 H12        -41.7907 -39.8714   3.2258 H              1 noname            -0.0636
     30 H13        -42.1314 -40.6948   1.7086 H              1 noname            -0.0636
     31 ****       -38.3636 -38.0757   0.5968 LP             1 noname             0.0000
     32 ****       -39.0920 -38.7182  -0.7160 LP             1 noname             0.0000
     33 ****       -35.7484 -43.2753   1.9913 LP             1 noname             0.0000
     34 ****       -34.9125 -41.8253   1.5453 LP             1 noname             0.0000
     35 ****       -40.0604 -43.8064   1.6107 LP             1 noname             0.0000
     36 ****       -41.1524 -42.5292   1.1908 LP             1 noname             0.0000
@<TRIPOS>BOND
    1    1    2 am    
    2    1    6 1     
    3    1    8 2     
    4    2    3 am    
    5    4    3 1     
    6    3    9 2     
    7    4    5 1     
    8    4   10 1     
    9    4   11 1     
   10    5    6 2     
   11    5    7 1     
   12   10   17 1     
   13   11   12 ar    
   14   11   16 ar    
   15   12   13 ar    
   16   13   14 ar    
   17   14   15 ar    
   18   15   16 ar    
   19    2   18 1     
   20    6   19 1     
   21    7   20 1     
   22   10   21 1     
   23   10   22 1     
   24   12   23 1     
   25   13   24 1     
   26   14   25 1     
   27   15   26 1     
   28   16   27 1     
   29   17   28 1     
   30   17   29 1     
   31   17   30 1     
   32    7   31 1     
   33    7   32 1     
   34    8   33 1     
   35    8   34 1     
   36    9   35 1     
   37    9   36 1     
@<TRIPOS>SUBSTRUCTURE
      1 noname         1
@<TRIPOS>SET
LONE_PAIRS      STATIC     ATOMS    <user>   **** ""
6 31 32 33 34 35 36
DONOR_HYDROGENS      STATIC     ATOMS    <user>   **** ""
2 18 20
ATOM$BLUE        STATIC     ATOMS    COLORGROUP SYSTEM
6 31 32 33 34 35 36
ATOM$RED        STATIC     ATOMS    COLORGROUP SYSTEM
2 18 20
@<TRIPOS>COMMENT
> <Gold.Version>
2022.3.0

> <Gold.Id.Protein>
unknown|6c5f_clean|pdb

> <Gold.Protein.ActiveResidues>
 LEU49   SER50   GLN58   ILE95   LEU96   ILE97   ARG98   PRO1    PHE2    LEU3   
 LEU30   LYS32   PRO33   ASP35   ARG36   VAL37   ASN38   ILE61   SER62   SER63  
 ILE64   GLY65   VAL66   VAL67   PHE100  LEU102  GLU103  SER104  TRP105  GLN106 
 ILE107  GLY108  LYS109  ILE110  THR112  VAL113  PRO1    GLN58   PHE2    LEU96  
 LEU30   LYS32   PRO33   PHE2    PRO1    PRO101  LEU102  GLU103  VAL37   ASN38  
 LEU49   SER50   ILE61   SER62   SER63   ILE64   ILE64   GLY65   VAL66   VAL67  
 PRO33   ARG36   VAL37   PRO1    SER104  TRP105  GLN106  ILE107  GLY108  LYS109 
 ILE110  PRO1    PHE2    LEU3    ILE110  VAL113  LEU96   ILE97   ARG98   PHE2   
 PRO1   

> <Gold.Score>
     Score     S(PLP)   S(hbond)     S(cho)   S(metal)  DE(clash)   DE(tors)     intcor
     41.96     -39.25       1.00       0.00       0.00       0.00       0.16       0.02

> <Gold.PLP.Fitness>
41.9605

> <Gold.PLP.PLP>
-39.2525

> <Gold.PLP.part.hbond>
-1.0000

> <Gold.PLP.part.metal>
0.0000

> <Gold.PLP.part.buried>
-4.0107

> <Gold.PLP.part.nonpolar>
-34.5280

> <Gold.PLP.part.repulsive>
0.1589

> <Gold.PLP.ligand.clash>
0.0000

> <Gold.PLP.ligand.torsion>
0.1553

> <Gold.PLP.Chemscore.Hbond>
1.0000

> <Gold.PLP.Chemscore.CHOScore>
0.0000

> <Gold.PLP.Chemscore.Metal>
0.0000

> <Gold.Chemscore.Hbonds>
donor molecule, donor type, donor heavy atom, donor atom, acceptor molecule, acceptor atom, score
      L1  H     7    20       P1  1669  1.00

> <Gold.PLP.Chemscore.Internal.Correction>
0.0185

> <Gold.PLP.Reference.RMSD>
4.8153

> <Gold.Rescore>
     Score         DG    S(hbond)    S(metal)    S(lipo)     H(rot)  DE(clash)    DE(int)     intcor
     19.13     -20.71       0.95        0.00     139.54       1.66       0.15       1.44       ----

> <Gold.Chemscore.Fitness>
19.1269

> <Gold.Chemscore.DG>
-20.7135

> <Gold.Chemscore.ZeroCoef>
-5.4800

> <Gold.Chemscore.Hbond>
0.9462

> <Gold.Chemscore.Metal>
0.0000

> <Gold.Chemscore.Lipo>
139.5351

> <Gold.Chemscore.Internal_Hbond>
0.0000

> <Gold.Chemscore.DEClash>
0.1453

> <Gold.Chemscore.DEInternal>
1.4412

> <Gold.Chemscore.Rot>
1.6611

> <Gold.Chemscore.Internal.Correction>
   9.000000E+99

> <Gold.Chemscore.Reference.RMSD>
0.0000

> <Gold.Chemscore.Hbonds>
donor molecule, donor type, donor heavy atom, donor atom, acceptor molecule, acceptor atom, score
      L1  H     7    20       P1  1669  0.23

> <Gold.Chemscore.Hbond.Weighted>
-3.1602

> <Gold.Chemscore.Metal.Weighted>
-0.0000

> <Gold.Chemscore.Lipo.Weighted>
-16.3256

> <Gold.Chemscore.Internal_Hbond.Weighted>
0.0000

> <Gold.Chemscore.DEClash.Weighted>
0.1453

> <Gold.Chemscore.DEInternal.Weighted>
1.4412

> <Gold.Chemscore.Rot.Weighted>
4.2523

> <Gold.Chemscore.Internal.Correction.Weighted>
   9.000000E+99

> <Gold.Reference.RMSD>
4.8153

#       Name:                00000001
#       Creating user name   hitesit
#       Creation time:       Thu Mar  2 16:48:42 2023


#       File generated by GOLD software.
#

@<TRIPOS>MOLECULE
00000001|prep_AF_1_R|mol2|1|dock9
    36    37     1
SMALL
USER_CHARGES


@<TRIPOS>ATOM
      1 C1         -36.8782 -41.9556   1.2776 C.2            1 noname             0.1635
      2 N1         -38.0841 -42.6703   1.3718 N.am           1 noname            -0.2225
      3 C2         -39.3254 -42.1220   1.1701 C.2            1 noname             0.2098
      4 C3         -39.4503 -40.6700   0.7331 C.3            1 noname             0.1150
      5 C4         -38.1382 -39.9953   0.4397 C.2            1 noname             0.0067
      6 C5         -36.9801 -40.6109   0.7088 C.2            1 noname             0.0922
      7 O1         -38.1973 -38.7873  -0.0805 O.3            1 noname            -0.2878
      8 O2         -35.8323 -42.4953   1.6643 O.2            1 noname            -0.2627
      9 O3         -40.3036 -42.8386   1.3431 O.2            1 noname            -0.2565
     10 C6         -40.1024 -39.8758   1.8943 C.3            1 noname            -0.0318
     11 C7         -40.3155 -40.6908  -0.5454 C.ar           1 noname            -0.0457
     12 C8         -41.5767 -40.1012  -0.5601 C.ar           1 noname            -0.0513
     13 C9         -42.3528 -40.1018  -1.7073 C.ar           1 noname            -0.0590
     14 C10        -41.8877 -40.6976  -2.8601 C.ar           1 noname            -0.0613
     15 C11        -40.6457 -41.2955  -2.8635 C.ar           1 noname            -0.0590
     16 C12        -39.8676 -41.2946  -1.7175 C.ar           1 noname            -0.0513
     17 C13        -41.3827 -40.4567   2.4783 C.3            1 noname            -0.0636
     18 H1         -38.0336 -43.6570   1.6043 H              1 noname            -0.2225
     19 H2         -36.0559 -40.0776   0.4908 H              1 noname             0.0922
     20 H3         -37.7319 -38.7307  -0.9503 H              1 noname            -0.2878
     21 H4         -40.3258 -38.8645   1.5332 H              1 noname            -0.0318
     22 H5         -39.3677 -39.7787   2.7030 H              1 noname            -0.0318
     23 H6         -41.9656 -39.6331   0.3381 H              1 noname            -0.0513
     24 H7         -43.3308 -39.6320  -1.6985 H              1 noname            -0.0590
     25 H8         -42.4955 -40.6963  -3.7589 H              1 noname            -0.0613
     26 H9         -40.2762 -41.7687  -3.7672 H              1 noname            -0.0590
     27 H10        -38.8953 -41.7748  -1.7417 H              1 noname            -0.0513
     28 H11        -41.2002 -41.4246   2.9389 H              1 noname            -0.0636
     29 H12        -41.7850 -39.7964   3.2436 H              1 noname            -0.0636
     30 H13        -42.1431 -40.5832   1.7111 H              1 noname            -0.0636
     31 ****       -37.7719 -38.1425   0.5545 LP             1 noname             0.0000
     32 ****       -39.1574 -38.5406  -0.2127 LP             1 noname             0.0000
     33 ****       -35.8563 -43.4236   2.0353 LP             1 noname             0.0000
     34 ****       -34.9641 -42.0027   1.6053 LP             1 noname             0.0000
     35 ****       -40.1824 -43.7911   1.6226 LP             1 noname             0.0000
     36 ****       -41.2233 -42.4712   1.2049 LP             1 noname             0.0000
@<TRIPOS>BOND
    1    1    2 am    
    2    1    6 1     
    3    1    8 2     
    4    2    3 am    
    5    4    3 1     
    6    3    9 2     
    7    4    5 1     
    8    4   10 1     
    9    4   11 1     
   10    5    6 2     
   11    5    7 1     
   12   10   17 1     
   13   11   12 ar    
   14   11   16 ar    
   15   12   13 ar    
   16   13   14 ar    
   17   14   15 ar    
   18   15   16 ar    
   19    2   18 1     
   20    6   19 1     
   21    7   20 1     
   22   10   21 1     
   23   10   22 1     
   24   12   23 1     
   25   13   24 1     
   26   14   25 1     
   27   15   26 1     
   28   16   27 1     
   29   17   28 1     
   30   17   29 1     
   31   17   30 1     
   32    7   31 1     
   33    7   32 1     
   34    8   33 1     
   35    8   34 1     
   36    9   35 1     
   37    9   36 1     
@<TRIPOS>SUBSTRUCTURE
      1 noname         1
@<TRIPOS>SET
LONE_PAIRS      STATIC     ATOMS    <user>   **** ""
6 31 32 33 34 35 36
DONOR_HYDROGENS      STATIC     ATOMS    <user>   **** ""
2 18 20
ATOM$BLUE        STATIC     ATOMS    COLORGROUP SYSTEM
6 31 32 33 34 35 36
ATOM$RED        STATIC     ATOMS    COLORGROUP SYSTEM
2 18 20
@<TRIPOS>COMMENT
> <Gold.Version>
2022.3.0

> <Gold.Id.Protein>
unknown|6c5f_clean|pdb

> <Gold.Protein.ActiveResidues>
 LEU49   SER50   GLN58   ILE95   LEU96   ILE97   ARG98   PRO1    PHE2    LEU3   
 LEU30   LYS32   PRO33   ASP35   ARG36   VAL37   ASN38   ILE61   SER62   SER63  
 ILE64   GLY65   VAL66   VAL67   PHE100  LEU102  GLU103  SER104  TRP105  GLN106 
 ILE107  GLY108  LYS109  ILE110  THR112  VAL113  PRO1    GLN58   PHE2    LEU96  
 LEU30   LYS32   PRO33   PHE2    PRO1    PRO101  LEU102  GLU103  VAL37   ASN38  
 LEU49   SER50   ILE61   SER62   SER63   ILE64   ILE64   GLY65   VAL66   VAL67  
 PRO33   ARG36   VAL37   PRO1    SER104  TRP105  GLN106  ILE107  GLY108  LYS109 
 ILE110  PRO1    PHE2    LEU3    ILE110  VAL113  LEU96   ILE97   ARG98   PHE2   
 PRO1   

> <Gold.Score>
     Score     S(PLP)   S(hbond)     S(cho)   S(metal)  DE(clash)   DE(tors)     intcor
     41.94     -39.10       1.00       0.00       0.00       0.00       0.09       0.02

> <Gold.PLP.Fitness>
41.9424

> <Gold.PLP.PLP>
-39.1013

> <Gold.PLP.part.hbond>
-1.0000

> <Gold.PLP.part.metal>
0.0000

> <Gold.PLP.part.buried>
-4.5900

> <Gold.PLP.part.nonpolar>
-33.9318

> <Gold.PLP.part.repulsive>
0.1548

> <Gold.PLP.ligand.clash>
0.0000

> <Gold.PLP.ligand.torsion>
0.0888

> <Gold.PLP.Chemscore.Hbond>
1.0000

> <Gold.PLP.Chemscore.CHOScore>
0.0000

> <Gold.PLP.Chemscore.Metal>
0.0000

> <Gold.Chemscore.Hbonds>
donor molecule, donor type, donor heavy atom, donor atom, acceptor molecule, acceptor atom, score
      L1  H     7    20       P1  1669  1.00

> <Gold.PLP.Chemscore.Internal.Correction>
0.0185

> <Gold.PLP.Reference.RMSD>
4.8463

> <Gold.Rescore>
     Score         DG    S(hbond)    S(metal)    S(lipo)     H(rot)  DE(clash)    DE(int)     intcor
     18.94     -20.41       0.75        0.00     142.44       1.66       0.05       1.41       ----

> <Gold.Chemscore.Fitness>
18.9449

> <Gold.Chemscore.DG>
-20.4125

> <Gold.Chemscore.ZeroCoef>
-5.4800

> <Gold.Chemscore.Hbond>
0.7542

> <Gold.Chemscore.Metal>
0.0000

> <Gold.Chemscore.Lipo>
142.4426

> <Gold.Chemscore.Internal_Hbond>
0.0000

> <Gold.Chemscore.DEClash>
0.0529

> <Gold.Chemscore.DEInternal>
1.4147

> <Gold.Chemscore.Rot>
1.6611

> <Gold.Chemscore.Internal.Correction>
   9.000000E+99

> <Gold.Chemscore.Reference.RMSD>
0.0000

> <Gold.Chemscore.Hbonds>
donor molecule, donor type, donor heavy atom, donor atom, acceptor molecule, acceptor atom, score
      L1  H     7    20       P1  1669  0.42

> <Gold.Chemscore.Hbond.Weighted>
-2.5191

> <Gold.Chemscore.Metal.Weighted>
-0.0000

> <Gold.Chemscore.Lipo.Weighted>
-16.6658

> <Gold.Chemscore.Internal_Hbond.Weighted>
0.0000

> <Gold.Chemscore.DEClash.Weighted>
0.0529

> <Gold.Chemscore.DEInternal.Weighted>
1.4147

> <Gold.Chemscore.Rot.Weighted>
4.2523

> <Gold.Chemscore.Internal.Correction.Weighted>
   9.000000E+99

> <Gold.Reference.RMSD>
4.8463

#       Name:                00000001
#       Creating user name   hitesit
#       Creation time:       Thu Mar  2 16:48:40 2023


#       File generated by GOLD software.
#

@<TRIPOS>MOLECULE
00000001|prep_AF_1_R|mol2|1|dock5
    36    37     1
SMALL
USER_CHARGES


@<TRIPOS>ATOM
      1 C1         -36.7953 -41.7967   1.2149 C.2            1 noname             0.1635
      2 N1         -37.9659 -42.5645   1.3338 N.am           1 noname            -0.2225
      3 C2         -39.2334 -42.0765   1.1403 C.2            1 noname             0.2098
      4 C3         -39.4300 -40.6380   0.6854 C.3            1 noname             0.1150
      5 C4         -38.1539 -39.9081   0.3664 C.2            1 noname             0.0067
      6 C5         -36.9656 -40.4662   0.6293 C.2            1 noname             0.0922
      7 O1         -38.2747 -38.7115  -0.1693 O.3            1 noname            -0.2878
      8 O2         -35.7212 -42.2825   1.5957 O.2            1 noname            -0.2627
      9 O3         -40.1754 -42.8346   1.3353 O.2            1 noname            -0.2565
     10 C6         -40.1041 -39.8582   1.8438 C.3            1 noname            -0.0318
     11 C7         -40.3085 -40.7164  -0.5818 C.ar           1 noname            -0.0457
     12 C8         -39.8230 -41.3008  -1.7485 C.ar           1 noname            -0.0513
     13 C9         -40.6100 -41.3891  -2.8848 C.ar           1 noname            -0.0590
     14 C10        -41.8946 -40.8891  -2.8806 C.ar           1 noname            -0.0613
     15 C11        -42.3906 -40.2978  -1.7384 C.ar           1 noname            -0.0590
     16 C12        -41.6054 -40.2098  -0.6007 C.ar           1 noname            -0.0513
     17 C13        -41.3476 -40.4903   2.4535 C.3            1 noname            -0.0636
     18 H1         -37.8673 -43.5444   1.5791 H              1 noname            -0.2225
     19 H2         -36.0696 -39.8943   0.3925 H              1 noname             0.0922
     20 H3         -37.5294 -38.4984  -0.7822 H              1 noname            -0.2878
     21 H4         -40.3799 -38.8641   1.4713 H              1 noname            -0.0318
     22 H5         -39.3644 -39.7142   2.6409 H              1 noname            -0.0318
     23 H6         -38.8123 -41.6942  -1.7765 H              1 noname            -0.0513
     24 H7         -40.2138 -41.8532  -3.7819 H              1 noname            -0.0590
     25 H8         -42.5111 -40.9601  -3.7705 H              1 noname            -0.0613
     26 H9         -43.3999 -39.8997  -1.7306 H              1 noname            -0.0590
     27 H10        -42.0147 -39.7366   0.2854 H              1 noname            -0.0513
     28 H11        -41.1133 -41.4414   2.9255 H              1 noname            -0.0636
     29 H12        -41.7708 -39.8383   3.2147 H              1 noname            -0.0636
     30 H13        -42.1110 -40.6642   1.6987 H              1 noname            -0.0636
     31 ****       -38.2930 -38.0314   0.5636 LP             1 noname             0.0000
     32 ****       -39.1329 -38.6733  -0.6810 LP             1 noname             0.0000
     33 ****       -35.6981 -43.2056   1.9795 LP             1 noname             0.0000
     34 ****       -34.8773 -41.7515   1.5192 LP             1 noname             0.0000
     35 ****       -40.0073 -43.7765   1.6262 LP             1 noname             0.0000
     36 ****       -41.1126 -42.5116   1.2037 LP             1 noname             0.0000
@<TRIPOS>BOND
    1    1    2 am    
    2    1    6 1     
    3    1    8 2     
    4    2    3 am    
    5    4    3 1     
    6    3    9 2     
    7    4    5 1     
    8    4   10 1     
    9    4   11 1     
   10    5    6 2     
   11    5    7 1     
   12   10   17 1     
   13   11   12 ar    
   14   11   16 ar    
   15   12   13 ar    
   16   13   14 ar    
   17   14   15 ar    
   18   15   16 ar    
   19    2   18 1     
   20    6   19 1     
   21    7   20 1     
   22   10   21 1     
   23   10   22 1     
   24   12   23 1     
   25   13   24 1     
   26   14   25 1     
   27   15   26 1     
   28   16   27 1     
   29   17   28 1     
   30   17   29 1     
   31   17   30 1     
   32    7   31 1     
   33    7   32 1     
   34    8   33 1     
   35    8   34 1     
   36    9   35 1     
   37    9   36 1     
@<TRIPOS>SUBSTRUCTURE
      1 noname         1
@<TRIPOS>SET
LONE_PAIRS      STATIC     ATOMS    <user>   **** ""
6 31 32 33 34 35 36
DONOR_HYDROGENS      STATIC     ATOMS    <user>   **** ""
2 18 20
ATOM$BLUE        STATIC     ATOMS    COLORGROUP SYSTEM
6 31 32 33 34 35 36
ATOM$RED        STATIC     ATOMS    COLORGROUP SYSTEM
2 18 20
@<TRIPOS>COMMENT
> <Gold.Version>
2022.3.0

> <Gold.Id.Protein>
unknown|6c5f_clean|pdb

> <Gold.Protein.ActiveResidues>
 LEU49   SER50   GLN58   ILE95   LEU96   ILE97   ARG98   PRO1    PHE2    LEU3   
 LEU30   LYS32   PRO33   ASP35   ARG36   VAL37   ASN38   ILE61   SER62   SER63  
 ILE64   GLY65   VAL66   VAL67   PHE100  LEU102  GLU103  SER104  TRP105  GLN106 
 ILE107  GLY108  LYS109  ILE110  THR112  VAL113  PRO1    GLN58   PHE2    LEU96  
 LEU30   LYS32   PRO33   PHE2    PRO1    PRO101  LEU102  GLU103  VAL37   ASN38  
 LEU49   SER50   ILE61   SER62   SER63   ILE64   ILE64   GLY65   VAL66   VAL67  
 PRO33   ARG36   VAL37   PRO1    SER104  TRP105  GLN106  ILE107  GLY108  LYS109 
 ILE110  PRO1    PHE2    LEU3    ILE110  VAL113  LEU96   ILE97   ARG98   PHE2   
 PRO1   

> <Gold.Score>
     Score     S(PLP)   S(hbond)     S(cho)   S(metal)  DE(clash)   DE(tors)     intcor
     41.93     -39.14       1.00       0.00       0.00       0.00       0.11       0.02

> <Gold.PLP.Fitness>
41.9281

> <Gold.PLP.PLP>
-39.1379

> <Gold.PLP.part.hbond>
-1.0000

> <Gold.PLP.part.metal>
0.0000

> <Gold.PLP.part.buried>
-3.6205

> <Gold.PLP.part.nonpolar>
-34.5274

> <Gold.PLP.part.repulsive>
0.1598

> <Gold.PLP.ligand.clash>
0.0000

> <Gold.PLP.ligand.torsion>
0.1142

> <Gold.PLP.Chemscore.Hbond>
1.0000

> <Gold.PLP.Chemscore.CHOScore>
0.0000

> <Gold.PLP.Chemscore.Metal>
0.0000

> <Gold.Chemscore.Hbonds>
donor molecule, donor type, donor heavy atom, donor atom, acceptor molecule, acceptor atom, score
      L1  H     7    20       P1  1669  1.00

> <Gold.PLP.Chemscore.Internal.Correction>
0.0185

> <Gold.PLP.Reference.RMSD>
4.8278

> <Gold.Rescore>
     Score         DG    S(hbond)    S(metal)    S(lipo)     H(rot)  DE(clash)    DE(int)     intcor
     19.20     -20.89       0.86        0.00     143.37       1.66       0.16       1.53       ----

> <Gold.Chemscore.Fitness>
19.1982

> <Gold.Chemscore.DG>
-20.8854

> <Gold.Chemscore.ZeroCoef>
-5.4800

> <Gold.Chemscore.Hbond>
0.8632

> <Gold.Chemscore.Metal>
0.0000

> <Gold.Chemscore.Lipo>
143.3716

> <Gold.Chemscore.Internal_Hbond>
0.0000

> <Gold.Chemscore.DEClash>
0.1582

> <Gold.Chemscore.DEInternal>
1.5290

> <Gold.Chemscore.Rot>
1.6611

> <Gold.Chemscore.Internal.Correction>
   9.000000E+99

> <Gold.Chemscore.Reference.RMSD>
0.0000

> <Gold.Chemscore.Hbonds>
donor molecule, donor type, donor heavy atom, donor atom, acceptor molecule, acceptor atom, score
      L1  H     7    20       P1  1669  0.31

> <Gold.Chemscore.Hbond.Weighted>
-2.8832

> <Gold.Chemscore.Metal.Weighted>
-0.0000

> <Gold.Chemscore.Lipo.Weighted>
-16.7745

> <Gold.Chemscore.Internal_Hbond.Weighted>
0.0000

> <Gold.Chemscore.DEClash.Weighted>
0.1582

> <Gold.Chemscore.DEInternal.Weighted>
1.5290

> <Gold.Chemscore.Rot.Weighted>
4.2523

> <Gold.Chemscore.Internal.Correction.Weighted>
   9.000000E+99

> <Gold.Reference.RMSD>
4.8278

#       Name:                00000001
#       Creating user name   hitesit
#       Creation time:       Thu Mar  2 16:48:43 2023


#       File generated by GOLD software.
#

@<TRIPOS>MOLECULE
00000001|prep_AF_1_R|mol2|1|dock10
    36    37     1
SMALL
USER_CHARGES


@<TRIPOS>ATOM
      1 C1         -36.9030 -42.0123   1.2684 C.2            1 noname             0.1635
      2 N1         -38.0939 -42.7551   1.3299 N.am           1 noname            -0.2225
      3 C2         -39.3447 -42.2285   1.1286 C.2            1 noname             0.2098
      4 C3         -39.4965 -40.7684   0.7288 C.3            1 noname             0.1150
      5 C4         -38.1964 -40.0579   0.4683 C.2            1 noname             0.0067
      6 C5         -37.0281 -40.6554   0.7343 C.2            1 noname             0.0922
      7 O1         -38.2762 -38.8380  -0.0203 O.3            1 noname            -0.2878
      8 O2         -35.8498 -42.5395   1.6526 O.2            1 noname            -0.2627
      9 O3         -40.3087 -42.9704   1.2714 O.2            1 noname            -0.2565
     10 C6         -40.1784 -40.0197   1.9031 C.3            1 noname            -0.0318
     11 C7         -40.3471 -40.7737  -0.5597 C.ar           1 noname            -0.0457
     12 C8         -41.6281 -40.2283  -0.5682 C.ar           1 noname            -0.0513
     13 C9         -42.3917 -40.2150  -1.7236 C.ar           1 noname            -0.0590
     14 C10        -41.8940 -40.7526  -2.8913 C.ar           1 noname            -0.0613
     15 C11        -40.6317 -41.3064  -2.9013 C.ar           1 noname            -0.0590
     16 C12        -39.8661 -41.3193  -1.7470 C.ar           1 noname            -0.0513
     17 C13        -41.4678 -40.6275   2.4374 C.3            1 noname            -0.0636
     18 H1         -38.0244 -43.7463   1.5368 H              1 noname            -0.2225
     19 H2         -36.1135 -40.0967   0.5411 H              1 noname             0.0922
     20 H3         -37.6353 -38.6868  -0.7571 H              1 noname            -0.2878
     21 H4         -40.3995 -38.9971   1.5737 H              1 noname            -0.0318
     22 H5         -39.4621 -39.9481   2.7308 H              1 noname            -0.0318
     23 H6         -42.0426 -39.8064   0.3414 H              1 noname            -0.0513
     24 H7         -43.3857 -39.7802  -1.7095 H              1 noname            -0.0590
     25 H8         -42.4921 -40.7404  -3.7964 H              1 noname            -0.0613
     26 H9         -40.2364 -41.7338  -3.8168 H              1 noname            -0.0590
     27 H10        -38.8772 -41.7641  -1.7768 H              1 noname            -0.0513
     28 H11        -41.2900 -41.6105   2.8669 H              1 noname            -0.0636
     29 H12        -41.8905 -39.9972   3.2169 H              1 noname            -0.0636
     30 H13        -42.2105 -40.7301   1.6496 H              1 noname            -0.0636
     31 ****       -38.0842 -38.1849   0.7122 LP             1 noname             0.0000
     32 ****       -39.2032 -38.6895  -0.3648 LP             1 noname             0.0000
     33 ****       -35.8576 -43.4777   1.9987 LP             1 noname             0.0000
     34 ****       -34.9920 -42.0269   1.6167 LP             1 noname             0.0000
     35 ****       -40.1698 -43.9271   1.5270 LP             1 noname             0.0000
     36 ****       -41.2347 -42.6193   1.1325 LP             1 noname             0.0000
@<TRIPOS>BOND
    1    1    2 am    
    2    1    6 1     
    3    1    8 2     
    4    2    3 am    
    5    4    3 1     
    6    3    9 2     
    7    4    5 1     
    8    4   10 1     
    9    4   11 1     
   10    5    6 2     
   11    5    7 1     
   12   10   17 1     
   13   11   12 ar    
   14   11   16 ar    
   15   12   13 ar    
   16   13   14 ar    
   17   14   15 ar    
   18   15   16 ar    
   19    2   18 1     
   20    6   19 1     
   21    7   20 1     
   22   10   21 1     
   23   10   22 1     
   24   12   23 1     
   25   13   24 1     
   26   14   25 1     
   27   15   26 1     
   28   16   27 1     
   29   17   28 1     
   30   17   29 1     
   31   17   30 1     
   32    7   31 1     
   33    7   32 1     
   34    8   33 1     
   35    8   34 1     
   36    9   35 1     
   37    9   36 1     
@<TRIPOS>SUBSTRUCTURE
      1 noname         1
@<TRIPOS>SET
LONE_PAIRS      STATIC     ATOMS    <user>   **** ""
6 31 32 33 34 35 36
DONOR_HYDROGENS      STATIC     ATOMS    <user>   **** ""
2 18 20
ATOM$BLUE        STATIC     ATOMS    COLORGROUP SYSTEM
6 31 32 33 34 35 36
ATOM$RED        STATIC     ATOMS    COLORGROUP SYSTEM
2 18 20
@<TRIPOS>COMMENT
> <Gold.Version>
2022.3.0

> <Gold.Id.Protein>
unknown|6c5f_clean|pdb

> <Gold.Protein.ActiveResidues>
 LEU49   SER50   GLN58   ILE95   LEU96   ILE97   ARG98   PRO1    PHE2    LEU3   
 LEU30   LYS32   PRO33   ASP35   ARG36   VAL37   ASN38   ILE61   SER62   SER63  
 ILE64   GLY65   VAL66   VAL67   PHE100  LEU102  GLU103  SER104  TRP105  GLN106 
 ILE107  GLY108  LYS109  ILE110  THR112  VAL113  PRO1    GLN58   PHE2    LEU96  
 LEU30   LYS32   PRO33   PHE2    PRO1    PRO101  LEU102  GLU103  VAL37   ASN38  
 LEU49   SER50   ILE61   SER62   SER63   ILE64   ILE64   GLY65   VAL66   VAL67  
 PRO33   ARG36   VAL37   PRO1    SER104  TRP105  GLN106  ILE107  GLY108  LYS109 
 ILE110  PRO1    PHE2    LEU3    ILE110  VAL113  LEU96   ILE97   ARG98   PHE2   
 PRO1   

> <Gold.Score>
     Score     S(PLP)   S(hbond)     S(cho)   S(metal)  DE(clash)   DE(tors)     intcor
     41.89     -39.07       1.00       0.00       0.00       0.00       0.10       0.02

> <Gold.PLP.Fitness>
41.8896

> <Gold.PLP.PLP>
-39.0676

> <Gold.PLP.part.hbond>
-1.0000

> <Gold.PLP.part.metal>
0.0000

> <Gold.PLP.part.buried>
-4.4985

> <Gold.PLP.part.nonpolar>
-34.1985

> <Gold.PLP.part.repulsive>
0.1682

> <Gold.PLP.ligand.clash>
0.0000

> <Gold.PLP.ligand.torsion>
0.0983

> <Gold.PLP.Chemscore.Hbond>
1.0000

> <Gold.PLP.Chemscore.CHOScore>
0.0000

> <Gold.PLP.Chemscore.Metal>
0.0000

> <Gold.Chemscore.Hbonds>
donor molecule, donor type, donor heavy atom, donor atom, acceptor molecule, acceptor atom, score
      L1  H     7    20       P1  1669  1.00

> <Gold.PLP.Chemscore.Internal.Correction>
0.0185

> <Gold.PLP.Reference.RMSD>
4.8413

> <Gold.Rescore>
     Score         DG    S(hbond)    S(metal)    S(lipo)     H(rot)  DE(clash)    DE(int)     intcor
     19.03     -20.58       0.85        0.00     141.27       1.66       0.08       1.47       ----

> <Gold.Chemscore.Fitness>
19.0303

> <Gold.Chemscore.DG>
-20.5785

> <Gold.Chemscore.ZeroCoef>
-5.4800

> <Gold.Chemscore.Hbond>
0.8451

> <Gold.Chemscore.Metal>
0.0000

> <Gold.Chemscore.Lipo>
141.2662

> <Gold.Chemscore.Internal_Hbond>
0.0000

> <Gold.Chemscore.DEClash>
0.0792

> <Gold.Chemscore.DEInternal>
1.4690

> <Gold.Chemscore.Rot>
1.6611

> <Gold.Chemscore.Internal.Correction>
   9.000000E+99

> <Gold.Chemscore.Reference.RMSD>
0.0000

> <Gold.Chemscore.Hbonds>
donor molecule, donor type, donor heavy atom, donor atom, acceptor molecule, acceptor atom, score
      L1  H     7    20       P1  1669  0.28

> <Gold.Chemscore.Hbond.Weighted>
-2.8227

> <Gold.Chemscore.Metal.Weighted>
-0.0000

> <Gold.Chemscore.Lipo.Weighted>
-16.5281

> <Gold.Chemscore.Internal_Hbond.Weighted>
0.0000

> <Gold.Chemscore.DEClash.Weighted>
0.0792

> <Gold.Chemscore.DEInternal.Weighted>
1.4690

> <Gold.Chemscore.Rot.Weighted>
4.2523

> <Gold.Chemscore.Internal.Correction.Weighted>
   9.000000E+99

> <Gold.Reference.RMSD>
4.8413

#       Name:                00000001
#       Creating user name   hitesit
#       Creation time:       Thu Mar  2 16:48:40 2023


#       File generated by GOLD software.
#

@<TRIPOS>MOLECULE
00000001|prep_AF_1_R|mol2|1|dock6
    36    37     1
SMALL
USER_CHARGES


@<TRIPOS>ATOM
      1 C1         -36.8488 -41.9351   1.2534 C.2            1 noname             0.1635
      2 N1         -38.0386 -42.6798   1.3144 N.am           1 noname            -0.2225
      3 C2         -39.2900 -42.1553   1.1120 C.2            1 noname             0.2098
      4 C3         -39.4439 -40.6956   0.7115 C.3            1 noname             0.1150
      5 C4         -38.1448 -39.9831   0.4515 C.2            1 noname             0.0067
      6 C5         -36.9757 -40.5786   0.7186 C.2            1 noname             0.0922
      7 O1         -38.2263 -38.7636  -0.0377 O.3            1 noname            -0.2878
      8 O2         -35.7950 -42.4604   1.6385 O.2            1 noname            -0.2627
      9 O3         -40.2530 -42.8986   1.2546 O.2            1 noname            -0.2565
     10 C6         -40.1278 -39.9474   1.8850 C.3            1 noname            -0.0318
     11 C7         -40.2937 -40.7028  -0.5775 C.ar           1 noname            -0.0457
     12 C8         -41.5507 -40.1046  -0.6038 C.ar           1 noname            -0.0513
     13 C9         -42.3128 -40.0931  -1.7602 C.ar           1 noname            -0.0590
     14 C10        -41.8378 -40.6850  -2.9110 C.ar           1 noname            -0.0613
     15 C11        -40.5999 -41.2913  -2.9030 C.ar           1 noname            -0.0590
     16 C12        -39.8357 -41.3026  -1.7477 C.ar           1 noname            -0.0513
     17 C13        -41.3911 -40.5821   2.4496 C.3            1 noname            -0.0636
     18 H1         -37.9676 -43.6708   1.5218 H              1 noname            -0.2225
     19 H2         -36.0619 -40.0185   0.5257 H              1 noname             0.0922
     20 H3         -37.8088 -38.6892  -0.9303 H              1 noname            -0.2878
     21 H4         -40.3826 -38.9368   1.5435 H              1 noname            -0.0318
     22 H5         -39.4008 -39.8430   2.6998 H              1 noname            -0.0318
     23 H6         -41.9473 -39.6394   0.2925 H              1 noname            -0.0513
     24 H7         -43.2876 -39.6168  -1.7603 H              1 noname            -0.0590
     25 H8         -42.4346 -40.6742  -3.8170 H              1 noname            -0.0613
     26 H9         -40.2226 -41.7615  -3.8051 H              1 noname            -0.0590
     27 H10        -38.8664 -41.7892  -1.7631 H              1 noname            -0.0513
     28 H11        -41.1791 -41.5529   2.8913 H              1 noname            -0.0636
     29 H12        -41.8188 -39.9514   3.2259 H              1 noname            -0.0636
     30 H13        -42.1430 -40.7177   1.6756 H              1 noname            -0.0636
     31 ****       -37.7636 -38.1347   0.5872 LP             1 noname             0.0000
     32 ****       -39.1909 -38.5105  -0.1117 LP             1 noname             0.0000
     33 ****       -35.8015 -43.3984   1.9850 LP             1 noname             0.0000
     34 ****       -34.9380 -41.9464   1.6029 LP             1 noname             0.0000
     35 ****       -40.1127 -43.8550   1.5107 LP             1 noname             0.0000
     36 ****       -41.1794 -42.5491   1.1149 LP             1 noname             0.0000
@<TRIPOS>BOND
    1    1    2 am    
    2    1    6 1     
    3    1    8 2     
    4    2    3 am    
    5    4    3 1     
    6    3    9 2     
    7    4    5 1     
    8    4   10 1     
    9    4   11 1     
   10    5    6 2     
   11    5    7 1     
   12   10   17 1     
   13   11   12 ar    
   14   11   16 ar    
   15   12   13 ar    
   16   13   14 ar    
   17   14   15 ar    
   18   15   16 ar    
   19    2   18 1     
   20    6   19 1     
   21    7   20 1     
   22   10   21 1     
   23   10   22 1     
   24   12   23 1     
   25   13   24 1     
   26   14   25 1     
   27   15   26 1     
   28   16   27 1     
   29   17   28 1     
   30   17   29 1     
   31   17   30 1     
   32    7   31 1     
   33    7   32 1     
   34    8   33 1     
   35    8   34 1     
   36    9   35 1     
   37    9   36 1     
@<TRIPOS>SUBSTRUCTURE
      1 noname         1
@<TRIPOS>SET
LONE_PAIRS      STATIC     ATOMS    <user>   **** ""
6 31 32 33 34 35 36
DONOR_HYDROGENS      STATIC     ATOMS    <user>   **** ""
2 18 20
ATOM$BLUE        STATIC     ATOMS    COLORGROUP SYSTEM
6 31 32 33 34 35 36
ATOM$RED        STATIC     ATOMS    COLORGROUP SYSTEM
2 18 20
@<TRIPOS>COMMENT
> <Gold.Version>
2022.3.0

> <Gold.Id.Protein>
unknown|6c5f_clean|pdb

> <Gold.Protein.ActiveResidues>
 LEU49   SER50   GLN58   ILE95   LEU96   ILE97   ARG98   PRO1    PHE2    LEU3   
 LEU30   LYS32   PRO33   ASP35   ARG36   VAL37   ASN38   ILE61   SER62   SER63  
 ILE64   GLY65   VAL66   VAL67   PHE100  LEU102  GLU103  SER104  TRP105  GLN106 
 ILE107  GLY108  LYS109  ILE110  THR112  VAL113  PRO1    GLN58   PHE2    LEU96  
 LEU30   LYS32   PRO33   PHE2    PRO1    PRO101  LEU102  GLU103  VAL37   ASN38  
 LEU49   SER50   ILE61   SER62   SER63   ILE64   ILE64   GLY65   VAL66   VAL67  
 PRO33   ARG36   VAL37   PRO1    SER104  TRP105  GLN106  ILE107  GLY108  LYS109 
 ILE110  PRO1    PHE2    LEU3    ILE110  VAL113  LEU96   ILE97   ARG98   PHE2   
 PRO1   

> <Gold.Score>
     Score     S(PLP)   S(hbond)     S(cho)   S(metal)  DE(clash)   DE(tors)     intcor
     41.74     -38.88       0.99       0.00       0.00       0.00       0.07       0.02

> <Gold.PLP.Fitness>
41.7430

> <Gold.PLP.PLP>
-38.8791

> <Gold.PLP.part.hbond>
-1.0000

> <Gold.PLP.part.metal>
0.0000

> <Gold.PLP.part.buried>
-4.1612

> <Gold.PLP.part.nonpolar>
-34.0129

> <Gold.PLP.part.repulsive>
0.1658

> <Gold.PLP.ligand.clash>
0.0000

> <Gold.PLP.ligand.torsion>
0.0653

> <Gold.PLP.Chemscore.Hbond>
0.9920

> <Gold.PLP.Chemscore.CHOScore>
0.0000

> <Gold.PLP.Chemscore.Metal>
0.0000

> <Gold.Chemscore.Hbonds>
donor molecule, donor type, donor heavy atom, donor atom, acceptor molecule, acceptor atom, score
      L1  H     7    20       P1  1669  0.98

> <Gold.PLP.Chemscore.Internal.Correction>
0.0185

> <Gold.PLP.Reference.RMSD>
4.8583

> <Gold.Rescore>
     Score         DG    S(hbond)    S(metal)    S(lipo)     H(rot)  DE(clash)    DE(int)     intcor
     18.64     -20.19       0.70        0.00     142.01       1.66       0.07       1.48       ----

> <Gold.Chemscore.Fitness>
18.6441

> <Gold.Chemscore.DG>
-20.1864

> <Gold.Chemscore.ZeroCoef>
-5.4800

> <Gold.Chemscore.Hbond>
0.7016

> <Gold.Chemscore.Metal>
0.0000

> <Gold.Chemscore.Lipo>
142.0125

> <Gold.Chemscore.Internal_Hbond>
0.0000

> <Gold.Chemscore.DEClash>
0.0662

> <Gold.Chemscore.DEInternal>
1.4761

> <Gold.Chemscore.Rot>
1.6611

> <Gold.Chemscore.Internal.Correction>
   9.000000E+99

> <Gold.Chemscore.Reference.RMSD>
0.0000

> <Gold.Chemscore.Hbonds>
donor molecule, donor type, donor heavy atom, donor atom, acceptor molecule, acceptor atom, score
      L1  H     7    20       P1  1669  0.48

> <Gold.Chemscore.Hbond.Weighted>
-2.3432

> <Gold.Chemscore.Metal.Weighted>
-0.0000

> <Gold.Chemscore.Lipo.Weighted>
-16.6155

> <Gold.Chemscore.Internal_Hbond.Weighted>
0.0000

> <Gold.Chemscore.DEClash.Weighted>
0.0662

> <Gold.Chemscore.DEInternal.Weighted>
1.4761

> <Gold.Chemscore.Rot.Weighted>
4.2523

> <Gold.Chemscore.Internal.Correction.Weighted>
   9.000000E+99

> <Gold.Reference.RMSD>
4.8583

#       Name:                00000001
#       Creating user name   hitesit
#       Creation time:       Thu Mar  2 16:48:39 2023


#       File generated by GOLD software.
#

@<TRIPOS>MOLECULE
00000001|prep_AF_1_R|mol2|1|dock3
    36    37     1
SMALL
USER_CHARGES


@<TRIPOS>ATOM
      1 C1         -37.1593 -41.5739   1.6347 C.2            1 noname             0.1635
      2 N1         -38.4821 -41.6380   2.1036 N.am           1 noname            -0.2225
      3 C2         -39.5180 -40.8933   1.5991 C.2            1 noname             0.2098
      4 C3         -39.2853 -39.9867   0.3996 C.3            1 noname             0.1150
      5 C4         -37.9133 -40.0997  -0.2067 C.2            1 noname             0.0067
      6 C5         -36.9624 -40.8290   0.3903 C.2            1 noname             0.0922
      7 O1         -37.7078 -39.4470  -1.3315 O.3            1 noname            -0.2878
      8 O2         -36.2683 -42.1418   2.2814 O.2            1 noname            -0.2627
      9 O3         -40.6133 -40.9962   2.1376 O.2            1 noname            -0.2565
     10 C6         -39.4364 -38.5182   0.8739 C.3            1 noname            -0.0318
     11 C7         -40.3452 -40.3961  -0.6459 C.ar           1 noname            -0.0457
     12 C8         -41.3211 -39.4935  -1.0600 C.ar           1 noname            -0.0513
     13 C9         -42.2658 -39.8476  -2.0088 C.ar           1 noname            -0.0590
     14 C10        -42.2591 -41.1123  -2.5574 C.ar           1 noname            -0.0613
     15 C11        -41.3072 -42.0238  -2.1535 C.ar           1 noname            -0.0590
     16 C12        -40.3607 -41.6710  -1.2057 C.ar           1 noname            -0.0513
     17 C13        -38.2160 -37.8889   1.5313 C.3            1 noname            -0.0636
     18 H1         -38.6847 -42.2771   2.8657 H              1 noname            -0.2225
     19 H2         -35.9808 -40.8707  -0.0795 H              1 noname             0.0922
     20 H3         -37.3908 -40.0395  -2.0560 H              1 noname            -0.2878
     21 H4         -40.2652 -38.4744   1.5910 H              1 noname            -0.0318
     22 H5         -39.7188 -37.9028   0.0108 H              1 noname            -0.0318
     23 H6         -41.3496 -38.4953  -0.6360 H              1 noname            -0.0513
     24 H7         -43.0145 -39.1271  -2.3212 H              1 noname            -0.0590
     25 H8         -42.9984 -41.3885  -3.3018 H              1 noname            -0.0613
     26 H9         -41.2994 -43.0216  -2.5797 H              1 noname            -0.0590
     27 H10        -39.6237 -42.4056  -0.8996 H              1 noname            -0.0513
     28 H11        -37.3862 -37.8180   0.8322 H              1 noname            -0.0636
     29 H12        -38.4461 -36.8827   1.8750 H              1 noname            -0.0636
     30 H13        -37.8883 -38.4699   2.3902 H              1 noname            -0.0636
     31 ****       -37.0204 -38.7386  -1.1713 LP             1 noname             0.0000
     32 ****       -38.5659 -39.0203  -1.6171 LP             1 noname             0.0000
     33 ****       -36.4966 -42.6344   3.1211 LP             1 noname             0.0000
     34 ****       -35.3207 -42.1074   1.9637 LP             1 noname             0.0000
     35 ****       -40.7306 -41.6086   2.9194 LP             1 noname             0.0000
     36 ****       -41.3903 -40.4677   1.7954 LP             1 noname             0.0000
@<TRIPOS>BOND
    1    1    2 am    
    2    1    6 1     
    3    1    8 2     
    4    2    3 am    
    5    4    3 1     
    6    3    9 2     
    7    4    5 1     
    8    4   10 1     
    9    4   11 1     
   10    5    6 2     
   11    5    7 1     
   12   10   17 1     
   13   11   12 ar    
   14   11   16 ar    
   15   12   13 ar    
   16   13   14 ar    
   17   14   15 ar    
   18   15   16 ar    
   19    2   18 1     
   20    6   19 1     
   21    7   20 1     
   22   10   21 1     
   23   10   22 1     
   24   12   23 1     
   25   13   24 1     
   26   14   25 1     
   27   15   26 1     
   28   16   27 1     
   29   17   28 1     
   30   17   29 1     
   31   17   30 1     
   32    7   31 1     
   33    7   32 1     
   34    8   33 1     
   35    8   34 1     
   36    9   35 1     
   37    9   36 1     
@<TRIPOS>SUBSTRUCTURE
      1 noname         1
@<TRIPOS>SET
LONE_PAIRS      STATIC     ATOMS    <user>   **** ""
6 31 32 33 34 35 36
DONOR_HYDROGENS      STATIC     ATOMS    <user>   **** ""
2 18 20
ATOM$BLUE        STATIC     ATOMS    COLORGROUP SYSTEM
6 31 32 33 34 35 36
ATOM$RED        STATIC     ATOMS    COLORGROUP SYSTEM
2 18 20
@<TRIPOS>COMMENT
> <Gold.Version>
2022.3.0

> <Gold.Id.Protein>
unknown|6c5f_clean|pdb

> <Gold.Protein.ActiveResidues>
 LEU49   SER50   GLN58   ILE95   LEU96   ILE97   ARG98   PRO1    PHE2    LEU3   
 LEU30   LYS32   PRO33   ASP35   ARG36   VAL37   ASN38   ILE61   SER62   SER63  
 ILE64   GLY65   VAL66   VAL67   PHE100  LEU102  GLU103  SER104  TRP105  GLN106 
 ILE107  GLY108  LYS109  ILE110  THR112  VAL113  PRO1    GLN58   PHE2    LEU96  
 LEU30   LYS32   PRO33   PHE2    PRO1    PRO101  LEU102  GLU103  VAL37   ASN38  
 LEU49   SER50   ILE61   SER62   SER63   ILE64   ILE64   GLY65   VAL66   VAL67  
 PRO33   ARG36   VAL37   PRO1    SER104  TRP105  GLN106  ILE107  GLY108  LYS109 
 ILE110  PRO1    PHE2    LEU3    ILE110  VAL113  LEU96   ILE97   ARG98   PHE2   
 PRO1   

> <Gold.Score>
     Score     S(PLP)   S(hbond)     S(cho)   S(metal)  DE(clash)   DE(tors)     intcor
     41.44     -39.03       1.00       0.00       0.00       0.00       0.30       0.02

> <Gold.PLP.Fitness>
41.4364

> <Gold.PLP.PLP>
-39.0260

> <Gold.PLP.part.hbond>
0.0497

> <Gold.PLP.part.metal>
0.0000

> <Gold.PLP.part.buried>
-0.5646

> <Gold.PLP.part.nonpolar>
-38.6904

> <Gold.PLP.part.repulsive>
0.0616

> <Gold.PLP.ligand.clash>
0.0000

> <Gold.PLP.ligand.torsion>
0.3041

> <Gold.PLP.Chemscore.Hbond>
1.0000

> <Gold.PLP.Chemscore.CHOScore>
0.0000

> <Gold.PLP.Chemscore.Metal>
0.0000

> <Gold.Chemscore.Hbonds>
donor molecule, donor type, donor heavy atom, donor atom, acceptor molecule, acceptor atom, score
      L1  H     7    20       P1  1923  0.93

> <Gold.PLP.Chemscore.Internal.Correction>
0.0185

> <Gold.PLP.Reference.RMSD>
5.0739

> <Gold.Rescore>
     Score         DG    S(hbond)    S(metal)    S(lipo)     H(rot)  DE(clash)    DE(int)     intcor
     21.08     -22.41       1.00        0.00     152.57       1.66       0.90       0.43       ----

> <Gold.Chemscore.Fitness>
21.0771

> <Gold.Chemscore.DG>
-22.4145

> <Gold.Chemscore.ZeroCoef>
-5.4800

> <Gold.Chemscore.Hbond>
0.9989

> <Gold.Chemscore.Metal>
0.0000

> <Gold.Chemscore.Lipo>
152.5674

> <Gold.Chemscore.Internal_Hbond>
0.0000

> <Gold.Chemscore.DEClash>
0.9032

> <Gold.Chemscore.DEInternal>
0.4342

> <Gold.Chemscore.Rot>
1.6611

> <Gold.Chemscore.Internal.Correction>
   9.000000E+99

> <Gold.Chemscore.Reference.RMSD>
0.0000

> <Gold.Chemscore.Hbonds>
donor molecule, donor type, donor heavy atom, donor atom, acceptor molecule, acceptor atom, score
      L1  H     7    20       P1  1923  0.84

> <Gold.Chemscore.Hbond.Weighted>
-3.3364

> <Gold.Chemscore.Metal.Weighted>
-0.0000

> <Gold.Chemscore.Lipo.Weighted>
-17.8504

> <Gold.Chemscore.Internal_Hbond.Weighted>
0.0000

> <Gold.Chemscore.DEClash.Weighted>
0.9032

> <Gold.Chemscore.DEInternal.Weighted>
0.4342

> <Gold.Chemscore.Rot.Weighted>
4.2523

> <Gold.Chemscore.Internal.Correction.Weighted>
   9.000000E+99

> <Gold.Reference.RMSD>
5.0739

#       Name:                00000001
#       Creating user name   hitesit
#       Creation time:       Thu Mar  2 16:48:39 2023


#       File generated by GOLD software.
#

@<TRIPOS>MOLECULE
00000001|prep_AF_1_R|mol2|1|dock4
    36    37     1
SMALL
USER_CHARGES


@<TRIPOS>ATOM
      1 C1         -37.0036 -41.7645   1.7756 C.2            1 noname             0.1635
      2 N1         -38.3224 -41.8159   2.2573 N.am           1 noname            -0.2225
      3 C2         -39.3458 -41.0285   1.7940 C.2            1 noname             0.2098
      4 C3         -39.1048 -40.0819   0.6275 C.3            1 noname             0.1150
      5 C4         -37.7425 -40.2031   0.0012 C.2            1 noname             0.0067
      6 C5         -36.8027 -40.9769   0.5585 C.2            1 noname             0.0922
      7 O1         -37.5339 -39.5124  -1.1000 O.3            1 noname            -0.2878
      8 O2         -36.1193 -42.3774   2.3896 O.2            1 noname            -0.2627
      9 O3         -40.4373 -41.1266   2.3410 O.2            1 noname            -0.2565
     10 C6         -39.2159 -38.6296   1.1595 C.3            1 noname            -0.0318
     11 C7         -40.1853 -40.4258  -0.4204 C.ar           1 noname            -0.0457
     12 C8         -41.1672 -39.4988  -0.7598 C.ar           1 noname            -0.0513
     13 C9         -42.1307 -39.7936  -1.7101 C.ar           1 noname            -0.0590
     14 C10        -42.1370 -41.0224  -2.3347 C.ar           1 noname            -0.0613
     15 C11        -41.1794 -41.9577  -2.0056 C.ar           1 noname            -0.0590
     16 C12        -40.2142 -41.6641  -1.0565 C.ar           1 noname            -0.0513
     17 C13        -37.9207 -37.9747   1.6190 C.3            1 noname            -0.0636
     18 H1         -38.5317 -42.4791   2.9966 H              1 noname            -0.2225
     19 H2         -35.8275 -41.0232   0.0759 H              1 noname             0.0922
     20 H3         -37.4129 -40.0939  -1.8898 H              1 noname            -0.2878
     21 H4         -39.9126 -38.6286   2.0066 H              1 noname            -0.0318
     22 H5         -39.6577 -38.0055   0.3730 H              1 noname            -0.0318
     23 H6         -41.1855 -38.5283  -0.2753 H              1 noname            -0.0513
     24 H7         -42.8837 -39.0547  -1.9635 H              1 noname            -0.0590
     25 H8         -42.8910 -41.2521  -3.0803 H              1 noname            -0.0613
     26 H9         -41.1817 -42.9277  -2.4919 H              1 noname            -0.0590
     27 H10        -39.4729 -42.4167  -0.8100 H              1 noname            -0.0513
     28 H11        -37.2233 -37.8615   0.7925 H              1 noname            -0.0636
     29 H12        -38.1185 -36.9843   2.0233 H              1 noname            -0.0636
     30 H13        -37.4360 -38.5629   2.3947 H              1 noname            -0.0636
     31 ****       -36.7109 -38.9570  -0.9804 LP             1 noname             0.0000
     32 ****       -38.3195 -38.9142  -1.2583 LP             1 noname             0.0000
     33 ****       -36.3500 -42.8967   3.2124 LP             1 noname             0.0000
     34 ****       -35.1747 -42.3529   2.0623 LP             1 noname             0.0000
     35 ****       -40.5606 -41.7659   3.1000 LP             1 noname             0.0000
     36 ****       -41.2053 -40.5674   2.0285 LP             1 noname             0.0000
@<TRIPOS>BOND
    1    1    2 am    
    2    1    6 1     
    3    1    8 2     
    4    2    3 am    
    5    4    3 1     
    6    3    9 2     
    7    4    5 1     
    8    4   10 1     
    9    4   11 1     
   10    5    6 2     
   11    5    7 1     
   12   10   17 1     
   13   11   12 ar    
   14   11   16 ar    
   15   12   13 ar    
   16   13   14 ar    
   17   14   15 ar    
   18   15   16 ar    
   19    2   18 1     
   20    6   19 1     
   21    7   20 1     
   22   10   21 1     
   23   10   22 1     
   24   12   23 1     
   25   13   24 1     
   26   14   25 1     
   27   15   26 1     
   28   16   27 1     
   29   17   28 1     
   30   17   29 1     
   31   17   30 1     
   32    7   31 1     
   33    7   32 1     
   34    8   33 1     
   35    8   34 1     
   36    9   35 1     
   37    9   36 1     
@<TRIPOS>SUBSTRUCTURE
      1 noname         1
@<TRIPOS>SET
LONE_PAIRS      STATIC     ATOMS    <user>   **** ""
6 31 32 33 34 35 36
DONOR_HYDROGENS      STATIC     ATOMS    <user>   **** ""
2 18 20
ATOM$BLUE        STATIC     ATOMS    COLORGROUP SYSTEM
6 31 32 33 34 35 36
ATOM$RED        STATIC     ATOMS    COLORGROUP SYSTEM
2 18 20
@<TRIPOS>COMMENT
> <Gold.Version>
2022.3.0

> <Gold.Id.Protein>
unknown|6c5f_clean|pdb

> <Gold.Protein.ActiveResidues>
 LEU49   SER50   GLN58   ILE95   LEU96   ILE97   ARG98   PRO1    PHE2    LEU3   
 LEU30   LYS32   PRO33   ASP35   ARG36   VAL37   ASN38   ILE61   SER62   SER63  
 ILE64   GLY65   VAL66   VAL67   PHE100  LEU102  GLU103  SER104  TRP105  GLN106 
 ILE107  GLY108  LYS109  ILE110  THR112  VAL113  PRO1    GLN58   PHE2    LEU96  
 LEU30   LYS32   PRO33   PHE2    PRO1    PRO101  LEU102  GLU103  VAL37   ASN38  
 LEU49   SER50   ILE61   SER62   SER63   ILE64   ILE64   GLY65   VAL66   VAL67  
 PRO33   ARG36   VAL37   PRO1    SER104  TRP105  GLN106  ILE107  GLY108  LYS109 
 ILE110  PRO1    PHE2    LEU3    ILE110  VAL113  LEU96   ILE97   ARG98   PHE2   
 PRO1   

> <Gold.Score>
     Score     S(PLP)   S(hbond)     S(cho)   S(metal)  DE(clash)   DE(tors)     intcor
     41.15     -39.40       0.98       0.00       0.00       0.00       0.60       0.02

> <Gold.PLP.Fitness>
41.1524

> <Gold.PLP.PLP>
-39.4003

> <Gold.PLP.part.hbond>
-0.3889

> <Gold.PLP.part.metal>
0.0000

> <Gold.PLP.part.buried>
-0.3491

> <Gold.PLP.part.nonpolar>
-39.2433

> <Gold.PLP.part.repulsive>
0.0616

> <Gold.PLP.ligand.clash>
0.0000

> <Gold.PLP.ligand.torsion>
0.5972

> <Gold.PLP.Chemscore.Hbond>
0.9760

> <Gold.PLP.Chemscore.CHOScore>
0.0000

> <Gold.PLP.Chemscore.Metal>
0.0000

> <Gold.Chemscore.Hbonds>
donor molecule, donor type, donor heavy atom, donor atom, acceptor molecule, acceptor atom, score
      L1  H     7    20       P1  1923  0.98

> <Gold.PLP.Chemscore.Internal.Correction>
0.0185

> <Gold.PLP.Reference.RMSD>
5.0894

> <Gold.Rescore>
     Score         DG    S(hbond)    S(metal)    S(lipo)     H(rot)  DE(clash)    DE(int)     intcor
     20.72     -22.86       1.00        0.00     156.32       1.66       1.60       0.55       ----

> <Gold.Chemscore.Fitness>
20.7151

> <Gold.Chemscore.DG>
-22.8567

> <Gold.Chemscore.ZeroCoef>
-5.4800

> <Gold.Chemscore.Hbond>
0.9999

> <Gold.Chemscore.Metal>
0.0000

> <Gold.Chemscore.Lipo>
156.3177

> <Gold.Chemscore.Internal_Hbond>
0.0000

> <Gold.Chemscore.DEClash>
1.5951

> <Gold.Chemscore.DEInternal>
0.5465

> <Gold.Chemscore.Rot>
1.6611

> <Gold.Chemscore.Internal.Correction>
   9.000000E+99

> <Gold.Chemscore.Reference.RMSD>
0.0000

> <Gold.Chemscore.Hbonds>
donor molecule, donor type, donor heavy atom, donor atom, acceptor molecule, acceptor atom, score
      L1  H     7    20       P1  1923  0.93

> <Gold.Chemscore.Hbond.Weighted>
-3.3398

> <Gold.Chemscore.Metal.Weighted>
-0.0000

> <Gold.Chemscore.Lipo.Weighted>
-18.2892

> <Gold.Chemscore.Internal_Hbond.Weighted>
0.0000

> <Gold.Chemscore.DEClash.Weighted>
1.5951

> <Gold.Chemscore.DEInternal.Weighted>
0.5465

> <Gold.Chemscore.Rot.Weighted>
4.2523

> <Gold.Chemscore.Internal.Correction.Weighted>
   9.000000E+99

> <Gold.Reference.RMSD>
5.0894

#       Name:                00000001
#       Creating user name   hitesit
#       Creation time:       Thu Mar  2 16:48:38 2023


#       File generated by GOLD software.
#

@<TRIPOS>MOLECULE
00000001|prep_AF_1_R|mol2|1|dock2
    36    37     1
SMALL
USER_CHARGES


@<TRIPOS>ATOM
      1 C1         -36.6539 -42.5116   2.1379 C.2            1 noname             0.1635
      2 N1         -38.0039 -42.3083   2.4697 N.am           1 noname            -0.2225
      3 C2         -38.7869 -41.3111   1.9456 C.2            1 noname             0.2098
      4 C3         -38.2251 -40.3927   0.8705 C.3            1 noname             0.1150
      5 C4         -36.8502 -40.7686   0.3897 C.2            1 noname             0.0067
      6 C5         -36.1569 -41.7386   0.9987 C.2            1 noname             0.0922
      7 O1         -36.3788 -40.0962  -0.6393 O.3            1 noname            -0.2878
      8 O2         -35.9890 -43.3149   2.8066 O.2            1 noname            -0.2627
      9 O3         -39.9329 -41.2025   2.3641 O.2            1 noname            -0.2565
     10 C6         -38.1057 -38.9688   1.4727 C.3            1 noname            -0.0318
     11 C7         -39.2208 -40.4692  -0.3071 C.ar           1 noname            -0.0457
     12 C8         -39.3000 -39.4380  -1.2392 C.ar           1 noname            -0.0513
     13 C9         -40.1793 -39.5058  -2.3071 C.ar           1 noname            -0.0590
     14 C10        -41.0020 -40.6012  -2.4611 C.ar           1 noname            -0.0613
     15 C11        -40.9459 -41.6283  -1.5434 C.ar           1 noname            -0.0590
     16 C12        -40.0661 -41.5628  -0.4755 C.ar           1 noname            -0.0513
     17 C13        -36.9530 -38.7358   2.4395 C.3            1 noname            -0.0636
     18 H1         -38.4276 -42.9405   3.1411 H              1 noname            -0.2225
     19 H2         -35.1605 -41.9669   0.6229 H              1 noname             0.0922
     20 H3         -36.8459 -40.3222  -1.4804 H              1 noname            -0.2878
     21 H4         -39.0395 -38.7422   2.0015 H              1 noname            -0.0318
     22 H5         -38.0149 -38.2507   0.6485 H              1 noname            -0.0318
     23 H6         -38.6672 -38.5632  -1.1333 H              1 noname            -0.0513
     24 H7         -40.2213 -38.6934  -3.0251 H              1 noname            -0.0590
     25 H8         -41.6894 -40.6544  -3.2988 H              1 noname            -0.0613
     26 H9         -41.5934 -42.4913  -1.6580 H              1 noname            -0.0590
     27 H10        -40.0419 -42.3805   0.2369 H              1 noname            -0.0513
     28 H11        -35.9934 -38.8536   1.9419 H              1 noname            -0.0636
     29 H12        -36.9945 -37.7267   2.8439 H              1 noname            -0.0636
     30 H13        -36.9916 -39.4330   3.2732 H              1 noname            -0.0636
     31 ****       -35.4071 -40.3080  -0.7441 LP             1 noname             0.0000
     32 ****       -36.4897 -39.1182  -0.4626 LP             1 noname             0.0000
     33 ****       -36.4147 -43.8051   3.5672 LP             1 noname             0.0000
     34 ****       -35.0266 -43.4732   2.5859 LP             1 noname             0.0000
     35 ****       -40.2705 -41.8298   3.0659 LP             1 noname             0.0000
     36 ****       -40.5310 -40.4865   2.0039 LP             1 noname             0.0000
@<TRIPOS>BOND
    1    1    2 am    
    2    1    6 1     
    3    1    8 2     
    4    2    3 am    
    5    4    3 1     
    6    3    9 2     
    7    4    5 1     
    8    4   10 1     
    9    4   11 1     
   10    5    6 2     
   11    5    7 1     
   12   10   17 1     
   13   11   12 ar    
   14   11   16 ar    
   15   12   13 ar    
   16   13   14 ar    
   17   14   15 ar    
   18   15   16 ar    
   19    2   18 1     
   20    6   19 1     
   21    7   20 1     
   22   10   21 1     
   23   10   22 1     
   24   12   23 1     
   25   13   24 1     
   26   14   25 1     
   27   15   26 1     
   28   16   27 1     
   29   17   28 1     
   30   17   29 1     
   31   17   30 1     
   32    7   31 1     
   33    7   32 1     
   34    8   33 1     
   35    8   34 1     
   36    9   35 1     
   37    9   36 1     
@<TRIPOS>SUBSTRUCTURE
      1 noname         1
@<TRIPOS>SET
LONE_PAIRS      STATIC     ATOMS    <user>   **** ""
6 31 32 33 34 35 36
DONOR_HYDROGENS      STATIC     ATOMS    <user>   **** ""
2 18 20
ATOM$BLUE        STATIC     ATOMS    COLORGROUP SYSTEM
6 31 32 33 34 35 36
ATOM$RED        STATIC     ATOMS    COLORGROUP SYSTEM
2 18 20
@<TRIPOS>COMMENT
> <Gold.Version>
2022.3.0

> <Gold.Id.Protein>
unknown|6c5f_clean|pdb

> <Gold.Protein.ActiveResidues>
 LEU49   SER50   GLN58   ILE95   LEU96   ILE97   ARG98   PRO1    PHE2    LEU3   
 LEU30   LYS32   PRO33   ASP35   ARG36   VAL37   ASN38   ILE61   SER62   SER63  
 ILE64   GLY65   VAL66   VAL67   PHE100  LEU102  GLU103  SER104  TRP105  GLN106 
 ILE107  GLY108  LYS109  ILE110  THR112  VAL113  PRO1    GLN58   PHE2    LEU96  
 LEU30   LYS32   PRO33   PHE2    PRO1    PRO101  LEU102  GLU103  VAL37   ASN38  
 LEU49   SER50   ILE61   SER62   SER63   ILE64   ILE64   GLY65   VAL66   VAL67  
 PRO33   ARG36   VAL37   PRO1    SER104  TRP105  GLN106  ILE107  GLY108  LYS109 
 ILE110  PRO1    PHE2    LEU3    ILE110  VAL113  LEU96   ILE97   ARG98   PHE2   
 PRO1   

> <Gold.Score>
     Score     S(PLP)   S(hbond)     S(cho)   S(metal)  DE(clash)   DE(tors)     intcor
     40.87     -39.93       1.00       0.00       0.00       0.01       1.03       0.02

> <Gold.PLP.Fitness>
40.8673

> <Gold.PLP.PLP>
-39.9250

> <Gold.PLP.part.hbond>
-1.9466

> <Gold.PLP.part.metal>
0.0000

> <Gold.PLP.part.buried>
1.8554

> <Gold.PLP.part.nonpolar>
-40.5599

> <Gold.PLP.part.repulsive>
0.0326

> <Gold.PLP.ligand.clash>
0.0069

> <Gold.PLP.ligand.torsion>
1.0347

> <Gold.PLP.Chemscore.Hbond>
1.0000

> <Gold.PLP.Chemscore.CHOScore>
0.0000

> <Gold.PLP.Chemscore.Metal>
0.0000

> <Gold.Chemscore.Hbonds>
donor molecule, donor type, donor heavy atom, donor atom, acceptor molecule, acceptor atom, score
      L1  H     7    20       P1  1923  0.99

> <Gold.PLP.Chemscore.Internal.Correction>
0.0185

> <Gold.PLP.Reference.RMSD>
5.1808

> <Gold.Rescore>
     Score         DG    S(hbond)    S(metal)    S(lipo)     H(rot)  DE(clash)    DE(int)     intcor
     17.29     -21.75       0.93        0.00     148.79       1.66       2.05       2.41       ----

> <Gold.Chemscore.Fitness>
17.2899

> <Gold.Chemscore.DG>
-21.7528

> <Gold.Chemscore.ZeroCoef>
-5.4800

> <Gold.Chemscore.Hbond>
0.9333

> <Gold.Chemscore.Metal>
0.0000

> <Gold.Chemscore.Lipo>
148.7851

> <Gold.Chemscore.Internal_Hbond>
0.0000

> <Gold.Chemscore.DEClash>
2.0524

> <Gold.Chemscore.DEInternal>
2.4105

> <Gold.Chemscore.Rot>
1.6611

> <Gold.Chemscore.Internal.Correction>
   9.000000E+99

> <Gold.Chemscore.Reference.RMSD>
0.0000

> <Gold.Chemscore.Hbonds>
donor molecule, donor type, donor heavy atom, donor atom, acceptor molecule, acceptor atom, score
      L1  H     7    20       P1  1923  0.90

> <Gold.Chemscore.Hbond.Weighted>
-3.1172

> <Gold.Chemscore.Metal.Weighted>
-0.0000

> <Gold.Chemscore.Lipo.Weighted>
-17.4079

> <Gold.Chemscore.Internal_Hbond.Weighted>
0.0000

> <Gold.Chemscore.DEClash.Weighted>
2.0524

> <Gold.Chemscore.DEInternal.Weighted>
2.4105

> <Gold.Chemscore.Rot.Weighted>
4.2523

> <Gold.Chemscore.Internal.Correction.Weighted>
   9.000000E+99

> <Gold.Reference.RMSD>
5.1808

#       Name:                00000001
#       Creating user name   hitesit
#       Creation time:       Thu Mar  2 16:48:41 2023


#       File generated by GOLD software.
#

@<TRIPOS>MOLECULE
00000001|prep_AF_1_R|mol2|1|dock7
    36    37     1
SMALL
USER_CHARGES


@<TRIPOS>ATOM
      1 C1         -36.8822 -42.4114   2.2026 C.2            1 noname             0.1635
      2 N1         -38.2514 -42.2365   2.4649 N.am           1 noname            -0.2225
      3 C2         -39.0355 -41.2785   1.8736 C.2            1 noname             0.2098
      4 C3         -38.4485 -40.3779   0.7969 C.3            1 noname             0.1150
      5 C4         -37.0428 -40.7290   0.3926 C.2            1 noname             0.0067
      6 C5         -36.3531 -41.6598   1.0637 C.2            1 noname             0.0922
      7 O1         -36.5417 -40.0752  -0.6344 O.3            1 noname            -0.2878
      8 O2         -36.2282 -43.1747   2.9267 O.2            1 noname            -0.2627
      9 O3         -40.2024 -41.1898   2.2348 O.2            1 noname            -0.2565
     10 C6         -38.3961 -38.9334   1.3583 C.3            1 noname            -0.0318
     11 C7         -39.3851 -40.5186  -0.4225 C.ar           1 noname            -0.0457
     12 C8         -40.1346 -41.6762  -0.6134 C.ar           1 noname            -0.0513
     13 C9         -40.9888 -41.8042  -1.6961 C.ar           1 noname            -0.0590
     14 C10        -41.1058 -40.7818  -2.6133 C.ar           1 noname            -0.0613
     15 C11        -40.3647 -39.6313  -2.4476 C.ar           1 noname            -0.0590
     16 C12        -39.5110 -39.5010  -1.3646 C.ar           1 noname            -0.0513
     17 C13        -37.2099 -38.5951   2.2504 C.3            1 noname            -0.0636
     18 H1         -38.6891 -42.8598   3.1358 H              1 noname            -0.2225
     19 H2         -35.3343 -41.8710   0.7419 H              1 noname             0.0922
     20 H3         -36.9401 -40.3624  -1.4919 H              1 noname            -0.2878
     21 H4         -39.3122 -38.7578   1.9355 H              1 noname            -0.0318
     22 H5         -38.4033 -38.2332   0.5139 H              1 noname            -0.0318
     23 H6         -40.0526 -42.4964   0.0920 H              1 noname            -0.0513
     24 H7         -41.5679 -42.7130  -1.8232 H              1 noname            -0.0590
     25 H8         -41.7763 -40.8821  -3.4603 H              1 noname            -0.0613
     26 H9         -40.4505 -38.8248  -3.1682 H              1 noname            -0.0590
     27 H10        -38.9343 -38.5887  -1.2564 H              1 noname            -0.0513
     28 H11        -36.2741 -38.6595   1.7004 H              1 noname            -0.0636
     29 H12        -37.2996 -37.5807   2.6334 H              1 noname            -0.0636
     30 H13        -37.1517 -39.2706   3.1007 H              1 noname            -0.0636
     31 ****       -35.5553 -40.2364  -0.6681 LP             1 noname             0.0000
     32 ****       -36.7158 -39.0984  -0.5099 LP             1 noname             0.0000
     33 ****       -36.6760 -43.6533   3.6820 LP             1 noname             0.0000
     34 ****       -35.2526 -43.3122   2.7560 LP             1 noname             0.0000
     35 ****       -40.5557 -41.8047   2.9399 LP             1 noname             0.0000
     36 ****       -40.8020 -40.5025   1.8247 LP             1 noname             0.0000
@<TRIPOS>BOND
    1    1    2 am    
    2    1    6 1     
    3    1    8 2     
    4    2    3 am    
    5    4    3 1     
    6    3    9 2     
    7    4    5 1     
    8    4   10 1     
    9    4   11 1     
   10    5    6 2     
   11    5    7 1     
   12   10   17 1     
   13   11   12 ar    
   14   11   16 ar    
   15   12   13 ar    
   16   13   14 ar    
   17   14   15 ar    
   18   15   16 ar    
   19    2   18 1     
   20    6   19 1     
   21    7   20 1     
   22   10   21 1     
   23   10   22 1     
   24   12   23 1     
   25   13   24 1     
   26   14   25 1     
   27   15   26 1     
   28   16   27 1     
   29   17   28 1     
   30   17   29 1     
   31   17   30 1     
   32    7   31 1     
   33    7   32 1     
   34    8   33 1     
   35    8   34 1     
   36    9   35 1     
   37    9   36 1     
@<TRIPOS>SUBSTRUCTURE
      1 noname         1
@<TRIPOS>SET
LONE_PAIRS      STATIC     ATOMS    <user>   **** ""
6 31 32 33 34 35 36
DONOR_HYDROGENS      STATIC     ATOMS    <user>   **** ""
2 18 20
ATOM$BLUE        STATIC     ATOMS    COLORGROUP SYSTEM
6 31 32 33 34 35 36
ATOM$RED        STATIC     ATOMS    COLORGROUP SYSTEM
2 18 20
@<TRIPOS>COMMENT
> <Gold.Version>
2022.3.0

> <Gold.Id.Protein>
unknown|6c5f_clean|pdb

> <Gold.Protein.ActiveResidues>
 LEU49   SER50   GLN58   ILE95   LEU96   ILE97   ARG98   PRO1    PHE2    LEU3   
 LEU30   LYS32   PRO33   ASP35   ARG36   VAL37   ASN38   ILE61   SER62   SER63  
 ILE64   GLY65   VAL66   VAL67   PHE100  LEU102  GLU103  SER104  TRP105  GLN106 
 ILE107  GLY108  LYS109  ILE110  THR112  VAL113  PRO1    GLN58   PHE2    LEU96  
 LEU30   LYS32   PRO33   PHE2    PRO1    PRO101  LEU102  GLU103  VAL37   ASN38  
 LEU49   SER50   ILE61   SER62   SER63   ILE64   ILE64   GLY65   VAL66   VAL67  
 PRO33   ARG36   VAL37   PRO1    SER104  TRP105  GLN106  ILE107  GLY108  LYS109 
 ILE110  PRO1    PHE2    LEU3    ILE110  VAL113  LEU96   ILE97   ARG98   PHE2   
 PRO1   

> <Gold.Score>
     Score     S(PLP)   S(hbond)     S(cho)   S(metal)  DE(clash)   DE(tors)     intcor
     39.85     -39.57       0.98       0.00       0.00       0.07       1.30       0.02

> <Gold.PLP.Fitness>
39.8452

> <Gold.PLP.PLP>
-39.5738

> <Gold.PLP.part.hbond>
-1.8990

> <Gold.PLP.part.metal>
0.0000

> <Gold.PLP.part.buried>
1.5250

> <Gold.PLP.part.nonpolar>
-40.5523

> <Gold.PLP.part.repulsive>
0.0365

> <Gold.PLP.ligand.clash>
0.0723

> <Gold.PLP.ligand.torsion>
1.3015

> <Gold.PLP.Chemscore.Hbond>
0.9760

> <Gold.PLP.Chemscore.CHOScore>
0.0000

> <Gold.PLP.Chemscore.Metal>
0.0000

> <Gold.Chemscore.Hbonds>
donor molecule, donor type, donor heavy atom, donor atom, acceptor molecule, acceptor atom, score
      L1  H     7    20       P1  1923  0.98

> <Gold.PLP.Chemscore.Internal.Correction>
0.0185

> <Gold.PLP.Reference.RMSD>
5.1367

> <Gold.Rescore>
     Score         DG    S(hbond)    S(metal)    S(lipo)     H(rot)  DE(clash)    DE(int)     intcor
     17.41     -21.89       0.95        0.00     149.41       1.66       1.89       2.59       ----

> <Gold.Chemscore.Fitness>
17.4120

> <Gold.Chemscore.DG>
-21.8923

> <Gold.Chemscore.ZeroCoef>
-5.4800

> <Gold.Chemscore.Hbond>
0.9532

> <Gold.Chemscore.Metal>
0.0000

> <Gold.Chemscore.Lipo>
149.4099

> <Gold.Chemscore.Internal_Hbond>
0.0000

> <Gold.Chemscore.DEClash>
1.8931

> <Gold.Chemscore.DEInternal>
2.5872

> <Gold.Chemscore.Rot>
1.6611

> <Gold.Chemscore.Internal.Correction>
   9.000000E+99

> <Gold.Chemscore.Reference.RMSD>
0.0000

> <Gold.Chemscore.Hbonds>
donor molecule, donor type, donor heavy atom, donor atom, acceptor molecule, acceptor atom, score
      L1  H     7    20       P1  1923  0.89

> <Gold.Chemscore.Hbond.Weighted>
-3.1836

> <Gold.Chemscore.Metal.Weighted>
-0.0000

> <Gold.Chemscore.Lipo.Weighted>
-17.4810

> <Gold.Chemscore.Internal_Hbond.Weighted>
0.0000

> <Gold.Chemscore.DEClash.Weighted>
1.8931

> <Gold.Chemscore.DEInternal.Weighted>
2.5872

> <Gold.Chemscore.Rot.Weighted>
4.2523

> <Gold.Chemscore.Internal.Correction.Weighted>
   9.000000E+99

> <Gold.Reference.RMSD>
5.1367

#       Name:                00000001
#       Creating user name   hitesit
#       Creation time:       Thu Mar  2 16:48:41 2023


#       File generated by GOLD software.
#

@<TRIPOS>MOLECULE
00000001|prep_AF_1_R|mol2|1|dock8
    36    37     1
SMALL
USER_CHARGES


@<TRIPOS>ATOM
      1 C1         -37.4652 -41.3593   2.5467 C.2            1 noname             0.1635
      2 N1         -38.8565 -41.2076   2.6698 N.am           1 noname            -0.2225
      3 C2         -39.6344 -40.4811   1.8042 C.2            1 noname             0.2098
      4 C3         -39.0075 -39.8493   0.5703 C.3            1 noname             0.1150
      5 C4         -37.5613 -40.2050   0.3579 C.2            1 noname             0.0067
      6 C5         -36.8846 -40.8907   1.2875 C.2            1 noname             0.0922
      7 O1         -37.0129 -39.8042  -0.7699 O.3            1 noname            -0.2878
      8 O2         -36.8353 -41.8720   3.4821 O.2            1 noname            -0.2627
      9 O3         -40.8281 -40.3752   2.0575 O.2            1 noname            -0.2565
     10 C6         -39.0602 -38.3092   0.7426 C.3            1 noname            -0.0318
     11 C7         -39.8423 -40.3523  -0.6272 C.ar           1 noname            -0.0457
     12 C8         -39.8891 -39.6282  -1.8154 C.ar           1 noname            -0.0513
     13 C9         -40.6229 -40.0802  -2.8996 C.ar           1 noname            -0.0590
     14 C10        -41.3304 -41.2604  -2.8160 C.ar           1 noname            -0.0613
     15 C11        -41.3050 -41.9871  -1.6449 C.ar           1 noname            -0.0590
     16 C12        -40.5705 -41.5373  -0.5601 C.ar           1 noname            -0.0513
     17 C13        -37.9404 -37.6794   1.5593 C.3            1 noname            -0.0636
     18 H1         -39.3162 -41.6656   3.4502 H              1 noname            -0.2225
     19 H2         -35.8362 -41.1140   1.0947 H              1 noname             0.0922
     20 H3         -37.3573 -40.3012  -1.5515 H              1 noname            -0.2878
     21 H4         -40.0124 -38.0516   1.2221 H              1 noname            -0.0318
     22 H5         -39.0614 -37.8492  -0.2532 H              1 noname            -0.0318
     23 H6         -39.3459 -38.6929  -1.9008 H              1 noname            -0.0513
     24 H7         -40.6416 -39.5029  -3.8181 H              1 noname            -0.0590
     25 H8         -41.9037 -41.6147  -3.6662 H              1 noname            -0.0613
     26 H9         -41.8626 -42.9150  -1.5726 H              1 noname            -0.0590
     27 H10        -40.5683 -42.1230   0.3528 H              1 noname            -0.0513
     28 H11        -36.9757 -37.8216   1.0781 H              1 noname            -0.0636
     29 H12        -38.1030 -36.6089   1.6649 H              1 noname            -0.0636
     30 H13        -37.8899 -38.1109   2.5562 H              1 noname            -0.0636
     31 ****       -36.0238 -39.9400  -0.7127 LP             1 noname             0.0000
     32 ****       -37.2091 -38.8316  -0.8952 LP             1 noname             0.0000
     33 ****       -37.3176 -42.1695   4.3060 LP             1 noname             0.0000
     34 ****       -35.8444 -41.9884   3.4132 LP             1 noname             0.0000
     35 ****       -41.2066 -40.8112   2.8740 LP             1 noname             0.0000
     36 ****       -41.4241 -39.8527   1.4478 LP             1 noname             0.0000
@<TRIPOS>BOND
    1    1    2 am    
    2    1    6 1     
    3    1    8 2     
    4    2    3 am    
    5    4    3 1     
    6    3    9 2     
    7    4    5 1     
    8    4   10 1     
    9    4   11 1     
   10    5    6 2     
   11    5    7 1     
   12   10   17 1     
   13   11   12 ar    
   14   11   16 ar    
   15   12   13 ar    
   16   13   14 ar    
   17   14   15 ar    
   18   15   16 ar    
   19    2   18 1     
   20    6   19 1     
   21    7   20 1     
   22   10   21 1     
   23   10   22 1     
   24   12   23 1     
   25   13   24 1     
   26   14   25 1     
   27   15   26 1     
   28   16   27 1     
   29   17   28 1     
   30   17   29 1     
   31   17   30 1     
   32    7   31 1     
   33    7   32 1     
   34    8   33 1     
   35    8   34 1     
   36    9   35 1     
   37    9   36 1     
@<TRIPOS>SUBSTRUCTURE
      1 noname         1
@<TRIPOS>SET
LONE_PAIRS      STATIC     ATOMS    <user>   **** ""
6 31 32 33 34 35 36
DONOR_HYDROGENS      STATIC     ATOMS    <user>   **** ""
2 18 20
ATOM$BLUE        STATIC     ATOMS    COLORGROUP SYSTEM
6 31 32 33 34 35 36
ATOM$RED        STATIC     ATOMS    COLORGROUP SYSTEM
2 18 20
@<TRIPOS>COMMENT
> <Gold.Version>
2022.3.0

> <Gold.Id.Protein>
unknown|6c5f_clean|pdb

> <Gold.Protein.ActiveResidues>
 LEU49   SER50   GLN58   ILE95   LEU96   ILE97   ARG98   PRO1    PHE2    LEU3   
 LEU30   LYS32   PRO33   ASP35   ARG36   VAL37   ASN38   ILE61   SER62   SER63  
 ILE64   GLY65   VAL66   VAL67   PHE100  LEU102  GLU103  SER104  TRP105  GLN106 
 ILE107  GLY108  LYS109  ILE110  THR112  VAL113  PRO1    GLN58   PHE2    LEU96  
 LEU30   LYS32   PRO33   PHE2    PRO1    PRO101  LEU102  GLU103  VAL37   ASN38  
 LEU49   SER50   ILE61   SER62   SER63   ILE64   ILE64   GLY65   VAL66   VAL67  
 PRO33   ARG36   VAL37   PRO1    SER104  TRP105  GLN106  ILE107  GLY108  LYS109 
 ILE110  PRO1    PHE2    LEU3    ILE110  VAL113  LEU96   ILE97   ARG98   PHE2   
 PRO1   

> <Gold.Score>
     Score     S(PLP)   S(hbond)     S(cho)   S(metal)  DE(clash)   DE(tors)     intcor
     39.11     -39.53       0.69       0.00       0.00       0.00       1.25       0.02

> <Gold.PLP.Fitness>
39.1125

> <Gold.PLP.PLP>
-39.5306

> <Gold.PLP.part.hbond>
-1.2813

> <Gold.PLP.part.metal>
0.0000

> <Gold.PLP.part.buried>
1.5772

> <Gold.PLP.part.nonpolar>
-39.8291

> <Gold.PLP.part.repulsive>
0.0785

> <Gold.PLP.ligand.clash>
0.0000

> <Gold.PLP.ligand.torsion>
1.2503

> <Gold.PLP.Chemscore.Hbond>
0.6880

> <Gold.PLP.Chemscore.CHOScore>
0.0000

> <Gold.PLP.Chemscore.Metal>
0.0000

> <Gold.Chemscore.Hbonds>
donor molecule, donor type, donor heavy atom, donor atom, acceptor molecule, acceptor atom, score
      L1  H     7    20       P1  1923  0.67

> <Gold.PLP.Chemscore.Internal.Correction>
0.0185

> <Gold.PLP.Reference.RMSD>
4.9873

> <Gold.Rescore>
     Score         DG    S(hbond)    S(metal)    S(lipo)     H(rot)  DE(clash)    DE(int)     intcor
     18.11     -22.81       0.94        0.00     157.69       1.66       2.05       2.66       ----

> <Gold.Chemscore.Fitness>
18.1053

> <Gold.Chemscore.DG>
-22.8122

> <Gold.Chemscore.ZeroCoef>
-5.4800

> <Gold.Chemscore.Hbond>
0.9384

> <Gold.Chemscore.Metal>
0.0000

> <Gold.Chemscore.Lipo>
157.6944

> <Gold.Chemscore.Internal_Hbond>
0.0000

> <Gold.Chemscore.DEClash>
2.0483

> <Gold.Chemscore.DEInternal>
2.6587

> <Gold.Chemscore.Rot>
1.6611

> <Gold.Chemscore.Internal.Correction>
   9.000000E+99

> <Gold.Chemscore.Reference.RMSD>
0.0000

> <Gold.Chemscore.Hbonds>
donor molecule, donor type, donor heavy atom, donor atom, acceptor molecule, acceptor atom, score
      L1  H     7    20       P1  1923  0.67

> <Gold.Chemscore.Hbond.Weighted>
-3.1343

> <Gold.Chemscore.Metal.Weighted>
-0.0000

> <Gold.Chemscore.Lipo.Weighted>
-18.4502

> <Gold.Chemscore.Internal_Hbond.Weighted>
0.0000

> <Gold.Chemscore.DEClash.Weighted>
2.0483

> <Gold.Chemscore.DEInternal.Weighted>
2.6587

> <Gold.Chemscore.Rot.Weighted>
4.2523

> <Gold.Chemscore.Internal.Correction.Weighted>
   9.000000E+99

> <Gold.Reference.RMSD>
4.9873

