#       Name:                CT1002167954
#       Creating user name   hitesit
#       Creation time:       Sun Apr 16 02:24:49 2023


#       File generated by GOLD software.
#

@<TRIPOS>MOLECULE
CT1002167954|ligand_prepared|mol2|1|dock6
    29    30     1
SMALL
NO_CHARGES


@<TRIPOS>ATOM
      1 C1         127.2765 267.3995 324.9389 C.3            1 RES1               0.0000
      2 C2         125.7993 267.1339 325.2942 C.ar           1 RES1               0.0000
      3 C3         127.4555 268.9147 324.9563 C.2            1 RES1               0.0000
      4 C4         128.1059 266.6629 325.9849 C.2            1 RES1               0.0000
      5 C5         127.6883 266.8722 323.5447 C.3            1 RES1               0.0000
      6 C6         125.1250 266.0439 324.7519 C.ar           1 RES1               0.0000
      7 C7         125.0997 267.9669 326.1632 C.ar           1 RES1               0.0000
      8 N8         128.1342 269.4587 326.0068 N.am           1 RES1               0.0000
      9 O9         126.9745 269.6251 324.0822 O.2            1 RES1               0.0000
     10 N10        128.8654 267.4113 326.8456 N.am           1 RES1               0.0000
     11 O11        128.0958 265.4420 326.0823 O.2            1 RES1               0.0000
     12 C12        129.0335 267.3939 323.0646 C.3            1 RES1               0.0000
     13 C13        123.8001 265.7940 325.0692 C.ar           1 RES1               0.0000
     14 C14        123.7747 267.7153 326.4790 C.ar           1 RES1               0.0000
     15 C15        128.8933 268.7771 326.9238 C.2            1 RES1               0.0000
     16 C16        123.1243 266.6291 325.9332 C.ar           1 RES1               0.0000
     17 O17        129.5603 269.3777 327.7614 O.2            1 RES1               0.0000
     18 H18        127.7263 265.7764 323.5786 H              1 RES1               0.0000
     19 H19        126.9186 267.1586 322.8173 H              1 RES1               0.0000
     20 H20        125.6397 265.3771 324.0683 H              1 RES1               0.0000
     21 H21        125.5908 268.8279 326.6037 H              1 RES1               0.0000
     22 H22        128.0714 270.4653 326.1211 H              1 RES1               0.0000
     23 H23        129.4656 266.9033 327.4874 H              1 RES1               0.0000
     24 H24        129.2742 266.9934 322.0821 H              1 RES1               0.0000
     25 H25        129.0235 268.4796 322.9948 H              1 RES1               0.0000
     26 H26        129.8264 267.1057 323.7516 H              1 RES1               0.0000
     27 H27        123.2924 264.9386 324.6359 H              1 RES1               0.0000
     28 H28        123.2466 268.3756 327.1589 H              1 RES1               0.0000
     29 H29        122.0866 266.4329 326.1818 H              1 RES1               0.0000
@<TRIPOS>BOND
    1    1    2 1     
    2    1    3 1     
    3    1    4 1     
    4    1    5 1     
    5    2    6 ar    
    6    2    7 ar    
    7    3    8 1     
    8    3    9 2     
    9    4   10 1     
   10    4   11 2     
   11    5   12 1     
   12    5   18 1     
   13    5   19 1     
   14    6   13 ar    
   15    6   20 1     
   16    7   14 ar    
   17    7   21 1     
   18    8   15 1     
   19    8   22 1     
   20   10   15 1     
   21   10   23 1     
   22   12   24 1     
   23   12   25 1     
   24   12   26 1     
   25   13   16 ar    
   26   13   27 1     
   27   14   16 ar    
   28   14   28 1     
   29   15   17 2     
   30   16   29 1     
@<TRIPOS>SUBSTRUCTURE
      1 RES1           1
@<TRIPOS>SET
DONOR_HYDROGENS      STATIC     ATOMS    <user>   **** ""
2 22 23
ATOM$RED        STATIC     ATOMS    COLORGROUP SYSTEM
2 22 23
@<TRIPOS>COMMENT
> <Gold.Version>
2022.3.0

> <Gold.Id.Protein>
unknown|5uo4_clean|pdb

> <Gold.Protein.RotatedTorsions>
[  761  739  740  741 ] final   31.21 input   85.38 | X-H torsion
[  791  780  781  782 ] final   57.40 input   98.79 | X-H torsion
[ 1906 1895 1896 1897 ] final   82.89 input  105.28 | X-H torsion
[ 3221 3203 3202 3200 ] final  -26.89 input   59.99 | X-H torsion
[ 12734 12725 12726 12727 ] final  126.27 input   72.11 | X-H torsion
[ 12769 12762 12763 12764 ] final   40.43 input   62.98 | X-H torsion
[ 12775 12768 12766 12763 ] final   22.40 input   59.99 | X-H torsion
[  817  803  804  805 ] final  -22.07 input   48.10 | X-H torsion
[  823  809  807  804 ] final   80.83 input   60.00 | X-H torsion
[ 2020 2015 2014 2011 ] final  -84.63 input   59.99 | X-H torsion
[ 1953 1932 1933 1934 ] final  -96.61 input  111.26 | X-H torsion
[ 2042 2032 2033 2034 ] final  145.75 input  116.25 | X-H torsion
[ 2046 2037 2036 2033 ] final -112.60 input   60.01 | X-H torsion
[ 11769 11758 11759 11760 ] final  -35.87 input   53.32 | X-H torsion
[ 13520  631  630  629 ] final  -33.22 input    0.00 | X-H torsion
[ 13523  742  741  740 ] final  -95.82 input    0.00 | X-H torsion
[ 13526 1766 1765 1764 ] final  149.21 input    0.00 | X-H torsion
[ 13533 1898 1897 1896 ] final  -88.01 input   -0.00 | X-H torsion
[ 13537 3313 3312 3311 ] final  116.94 input   -0.00 | X-H torsion
[ 13540 12683 12682 12681 ] final -126.96 input   -0.00 | X-H torsion
[ 13543 12728 12727 12726 ] final  167.61 input   -0.00 | X-H torsion
[ 13546 12765 12764 12763 ] final  134.43 input   -0.00 | X-H torsion
[ 13551 12793 12792 12791 ] final  160.02 input    0.00 | X-H torsion
[ 13553  703  702  701 ] final   13.43 input    0.00 | X-H torsion
[ 13555  783  782  781 ] final  108.71 input    0.00 | X-H torsion
[ 13562 11761 11760 11759 ] final  -10.84 input   -0.00 | X-H torsion
[ 13568 11734 11733 11732 ] final  -78.40 input   -0.00 | X-H torsion

> <Gold.Protein.ActiveResidues>
 LEU321  HIS322  LEU323  LYS324  SER325  THR326  GLU365  PHE366  ASP368  GLN369 
 TYR370  SER372  SER373  TYR408  HIS412  ARG415  ASN416  CYS673  ARG674  PRO678 
 TYR703  ARG704  LEU705  THR706  PRO707 

> <Gold.Protein.RotatedAtoms>
  123.4555  269.4071  332.4694 H   0  0  0  0  0  0  0  0  0  0  0  0  # atno 761  bound_to 739 
  121.5506  269.7347  332.1066 H   0  0  0  0  0  0  0  0  0  0  0  0  # atno 791  bound_to 780 
  117.7249  268.8253  330.6407 H   0  0  0  0  0  0  0  0  0  0  0  0  # atno 817  bound_to 803 
  116.4467  270.3377  327.4767 H   0  0  0  0  0  0  0  0  0  0  0  0  # atno 823  bound_to 809 
  124.8727  271.1519  319.2834 H   0  0  0  0  0  0  0  0  0  0  0  0  # atno 1906 bound_to 1895
  126.8006  269.0579  319.0033 H   0  0  0  0  0  0  0  0  0  0  0  0  # atno 1953 bound_to 1932
  130.7565  270.1901  321.8741 H   0  0  0  0  0  0  0  0  0  0  0  0  # atno 2020 bound_to 2015
  130.0786  269.0183  319.3122 H   0  0  0  0  0  0  0  0  0  0  0  0  # atno 2042 bound_to 2032
  129.3135  266.7315  317.4434 H   0  0  0  0  0  0  0  0  0  0  0  0  # atno 2046 bound_to 2037
  127.8051  265.2140  320.7168 H   0  0  0  0  0  0  0  0  0  0  0  0  # atno 3221 bound_to 3203
  134.3609  263.6128  330.1396 H   0  0  0  0  0  0  0  0  0  0  0  0  # atno 11769 bound_to 11758
  119.8208  263.0350  329.5894 H   0  0  0  0  0  0  0  0  0  0  0  0  # atno 12734 bound_to 12725
  120.1490  265.7094  325.8086 H   0  0  0  0  0  0  0  0  0  0  0  0  # atno 12769 bound_to 12762
  117.4060  264.3545  322.5276 H   0  0  0  0  0  0  0  0  0  0  0  0  # atno 12775 bound_to 12768
  125.6310  268.4241  331.4864 LP  0  0  0  0  0  0  0  0  0  0  0  0  # atno 13520 bound_to 631 
  124.2416  267.5169  331.9833 LP  0  0  0  0  0  0  0  0  0  0  0  0  # atno 13521 bound_to 631 
  124.4787  270.8233  332.4523 LP  0  0  0  0  0  0  0  0  0  0  0  0  # atno 13522 bound_to 739 
  120.9413  271.0990  329.1055 LP  0  0  0  0  0  0  0  0  0  0  0  0  # atno 13523 bound_to 742 
  121.7132  269.7212  328.3943 LP  0  0  0  0  0  0  0  0  0  0  0  0  # atno 13524 bound_to 742 
  122.1068  269.2756  330.5198 LP  0  0  0  0  0  0  0  0  0  0  0  0  # atno 13525 bound_to 780 
  123.2656  270.9010  320.2915 LP  0  0  0  0  0  0  0  0  0  0  0  0  # atno 13526 bound_to 1766
  123.4861  272.6159  320.3942 LP  0  0  0  0  0  0  0  0  0  0  0  0  # atno 13527 bound_to 1766
  126.2280  272.2266  319.4904 LP  0  0  0  0  0  0  0  0  0  0  0  0  # atno 13532 bound_to 1895
  129.1501  269.1874  319.3674 LP  0  0  0  0  0  0  0  0  0  0  0  0  # atno 13533 bound_to 1898
  128.2057  267.8273  319.8755 LP  0  0  0  0  0  0  0  0  0  0  0  0  # atno 13534 bound_to 1898
  126.2516  265.6960  320.6830 LP  0  0  0  0  0  0  0  0  0  0  0  0  # atno 13535 bound_to 3203
  127.4053  266.5979  319.9606 LP  0  0  0  0  0  0  0  0  0  0  0  0  # atno 13536 bound_to 3203
  122.1756  260.2240  323.6600 LP  0  0  0  0  0  0  0  0  0  0  0  0  # atno 13537 bound_to 3313
  123.3191  258.9278  323.7700 LP  0  0  0  0  0  0  0  0  0  0  0  0  # atno 13538 bound_to 3313
  118.0263  265.9111  328.9312 LP  0  0  0  0  0  0  0  0  0  0  0  0  # atno 13540 bound_to 12683
  118.4232  265.9968  330.6150 LP  0  0  0  0  0  0  0  0  0  0  0  0  # atno 13541 bound_to 12683
  118.3060  263.7078  329.0297 LP  0  0  0  0  0  0  0  0  0  0  0  0  # atno 13542 bound_to 12725
  118.3065  262.7970  325.5229 LP  0  0  0  0  0  0  0  0  0  0  0  0  # atno 13543 bound_to 12728
  118.9923  262.1780  326.9880 LP  0  0  0  0  0  0  0  0  0  0  0  0  # atno 13544 bound_to 12728
  119.1306  264.4215  326.4018 LP  0  0  0  0  0  0  0  0  0  0  0  0  # atno 13545 bound_to 12762
  122.0315  265.3386  323.4583 LP  0  0  0  0  0  0  0  0  0  0  0  0  # atno 13546 bound_to 12765
  120.8831  266.5681  323.8702 LP  0  0  0  0  0  0  0  0  0  0  0  0  # atno 13547 bound_to 12765
  117.5971  265.8656  321.9538 LP  0  0  0  0  0  0  0  0  0  0  0  0  # atno 13548 bound_to 12768
  116.2282  265.4567  322.7448 LP  0  0  0  0  0  0  0  0  0  0  0  0  # atno 13549 bound_to 12768
  119.3564  261.0146  324.2448 LP  0  0  0  0  0  0  0  0  0  0  0  0  # atno 13551 bound_to 12793
  120.6351  261.7786  323.3609 LP  0  0  0  0  0  0  0  0  0  0  0  0  # atno 13552 bound_to 12793
  123.2905  272.9843  333.3497 LP  0  0  0  0  0  0  0  0  0  0  0  0  # atno 13553 bound_to 703 
  122.6970  272.3897  331.8350 LP  0  0  0  0  0  0  0  0  0  0  0  0  # atno 13554 bound_to 703 
  119.3060  271.6977  331.4849 LP  0  0  0  0  0  0  0  0  0  0  0  0  # atno 13555 bound_to 783 
  119.0759  270.6024  332.8068 LP  0  0  0  0  0  0  0  0  0  0  0  0  # atno 13556 bound_to 783 
  118.8264  269.9398  329.8641 LP  0  0  0  0  0  0  0  0  0  0  0  0  # atno 13557 bound_to 803 
  117.9466  270.1209  328.0685 LP  0  0  0  0  0  0  0  0  0  0  0  0  # atno 13558 bound_to 809 
  117.6325  271.3752  327.0712 LP  0  0  0  0  0  0  0  0  0  0  0  0  # atno 13559 bound_to 809 
  130.6891  271.6799  322.5250 LP  0  0  0  0  0  0  0  0  0  0  0  0  # atno 13560 bound_to 2015
  131.9664  271.2444  321.6055 LP  0  0  0  0  0  0  0  0  0  0  0  0  # atno 13561 bound_to 2015
  130.5639  265.6604  329.5130 LP  0  0  0  0  0  0  0  0  0  0  0  0  # atno 13562 bound_to 11761
  130.3886  265.6891  331.2359 LP  0  0  0  0  0  0  0  0  0  0  0  0  # atno 13563 bound_to 11761
  126.1006  270.1127  317.8025 LP  0  0  0  0  0  0  0  0  0  0  0  0  # atno 13564 bound_to 1932
  131.6652  269.6509  318.9365 LP  0  0  0  0  0  0  0  0  0  0  0  0  # atno 13565 bound_to 2032
  130.2868  265.4324  317.3315 LP  0  0  0  0  0  0  0  0  0  0  0  0  # atno 13566 bound_to 2037
  130.8898  266.9311  317.0925 LP  0  0  0  0  0  0  0  0  0  0  0  0  # atno 13567 bound_to 2037
  135.2266  265.2122  328.1457 LP  0  0  0  0  0  0  0  0  0  0  0  0  # atno 13568 bound_to 11734
  134.3106  264.2465  327.0374 LP  0  0  0  0  0  0  0  0  0  0  0  0  # atno 13569 bound_to 11734
  133.8887  262.3363  329.0437 LP  0  0  0  0  0  0  0  0  0  0  0  0  # atno 13570 bound_to 11758

> <Gold.Score>
     Fitness  S(hb_ext) S(vdw_ext)  S(hb_int)    S(int)      intcor
     35.96       6.00      22.30       0.00      -0.70      -0.76

> <Gold.Goldscore.Fitness>
35.9648

> <Gold.Goldscore.Internal.Vdw>
-0.8300

> <Gold.Goldscore.Internal.Torsion>
-0.6299

> <Gold.Goldscore.External.Vdw>
22.3027

> <Gold.Goldscore.Internal.HBond>
0.0000

> <Gold.Goldscore.External.HBond>
6.0000

> <Gold.Goldscore.Internal.Correction>
-0.7585

> <Gold.Goldscore.Hbonds>
donor molecule, donor type, donor heavy atom, donor atom, acceptor molecule, acceptor atom, score
      P1  H 11765 11777       L1    11  1.00

> <Gold.Goldscore.Internal.Vdw.Weighted>
-0.8300

> <Gold.Goldscore.Internal.Torsion.Weighted>
-0.6299

> <Gold.Goldscore.External.Vdw.Weighted>
30.6662

> <Gold.Goldscore.Internal.HBond.Weighted>
0.0000

> <Gold.Goldscore.External.HBond.Weighted>
6.0000

> <Gold.Goldscore.Internal.Correction.Weighted>
-0.7585

> <Gold.Rescore>
     Score     S(PLP)   S(hbond)     S(cho)   S(metal)  DE(clash)   DE(tors)     intcor
     36.24     -34.04       1.29       0.00       0.00       0.85       0.41       ----

> <Gold.PLP.Fitness>
36.2375

> <Gold.PLP.PLP>
-34.0447

> <Gold.PLP.part.hbond>
-2.0000

> <Gold.PLP.part.metal>
0.0000

> <Gold.PLP.part.buried>
-4.5344

> <Gold.PLP.part.nonpolar>
-27.2566

> <Gold.PLP.part.repulsive>
0.0898

> <Gold.PLP.ligand.clash>
0.8528

> <Gold.PLP.ligand.torsion>
0.4140

> <Gold.PLP.Chemscore.Hbond>
1.2912

> <Gold.PLP.Chemscore.CHOScore>
0.0000

> <Gold.PLP.Chemscore.Metal>
0.0000

> <Gold.Chemscore.Hbonds>
donor molecule, donor type, donor heavy atom, donor atom, acceptor molecule, acceptor atom, score
      P1  H 11765 11777       L1    11  0.98
      P1  H 11768 11781       L1    11  0.03

> <Gold.PLP.Chemscore.Internal.Correction>
   9.000000E+99

