#       Name:                CT1002167954
#       Creating user name   hitesit
#       Creation time:       Sun Apr 16 02:24:50 2023


#       File generated by GOLD software.
#

@<TRIPOS>MOLECULE
CT1002167954|ligand_prepared|mol2|1|dock8
    29    30     1
SMALL
NO_CHARGES


@<TRIPOS>ATOM
      1 C1         126.9936 267.6019 325.4749 C.3            1 RES1               0.0000
      2 C2         127.8259 267.0622 324.2939 C.ar           1 RES1               0.0000
      3 C3         127.9280 267.6282 326.6809 C.2            1 RES1               0.0000
      4 C4         126.4893 268.9762 325.0485 C.2            1 RES1               0.0000
      5 C5         125.7654 266.7295 325.8241 C.3            1 RES1               0.0000
      6 C6         128.4308 267.9360 323.3954 C.ar           1 RES1               0.0000
      7 C7         127.9997 265.6956 324.0918 C.ar           1 RES1               0.0000
      8 N8         128.3829 268.8432 327.1013 N.am           1 RES1               0.0000
      9 O9         128.2917 266.5956 327.2301 O.2            1 RES1               0.0000
     10 N10        126.9505 270.0701 325.7329 N.am           1 RES1               0.0000
     11 O11        125.7095 269.1229 324.1154 O.2            1 RES1               0.0000
     12 C12        124.7739 267.4108 326.7540 C.3            1 RES1               0.0000
     13 C13        129.1846 267.4610 322.3350 C.ar           1 RES1               0.0000
     14 C14        128.7537 265.2227 323.0305 C.ar           1 RES1               0.0000
     15 C15        127.8981 270.0684 326.7200 C.2            1 RES1               0.0000
     16 C16        129.3469 266.1043 322.1520 C.ar           1 RES1               0.0000
     17 O17        128.3016 271.0993 327.2506 O.2            1 RES1               0.0000
     18 H18        125.2492 266.4584 324.8949 H              1 RES1               0.0000
     19 H19        126.1135 265.8028 326.2969 H              1 RES1               0.0000
     20 H20        128.3121 269.0069 323.5218 H              1 RES1               0.0000
     21 H21        127.5414 264.9835 324.7697 H              1 RES1               0.0000
     22 H22        129.1551 268.8406 327.7602 H              1 RES1               0.0000
     23 H23        126.5503 270.9690 325.4834 H              1 RES1               0.0000
     24 H24        123.9317 266.7556 326.9668 H              1 RES1               0.0000
     25 H25        125.2472 267.6717 327.6983 H              1 RES1               0.0000
     26 H26        124.3880 268.3235 326.3046 H              1 RES1               0.0000
     27 H27        129.6482 268.1589 321.6456 H              1 RES1               0.0000
     28 H28        128.8783 264.1541 322.8901 H              1 RES1               0.0000
     29 H29        129.9378 265.7324 321.3215 H              1 RES1               0.0000
@<TRIPOS>BOND
    1    1    2 1     
    2    1    3 1     
    3    1    4 1     
    4    1    5 1     
    5    2    6 ar    
    6    2    7 ar    
    7    3    8 1     
    8    3    9 2     
    9    4   10 1     
   10    4   11 2     
   11    5   12 1     
   12    5   18 1     
   13    5   19 1     
   14    6   13 ar    
   15    6   20 1     
   16    7   14 ar    
   17    7   21 1     
   18    8   15 1     
   19    8   22 1     
   20   10   15 1     
   21   10   23 1     
   22   12   24 1     
   23   12   25 1     
   24   12   26 1     
   25   13   16 ar    
   26   13   27 1     
   27   14   16 ar    
   28   14   28 1     
   29   15   17 2     
   30   16   29 1     
@<TRIPOS>SUBSTRUCTURE
      1 RES1           1
@<TRIPOS>SET
DONOR_HYDROGENS      STATIC     ATOMS    <user>   **** ""
2 22 23
ATOM$RED        STATIC     ATOMS    COLORGROUP SYSTEM
2 22 23
@<TRIPOS>COMMENT
> <Gold.Version>
2022.3.0

> <Gold.Id.Protein>
unknown|5uo4_clean|pdb

> <Gold.Protein.RotatedTorsions>
[  761  739  740  741 ] final -168.32 input   85.38 | X-H torsion
[  791  780  781  782 ] final  164.16 input   98.79 | X-H torsion
[ 1906 1895 1896 1897 ] final -139.30 input  105.28 | X-H torsion
[ 3221 3203 3202 3200 ] final   67.14 input   59.99 | X-H torsion
[ 12734 12725 12726 12727 ] final -138.36 input   72.11 | X-H torsion
[ 12769 12762 12763 12764 ] final   62.05 input   62.98 | X-H torsion
[ 12775 12768 12766 12763 ] final  119.91 input   59.99 | X-H torsion
[  817  803  804  805 ] final  102.80 input   48.10 | X-H torsion
[  823  809  807  804 ] final   65.36 input   60.00 | X-H torsion
[ 2020 2015 2014 2011 ] final  141.12 input   59.99 | X-H torsion
[ 1953 1932 1933 1934 ] final  -84.57 input  111.26 | X-H torsion
[ 2042 2032 2033 2034 ] final  138.84 input  116.25 | X-H torsion
[ 2046 2037 2036 2033 ] final -153.76 input   60.01 | X-H torsion
[ 11769 11758 11759 11760 ] final   81.37 input   53.32 | X-H torsion
[ 13520  631  630  629 ] final    0.01 input    0.00 | X-H torsion
[ 13523  742  741  740 ] final   57.47 input    0.00 | X-H torsion
[ 13526 1766 1765 1764 ] final   86.40 input    0.00 | X-H torsion
[ 13533 1898 1897 1896 ] final   40.80 input   -0.00 | X-H torsion
[ 13537 3313 3312 3311 ] final  150.72 input   -0.00 | X-H torsion
[ 13540 12683 12682 12681 ] final -123.12 input   -0.00 | X-H torsion
[ 13543 12728 12727 12726 ] final   73.56 input   -0.00 | X-H torsion
[ 13546 12765 12764 12763 ] final  155.01 input   -0.00 | X-H torsion
[ 13551 12793 12792 12791 ] final  -87.61 input    0.00 | X-H torsion
[ 13553  703  702  701 ] final -163.72 input    0.00 | X-H torsion
[ 13555  783  782  781 ] final  -90.62 input    0.00 | X-H torsion
[ 13562 11761 11760 11759 ] final -121.51 input   -0.00 | X-H torsion
[ 13568 11734 11733 11732 ] final  -55.26 input   -0.00 | X-H torsion

> <Gold.Protein.ActiveResidues>
 LEU321  HIS322  LEU323  LYS324  SER325  THR326  GLU365  PHE366  ASP368  GLN369 
 TYR370  SER372  SER373  TYR408  HIS412  ARG415  ASN416  CYS673  ARG674  PRO678 
 TYR703  ARG704  LEU705  THR706  PRO707 

> <Gold.Protein.RotatedAtoms>
  124.6855  270.6329  332.3568 H   0  0  0  0  0  0  0  0  0  0  0  0  # atno 761  bound_to 739 
  122.1543  268.6945  331.3806 H   0  0  0  0  0  0  0  0  0  0  0  0  # atno 791  bound_to 780 
  118.3789  269.4808  329.3697 H   0  0  0  0  0  0  0  0  0  0  0  0  # atno 817  bound_to 803 
  116.5270  270.1559  327.6314 H   0  0  0  0  0  0  0  0  0  0  0  0  # atno 823  bound_to 809 
  125.8284  272.2770  319.9714 H   0  0  0  0  0  0  0  0  0  0  0  0  # atno 1906 bound_to 1895
  126.9410  269.1771  318.9981 H   0  0  0  0  0  0  0  0  0  0  0  0  # atno 1953 bound_to 1932
  130.8761  271.8057  322.4658 H   0  0  0  0  0  0  0  0  0  0  0  0  # atno 2020 bound_to 2015
  130.0656  269.0061  319.2068 H   0  0  0  0  0  0  0  0  0  0  0  0  # atno 2042 bound_to 2032
  129.2956  266.0759  317.4958 H   0  0  0  0  0  0  0  0  0  0  0  0  # atno 2046 bound_to 2037
  127.7693  266.3928  320.0215 H   0  0  0  0  0  0  0  0  0  0  0  0  # atno 3221 bound_to 3203
  133.6920  262.2756  329.9302 H   0  0  0  0  0  0  0  0  0  0  0  0  # atno 11769 bound_to 11758
  119.0885  264.0998  329.8182 H   0  0  0  0  0  0  0  0  0  0  0  0  # atno 12734 bound_to 12725
  119.8730  265.8763  325.8791 H   0  0  0  0  0  0  0  0  0  0  0  0  # atno 12769 bound_to 12762
  116.2572  265.1052  322.8445 H   0  0  0  0  0  0  0  0  0  0  0  0  # atno 12775 bound_to 12768
  125.6349  268.0040  331.2241 LP  0  0  0  0  0  0  0  0  0  0  0  0  # atno 13520 bound_to 631 
  124.2377  267.9370  332.2456 LP  0  0  0  0  0  0  0  0  0  0  0  0  # atno 13521 bound_to 631 
  123.2746  269.6232  332.5626 LP  0  0  0  0  0  0  0  0  0  0  0  0  # atno 13522 bound_to 739 
  121.9823  270.0133  328.3456 LP  0  0  0  0  0  0  0  0  0  0  0  0  # atno 13523 bound_to 742 
  120.6722  270.8069  329.1542 LP  0  0  0  0  0  0  0  0  0  0  0  0  # atno 13524 bound_to 742 
  121.5082  270.3071  331.2397 LP  0  0  0  0  0  0  0  0  0  0  0  0  # atno 13525 bound_to 780 
  123.1577  271.3432  321.0709 LP  0  0  0  0  0  0  0  0  0  0  0  0  # atno 13526 bound_to 1766
  123.5939  272.1737  319.6148 LP  0  0  0  0  0  0  0  0  0  0  0  0  # atno 13527 bound_to 1766
  125.2763  271.1063  318.8054 LP  0  0  0  0  0  0  0  0  0  0  0  0  # atno 13532 bound_to 1895
  128.3637  268.3282  320.4083 LP  0  0  0  0  0  0  0  0  0  0  0  0  # atno 13533 bound_to 1898
  128.9921  268.6865  318.8345 LP  0  0  0  0  0  0  0  0  0  0  0  0  # atno 13534 bound_to 1898
  127.4524  265.0453  320.8763 LP  0  0  0  0  0  0  0  0  0  0  0  0  # atno 13535 bound_to 3203
  126.2405  266.0607  320.4679 LP  0  0  0  0  0  0  0  0  0  0  0  0  # atno 13536 bound_to 3203
  121.9110  259.7963  323.6723 LP  0  0  0  0  0  0  0  0  0  0  0  0  # atno 13537 bound_to 3313
  123.5838  259.3555  323.7576 LP  0  0  0  0  0  0  0  0  0  0  0  0  # atno 13538 bound_to 3313
  117.9711  265.9027  328.9466 LP  0  0  0  0  0  0  0  0  0  0  0  0  # atno 13540 bound_to 12683
  118.4784  266.0052  330.5995 LP  0  0  0  0  0  0  0  0  0  0  0  0  # atno 13541 bound_to 12683
  119.0173  262.6737  328.8075 LP  0  0  0  0  0  0  0  0  0  0  0  0  # atno 13542 bound_to 12725
  117.9742  262.7236  326.7436 LP  0  0  0  0  0  0  0  0  0  0  0  0  # atno 13543 bound_to 12728
  119.3247  262.2514  325.7673 LP  0  0  0  0  0  0  0  0  0  0  0  0  # atno 13544 bound_to 12728
  119.4020  264.2574  326.3324 LP  0  0  0  0  0  0  0  0  0  0  0  0  # atno 13545 bound_to 12762
  121.9919  265.4721  323.1820 LP  0  0  0  0  0  0  0  0  0  0  0  0  # atno 13546 bound_to 12765
  120.9226  266.4346  324.1465 LP  0  0  0  0  0  0  0  0  0  0  0  0  # atno 13547 bound_to 12765
  117.6846  264.5050  322.3431 LP  0  0  0  0  0  0  0  0  0  0  0  0  # atno 13548 bound_to 12768
  117.2973  266.0615  322.0365 LP  0  0  0  0  0  0  0  0  0  0  0  0  # atno 13549 bound_to 12768
  120.3528  260.8684  323.2168 LP  0  0  0  0  0  0  0  0  0  0  0  0  # atno 13551 bound_to 12793
  119.6386  261.9249  324.3889 LP  0  0  0  0  0  0  0  0  0  0  0  0  # atno 13552 bound_to 12793
  122.6610  272.3774  331.8552 LP  0  0  0  0  0  0  0  0  0  0  0  0  # atno 13553 bound_to 703 
  123.3265  272.9966  333.3295 LP  0  0  0  0  0  0  0  0  0  0  0  0  # atno 13554 bound_to 703 
  118.8004  270.6841  332.7626 LP  0  0  0  0  0  0  0  0  0  0  0  0  # atno 13555 bound_to 783 
  119.5814  271.6161  331.5291 LP  0  0  0  0  0  0  0  0  0  0  0  0  # atno 13556 bound_to 783 
  118.1909  269.3029  331.0993 LP  0  0  0  0  0  0  0  0  0  0  0  0  # atno 13557 bound_to 803 
  118.1081  270.2989  327.9872 LP  0  0  0  0  0  0  0  0  0  0  0  0  # atno 13558 bound_to 809 
  117.3899  271.3804  326.9966 LP  0  0  0  0  0  0  0  0  0  0  0  0  # atno 13559 bound_to 809 
  131.9502  271.0252  321.5252 LP  0  0  0  0  0  0  0  0  0  0  0  0  # atno 13560 bound_to 2015
  130.5849  270.2714  322.0091 LP  0  0  0  0  0  0  0  0  0  0  0  0  # atno 13561 bound_to 2015
  130.9523  266.3106  330.7195 LP  0  0  0  0  0  0  0  0  0  0  0  0  # atno 13562 bound_to 11761
  130.0002  265.0389  330.0293 LP  0  0  0  0  0  0  0  0  0  0  0  0  # atno 13563 bound_to 11761
  125.9622  269.9951  317.8076 LP  0  0  0  0  0  0  0  0  0  0  0  0  # atno 13564 bound_to 1932
  131.6778  269.6628  319.0391 LP  0  0  0  0  0  0  0  0  0  0  0  0  # atno 13565 bound_to 2032
  130.8572  265.7380  317.1880 LP  0  0  0  0  0  0  0  0  0  0  0  0  # atno 13566 bound_to 2037
  130.3374  267.2860  317.1832 LP  0  0  0  0  0  0  0  0  0  0  0  0  # atno 13567 bound_to 2037
  135.4785  265.0500  327.9699 LP  0  0  0  0  0  0  0  0  0  0  0  0  # atno 13568 bound_to 11734
  134.0587  264.4087  327.2131 LP  0  0  0  0  0  0  0  0  0  0  0  0  # atno 13569 bound_to 11734
  134.5416  263.6417  329.2481 LP  0  0  0  0  0  0  0  0  0  0  0  0  # atno 13570 bound_to 11758

> <Gold.Score>
     Fitness  S(hb_ext) S(vdw_ext)  S(hb_int)    S(int)      intcor
     28.64       0.24      21.32       0.00      -0.92      -0.76

> <Gold.Goldscore.Fitness>
28.6405

> <Gold.Goldscore.Internal.Vdw>
-1.0322

> <Gold.Goldscore.Internal.Torsion>
-0.6441

> <Gold.Goldscore.External.Vdw>
21.3242

> <Gold.Goldscore.Internal.HBond>
0.0000

> <Gold.Goldscore.External.HBond>
0.2375

> <Gold.Goldscore.Internal.Correction>
-0.7585

> <Gold.Goldscore.Hbonds>
donor molecule, donor type, donor heavy atom, donor atom, acceptor molecule, acceptor atom, score
      P1  H 11765 11777       L1     9  0.04

> <Gold.Goldscore.Internal.Vdw.Weighted>
-1.0322

> <Gold.Goldscore.Internal.Torsion.Weighted>
-0.6441

> <Gold.Goldscore.External.Vdw.Weighted>
29.3207

> <Gold.Goldscore.Internal.HBond.Weighted>
0.0000

> <Gold.Goldscore.External.HBond.Weighted>
0.2375

> <Gold.Goldscore.Internal.Correction.Weighted>
-0.7585

> <Gold.Rescore>
     Score     S(PLP)   S(hbond)     S(cho)   S(metal)  DE(clash)   DE(tors)     intcor
     22.92     -25.80       0.00       0.00       0.00       0.30       1.29       ----

> <Gold.PLP.Fitness>
22.9165

> <Gold.PLP.PLP>
-25.8025

> <Gold.PLP.part.hbond>
0.0000

> <Gold.PLP.part.metal>
0.0000

> <Gold.PLP.part.buried>
-3.5987

> <Gold.PLP.part.nonpolar>
-21.9888

> <Gold.PLP.part.repulsive>
0.1625

> <Gold.PLP.ligand.clash>
0.2993

> <Gold.PLP.ligand.torsion>
1.2933

> <Gold.PLP.Chemscore.Hbond>
0.0000

> <Gold.PLP.Chemscore.CHOScore>
0.0000

> <Gold.PLP.Chemscore.Metal>
0.0000

> <Gold.PLP.Chemscore.Internal.Correction>
   9.000000E+99

