#       Name:                CT1002167954
#       Creating user name   hitesit
#       Creation time:       Sun Apr 16 20:17:46 2023


#       File generated by GOLD software.
#

@<TRIPOS>MOLECULE
CT1002167954|ligand_prepared|mol2|1|dock7
    29    30     1
SMALL
NO_CHARGES


@<TRIPOS>ATOM
      1 C1         112.4275 246.8411 325.1304 C.3            1 RES1               0.0000
      2 C2         113.9325 247.0128 324.8405 C.ar           1 RES1               0.0000
      3 C3         111.9767 245.6143 324.3428 C.2            1 RES1               0.0000
      4 C4         112.2985 246.6916 326.6422 C.2            1 RES1               0.0000
      5 C5         111.5655 248.0487 324.6944 C.3            1 RES1               0.0000
      6 C6         114.8350 246.0018 325.1572 C.ar           1 RES1               0.0000
      7 C7         114.4323 248.1732 324.2556 C.ar           1 RES1               0.0000
      8 N8         111.7279 244.4706 325.0426 N.am           1 RES1               0.0000
      9 O9         111.8793 245.6391 323.1221 O.2            1 RES1               0.0000
     10 N10        111.8557 245.4914 327.1334 N.am           1 RES1               0.0000
     11 O11        112.5921 247.5968 327.4134 O.2            1 RES1               0.0000
     12 C12        110.0768 247.8601 324.9405 C.3            1 RES1               0.0000
     13 C13        116.1876 246.1445 324.8958 C.ar           1 RES1               0.0000
     14 C14        115.7854 248.3139 323.9953 C.ar           1 RES1               0.0000
     15 C15        111.5939 244.3640 326.4036 C.2            1 RES1               0.0000
     16 C16        116.6637 247.3003 324.3143 C.ar           1 RES1               0.0000
     17 O17        111.2517 243.3053 326.9226 O.2            1 RES1               0.0000
     18 H18        111.9035 248.9388 325.2392 H              1 RES1               0.0000
     19 H19        111.7263 248.2293 323.6243 H              1 RES1               0.0000
     20 H20        114.4792 245.0861 325.6175 H              1 RES1               0.0000
     21 H21        113.7600 248.9843 323.9971 H              1 RES1               0.0000
     22 H22        111.6327 243.6154 324.5042 H              1 RES1               0.0000
     23 H23        111.7075 245.4331 328.1358 H              1 RES1               0.0000
     24 H24        109.5184 248.7360 324.6169 H              1 RES1               0.0000
     25 H25        109.7015 246.9978 324.3934 H              1 RES1               0.0000
     26 H26        109.8777 247.7031 325.9986 H              1 RES1               0.0000
     27 H27        116.8749 245.3443 325.1501 H              1 RES1               0.0000
     28 H28        116.1557 249.2256 323.5381 H              1 RES1               0.0000
     29 H29        117.7233 247.4116 324.1093 H              1 RES1               0.0000
@<TRIPOS>BOND
    1    1    2 1     
    2    1    3 1     
    3    1    4 1     
    4    1    5 1     
    5    2    6 ar    
    6    2    7 ar    
    7    3    8 1     
    8    3    9 2     
    9    4   10 1     
   10    4   11 2     
   11    5   12 1     
   12    5   18 1     
   13    5   19 1     
   14    6   13 ar    
   15    6   20 1     
   16    7   14 ar    
   17    7   21 1     
   18    8   15 1     
   19    8   22 1     
   20   10   15 1     
   21   10   23 1     
   22   12   24 1     
   23   12   25 1     
   24   12   26 1     
   25   13   16 ar    
   26   13   27 1     
   27   14   16 ar    
   28   14   28 1     
   29   15   17 2     
   30   16   29 1     
@<TRIPOS>SUBSTRUCTURE
      1 RES1           1
@<TRIPOS>SET
DONOR_HYDROGENS      STATIC     ATOMS    <user>   **** ""
2 22 23
ATOM$RED        STATIC     ATOMS    COLORGROUP SYSTEM
2 22 23
@<TRIPOS>COMMENT
> <Gold.Version>
2022.3.0

> <Gold.Id.Protein>
unknown|5adf_clean|pdb

> <Gold.Protein.RotatedTorsions>
[ 8428 8423 8424 8425 ] final  -49.73 input   46.96 | X-H torsion
[ 8452 8445 8446 8447 ] final  153.64 input  111.34 | X-H torsion
[ 8996 8992 8993 8994 ] final -152.55 input   44.62 | X-H torsion
[ 9030 9016 9017 9018 ] final -109.26 input   32.56 | X-H torsion
[ 9077 9062 9063 9064 ] final   75.57 input   99.28 | X-H torsion
[ 9085 9073 9072 9070 ] final -157.17 input   59.99 | X-H torsion
[ 9117 9100 9101 9102 ] final  116.21 input   89.92 | X-H torsion
[ 9192 9177 9178 9179 ] final   17.56 input  116.56 | X-H torsion
[ 3601 3592 3593 3594 ] final  115.40 input   84.58 | X-H torsion
[ 8978 8972 8973 8974 ] final  169.11 input   29.23 | X-H torsion
[ 9137 9130 9131 9132 ] final -169.45 input  126.15 | X-H torsion
[ 4895 4885 4884 4881 ] final  -97.25 input   60.00 | X-H torsion
[ 8982 8977 8976 8973 ] final   -2.25 input   60.00 | X-H torsion
[ 3579 3563 3564 3565 ] final   -3.50 input  100.61 | X-H torsion
[ 3552 3542 3543 3544 ] final  179.70 input   82.26 | X-H torsion
[ 8482 8476 8477 8478 ] final   44.83 input   53.28 | X-H torsion
[ 8948 8937 8938 8939 ] final -153.09 input   48.32 | X-H torsion
[ 12881 12863 12862 12860 ] final   66.30 input   60.03 | X-H torsion
[ 5550 5545 5544 5541 ] final  -13.48 input   60.00 | X-H torsion
[ 5574 5565 5566 5567 ] final    3.91 input   49.17 | X-H torsion
[ 8328 8319 8318 8316 ] final  145.15 input   60.00 | X-H torsion
[ 5546 5540 5541 5542 ] final   40.05 input  103.84 | X-H torsion
[ 8513 8500 8501 8502 ] final  -18.45 input   63.30 | X-H torsion
[ 8486 8481 8480 8477 ] final   36.30 input   60.02 | X-H torsion
[ 8545 8528 8529 8530 ] final   47.00 input   88.08 | X-H torsion
[ 12873 12852 12853 12854 ] final -127.75 input  106.44 | X-H torsion
[ 12908 12891 12892 12893 ] final  101.02 input   37.87 | X-H torsion
[ 9225 9206 9207 9208 ] final  -86.74 input   89.32 | X-H torsion
[ 11050 11043 11044 11045 ] final   12.61 input   52.80 | X-H torsion
[ 5606 5598 5599 5600 ] final   31.61 input  119.27 | X-H torsion
[ 8581 8562 8563 8564 ] final   70.14 input   68.50 | X-H torsion
[ 13460 8400 8399 8398 ] final  176.55 input   -0.00 | X-H torsion
[ 13464 8940 8939 8938 ] final  148.83 input   -0.00 | X-H torsion
[ 13467 8995 8994 8993 ] final  -23.24 input    0.00 | X-H torsion
[ 13470 9019 9018 9017 ] final   93.46 input    0.00 | X-H torsion
[ 13473 9065 9064 9063 ] final   21.66 input   -0.00 | X-H torsion
[ 13478 9103 9102 9101 ] final  -23.85 input   -0.00 | X-H torsion
[ 13491 8975 8974 8973 ] final   83.21 input    0.00 | X-H torsion
[ 13493 8345 8344 8343 ] final   -5.26 input    0.00 | X-H torsion
[ 13501 8448 8447 8446 ] final  113.51 input    0.00 | X-H torsion
[ 13503 3502 3501 3500 ] final -109.77 input    0.00 | X-H torsion
[ 13506 8426 8425 8424 ] final -140.89 input    0.00 | X-H torsion
[ 13514 5543 5542 5541 ] final -161.73 input   -0.00 | X-H torsion
[ 13525 9180 9179 9178 ] final   29.29 input    0.00 | X-H torsion
[ 13531 5517 5516 5515 ] final   15.36 input    0.00 | X-H torsion
[ 13535 8503 8502 8501 ] final   -5.60 input   -0.00 | X-H torsion
[ 13538 5568 5567 5566 ] final   47.20 input   -0.00 | X-H torsion
[ 13540 8479 8478 8477 ] final  -11.86 input   -0.00 | X-H torsion
[ 13545 12894 12893 12892 ] final   -5.64 input    0.00 | X-H torsion
[ 13547 12822 12821 12820 ] final   -9.92 input   -0.00 | X-H torsion

> <Gold.Protein.ActiveResidues>
 TRP311  MET341  HIS342  TRP414  ALA417  ARG419  CYS420  VAL421  GLY422  LEU460 
 SER462  ASN481  SER482  GLN483  LEU484  ARG486  ALA502  ASN503  TRP566  TYR567 
 GLY568  LEU569  PRO570  ALA571  VAL572  SER573  ASN574  MET575  LEU576  PHE589 
 SER590  GLY591  TRP592  TYR593  MET594  GLY595  GLU597  ILE598  ARG601  ASP602 
 ARG608  ILE653  VAL654  TRP683  PHE709  GLU710  TYR711  GLN712  ASP714  HEM750 
 H4B760 

> <Gold.Protein.RotatedAtoms>
  119.5835  251.3980  328.7550 H   0  0  0  0  0  0  0  0  0  0  0  0  # atno 3552 bound_to 3542
  122.6693  248.6074  328.2904 H   0  0  0  0  0  0  0  0  0  0  0  0  # atno 3579 bound_to 3563
  123.6280  247.5706  327.4020 H   0  0  0  0  0  0  0  0  0  0  0  0  # atno 3601 bound_to 3592
  124.6038  246.2246  318.8180 H   0  0  0  0  0  0  0  0  0  0  0  0  # atno 4895 bound_to 4885
  106.8458  243.5346  317.9620 H   0  0  0  0  0  0  0  0  0  0  0  0  # atno 5546 bound_to 5540
  107.1428  242.8277  320.0088 H   0  0  0  0  0  0  0  0  0  0  0  0  # atno 5550 bound_to 5545
  108.4020  243.2770  318.0671 H   0  0  0  0  0  0  0  0  0  0  0  0  # atno 5574 bound_to 5565
  111.7424  242.0368  316.5804 H   0  0  0  0  0  0  0  0  0  0  0  0  # atno 5606 bound_to 5598
  112.9549  238.3801  321.6882 H   0  0  0  0  0  0  0  0  0  0  0  0  # atno 8328 bound_to 8319
  115.7400  242.5908  319.3090 H   0  0  0  0  0  0  0  0  0  0  0  0  # atno 8428 bound_to 8423
  115.3107  245.0383  319.3895 H   0  0  0  0  0  0  0  0  0  0  0  0  # atno 8452 bound_to 8445
  111.0992  246.7034  318.5156 H   0  0  0  0  0  0  0  0  0  0  0  0  # atno 8482 bound_to 8476
  109.4135  246.1384  316.9282 H   0  0  0  0  0  0  0  0  0  0  0  0  # atno 8486 bound_to 8481
  110.7369  249.3892  318.2203 H   0  0  0  0  0  0  0  0  0  0  0  0  # atno 8513 bound_to 8500
  110.6843  251.2171  318.4119 H   0  0  0  0  0  0  0  0  0  0  0  0  # atno 8545 bound_to 8528
  110.6397  255.2343  320.4488 H   0  0  0  0  0  0  0  0  0  0  0  0  # atno 8581 bound_to 8562
  115.8274  249.1240  314.9164 H   0  0  0  0  0  0  0  0  0  0  0  0  # atno 8948 bound_to 8937
  118.1722  246.7540  316.1218 H   0  0  0  0  0  0  0  0  0  0  0  0  # atno 8978 bound_to 8972
  120.6425  245.0104  315.1729 H   0  0  0  0  0  0  0  0  0  0  0  0  # atno 8982 bound_to 8977
  120.8992  245.2152  318.0104 H   0  0  0  0  0  0  0  0  0  0  0  0  # atno 8996 bound_to 8992
  122.1822  242.6291  319.8069 H   0  0  0  0  0  0  0  0  0  0  0  0  # atno 9030 bound_to 9016
  122.5745  238.7194  322.1696 H   0  0  0  0  0  0  0  0  0  0  0  0  # atno 9077 bound_to 9062
  115.0429  237.3053  321.8090 H   0  0  0  0  0  0  0  0  0  0  0  0  # atno 9085 bound_to 9073
  121.4861  240.6162  326.1100 H   0  0  0  0  0  0  0  0  0  0  0  0  # atno 9117 bound_to 9100
  123.0614  237.1233  327.7097 H   0  0  0  0  0  0  0  0  0  0  0  0  # atno 9137 bound_to 9130
  118.4198  236.9830  329.5037 H   0  0  0  0  0  0  0  0  0  0  0  0  # atno 9192 bound_to 9177
  116.1776  237.0534  328.5008 H   0  0  0  0  0  0  0  0  0  0  0  0  # atno 9225 bound_to 9206
  125.1951  237.2798  325.8373 H   0  0  0  0  0  0  0  0  0  0  0  0  # atno 11050 bound_to 11043
  110.6613  255.6042  324.1056 H   0  0  0  0  0  0  0  0  0  0  0  0  # atno 12873 bound_to 12852
  112.0975  251.2935  328.2719 H   0  0  0  0  0  0  0  0  0  0  0  0  # atno 12881 bound_to 12863
  107.3962  254.5570  322.1165 H   0  0  0  0  0  0  0  0  0  0  0  0  # atno 12908 bound_to 12891
  117.9278  243.7284  318.2262 LP  0  0  0  0  0  0  0  0  0  0  0  0  # atno 13460 bound_to 8400
  118.8137  242.6264  319.2267 LP  0  0  0  0  0  0  0  0  0  0  0  0  # atno 13461 bound_to 8400
  115.9566  241.5721  317.9072 LP  0  0  0  0  0  0  0  0  0  0  0  0  # atno 13462 bound_to 8423
  114.7225  245.1813  317.7493 LP  0  0  0  0  0  0  0  0  0  0  0  0  # atno 13463 bound_to 8445
  116.9163  245.5114  317.3573 LP  0  0  0  0  0  0  0  0  0  0  0  0  # atno 13464 bound_to 8940
  116.1879  247.0342  317.7449 LP  0  0  0  0  0  0  0  0  0  0  0  0  # atno 13465 bound_to 8940
  120.3475  243.7557  318.8020 LP  0  0  0  0  0  0  0  0  0  0  0  0  # atno 13466 bound_to 8992
  121.9507  242.1448  317.4706 LP  0  0  0  0  0  0  0  0  0  0  0  0  # atno 13467 bound_to 8995
  122.9178  240.9782  318.3095 LP  0  0  0  0  0  0  0  0  0  0  0  0  # atno 13468 bound_to 8995
  123.5607  242.8413  320.8568 LP  0  0  0  0  0  0  0  0  0  0  0  0  # atno 13469 bound_to 9016
  121.4474  242.1852  323.0011 LP  0  0  0  0  0  0  0  0  0  0  0  0  # atno 13470 bound_to 9019
  123.1151  241.9978  323.4298 LP  0  0  0  0  0  0  0  0  0  0  0  0  # atno 13471 bound_to 9019
  121.9803  240.3643  322.1683 LP  0  0  0  0  0  0  0  0  0  0  0  0  # atno 13472 bound_to 9062
  123.9643  238.7216  324.0189 LP  0  0  0  0  0  0  0  0  0  0  0  0  # atno 13473 bound_to 9065
  124.0683  238.4649  325.7287 LP  0  0  0  0  0  0  0  0  0  0  0  0  # atno 13474 bound_to 9065
  115.0163  238.9231  321.9840 LP  0  0  0  0  0  0  0  0  0  0  0  0  # atno 13475 bound_to 9073
  114.6559  237.9561  323.2496 LP  0  0  0  0  0  0  0  0  0  0  0  0  # atno 13476 bound_to 9073
  122.0039  239.0915  325.4270 LP  0  0  0  0  0  0  0  0  0  0  0  0  # atno 13477 bound_to 9100
  119.9596  238.9996  327.7219 LP  0  0  0  0  0  0  0  0  0  0  0  0  # atno 13478 bound_to 9103
  119.9500  237.2677  327.6959 LP  0  0  0  0  0  0  0  0  0  0  0  0  # atno 13479 bound_to 9103
  118.7569  238.5561  330.1766 LP  0  0  0  0  0  0  0  0  0  0  0  0  # atno 13480 bound_to 9177
  124.9914  248.1583  328.3205 LP  0  0  0  0  0  0  0  0  0  0  0  0  # atno 13489 bound_to 3592
  119.6959  247.3662  316.7167 LP  0  0  0  0  0  0  0  0  0  0  0  0  # atno 13490 bound_to 8972
  121.7971  246.8879  317.3485 LP  0  0  0  0  0  0  0  0  0  0  0  0  # atno 13491 bound_to 8975
  122.2388  245.5747  316.3091 LP  0  0  0  0  0  0  0  0  0  0  0  0  # atno 13492 bound_to 8975
  120.9267  236.3624  319.5047 LP  0  0  0  0  0  0  0  0  0  0  0  0  # atno 13493 bound_to 8345
  120.3998  237.8644  318.8220 LP  0  0  0  0  0  0  0  0  0  0  0  0  # atno 13494 bound_to 8345
  122.0567  237.8790  328.9254 LP  0  0  0  0  0  0  0  0  0  0  0  0  # atno 13495 bound_to 9130
  126.2078  246.4751  318.7026 LP  0  0  0  0  0  0  0  0  0  0  0  0  # atno 13496 bound_to 4885
  125.5291  245.1712  317.9914 LP  0  0  0  0  0  0  0  0  0  0  0  0  # atno 13497 bound_to 4885
  119.5287  244.3776  314.1697 LP  0  0  0  0  0  0  0  0  0  0  0  0  # atno 13498 bound_to 8977
  120.5302  243.3958  315.0062 LP  0  0  0  0  0  0  0  0  0  0  0  0  # atno 13499 bound_to 8977
  121.9708  248.6685  329.8934 LP  0  0  0  0  0  0  0  0  0  0  0  0  # atno 13500 bound_to 3563
  114.0319  247.6924  316.5352 LP  0  0  0  0  0  0  0  0  0  0  0  0  # atno 13501 bound_to 8448
  114.2929  248.5945  317.9906 LP  0  0  0  0  0  0  0  0  0  0  0  0  # atno 13502 bound_to 8448
  120.0639  249.1181  330.8630 LP  0  0  0  0  0  0  0  0  0  0  0  0  # atno 13503 bound_to 3502
  118.5331  249.1482  330.0532 LP  0  0  0  0  0  0  0  0  0  0  0  0  # atno 13504 bound_to 3502
  120.9356  251.4964  329.8564 LP  0  0  0  0  0  0  0  0  0  0  0  0  # atno 13505 bound_to 3542
  112.7767  244.9989  317.0018 LP  0  0  0  0  0  0  0  0  0  0  0  0  # atno 13506 bound_to 8426
  113.0897  243.2958  317.0407 LP  0  0  0  0  0  0  0  0  0  0  0  0  # atno 13507 bound_to 8426
  112.7273  247.0052  317.9638 LP  0  0  0  0  0  0  0  0  0  0  0  0  # atno 13510 bound_to 8476
  115.4566  248.0811  316.2683 LP  0  0  0  0  0  0  0  0  0  0  0  0  # atno 13511 bound_to 8937
  110.7782  245.4295  319.0009 LP  0  0  0  0  0  0  0  0  0  0  0  0  # atno 13514 bound_to 5543
  109.6704  246.2975  320.0106 LP  0  0  0  0  0  0  0  0  0  0  0  0  # atno 13515 bound_to 5543
  110.7728  250.6367  328.9519 LP  0  0  0  0  0  0  0  0  0  0  0  0  # atno 13516 bound_to 12863
  111.4533  251.9699  329.6045 LP  0  0  0  0  0  0  0  0  0  0  0  0  # atno 13517 bound_to 12863
  106.1973  242.9629  321.3261 LP  0  0  0  0  0  0  0  0  0  0  0  0  # atno 13518 bound_to 5545
  107.8230  242.9922  321.4778 LP  0  0  0  0  0  0  0  0  0  0  0  0  # atno 13519 bound_to 5545
  109.1505  244.0019  319.4723 LP  0  0  0  0  0  0  0  0  0  0  0  0  # atno 13520 bound_to 5565
  111.7123  237.3458  321.8743 LP  0  0  0  0  0  0  0  0  0  0  0  0  # atno 13523 bound_to 8319
  111.6784  238.4612  320.6820 LP  0  0  0  0  0  0  0  0  0  0  0  0  # atno 13524 bound_to 8319
  114.4446  238.3690  328.5214 LP  0  0  0  0  0  0  0  0  0  0  0  0  # atno 13525 bound_to 9180
  114.3148  236.6620  328.7851 LP  0  0  0  0  0  0  0  0  0  0  0  0  # atno 13526 bound_to 9180
  105.8842  244.9906  317.9155 LP  0  0  0  0  0  0  0  0  0  0  0  0  # atno 13529 bound_to 5540
  109.6758  248.0200  318.0284 LP  0  0  0  0  0  0  0  0  0  0  0  0  # atno 13530 bound_to 8500
  107.0389  246.5088  315.9304 LP  0  0  0  0  0  0  0  0  0  0  0  0  # atno 13531 bound_to 5517
  107.9480  246.3695  317.3981 LP  0  0  0  0  0  0  0  0  0  0  0  0  # atno 13532 bound_to 5517
  110.5759  245.0392  316.6291 LP  0  0  0  0  0  0  0  0  0  0  0  0  # atno 13533 bound_to 8481
  109.4020  245.3106  315.5269 LP  0  0  0  0  0  0  0  0  0  0  0  0  # atno 13534 bound_to 8481
  107.1386  251.5290  319.7087 LP  0  0  0  0  0  0  0  0  0  0  0  0  # atno 13535 bound_to 8503
  108.3374  252.6067  320.3423 LP  0  0  0  0  0  0  0  0  0  0  0  0  # atno 13536 bound_to 8503
  109.5704  250.9058  319.7174 LP  0  0  0  0  0  0  0  0  0  0  0  0  # atno 13537 bound_to 8528
  108.4197  242.4680  316.5982 LP  0  0  0  0  0  0  0  0  0  0  0  0  # atno 13538 bound_to 5568
  109.2809  241.1054  315.9645 LP  0  0  0  0  0  0  0  0  0  0  0  0  # atno 13539 bound_to 5568
  109.8375  249.2374  315.1087 LP  0  0  0  0  0  0  0  0  0  0  0  0  # atno 13540 bound_to 8479
  108.6322  249.7815  316.2273 LP  0  0  0  0  0  0  0  0  0  0  0  0  # atno 13541 bound_to 8479
  105.4413  253.1178  322.4901 LP  0  0  0  0  0  0  0  0  0  0  0  0  # atno 13545 bound_to 12894
  103.7271  252.8965  322.6027 LP  0  0  0  0  0  0  0  0  0  0  0  0  # atno 13546 bound_to 12894
  111.0783  255.8187  321.4792 LP  0  0  0  0  0  0  0  0  0  0  0  0  # atno 13547 bound_to 12822
  109.9231  254.7390  322.1862 LP  0  0  0  0  0  0  0  0  0  0  0  0  # atno 13548 bound_to 12822
  109.6312  256.9050  324.6517 LP  0  0  0  0  0  0  0  0  0  0  0  0  # atno 13549 bound_to 12852
  106.7482  255.1303  323.6353 LP  0  0  0  0  0  0  0  0  0  0  0  0  # atno 13550 bound_to 12891

> <Gold.Score>
     Fitness  S(hb_ext) S(vdw_ext)  S(hb_int)    S(int)      intcor
     36.77       1.79      25.49       0.00      -0.06      -0.76

> <Gold.Goldscore.Fitness>
36.7669

> <Gold.Goldscore.Internal.Vdw>
-0.4526

> <Gold.Goldscore.Internal.Torsion>
-0.3733

> <Gold.Goldscore.External.Vdw>
25.4853

> <Gold.Goldscore.Internal.HBond>
0.0000

> <Gold.Goldscore.External.HBond>
1.7856

> <Gold.Goldscore.Internal.Correction>
-0.7650

> <Gold.Goldscore.Hbonds>
donor molecule, donor type, donor heavy atom, donor atom, acceptor molecule, acceptor atom, score
      L1  H     8    22       P1  5573  0.30

> <Gold.Goldscore.Internal.Vdw.Weighted>
-0.4526

> <Gold.Goldscore.Internal.Torsion.Weighted>
-0.3733

> <Gold.Goldscore.External.Vdw.Weighted>
35.0422

> <Gold.Goldscore.Internal.HBond.Weighted>
0.0000

> <Gold.Goldscore.External.HBond.Weighted>
1.7856

> <Gold.Goldscore.Internal.Correction.Weighted>
-0.7650

> <Gold.Rescore>
     Score     S(PLP)   S(hbond)     S(cho)   S(metal)  DE(clash)   DE(tors)     intcor
     34.74     -34.78       0.00       0.00       0.00       0.00       0.02       ----

> <Gold.PLP.Fitness>
34.7418

> <Gold.PLP.PLP>
-34.7778

> <Gold.PLP.part.hbond>
-1.0000

> <Gold.PLP.part.metal>
0.0000

> <Gold.PLP.part.buried>
-1.0157

> <Gold.PLP.part.nonpolar>
-36.2698

> <Gold.PLP.part.repulsive>
2.8510

> <Gold.PLP.ligand.clash>
0.0000

> <Gold.PLP.ligand.torsion>
0.0180

> <Gold.PLP.Chemscore.Hbond>
0.0000

> <Gold.PLP.Chemscore.CHOScore>
0.0000

> <Gold.PLP.Chemscore.Metal>
0.0000

> <Gold.PLP.Chemscore.Internal.Correction>
   9.000000E+99

