#       Name:                CT1002167954
#       Creating user name   hitesit
#       Creation time:       Sun Apr 16 20:17:45 2023


#       File generated by GOLD software.
#

@<TRIPOS>MOLECULE
CT1002167954|ligand_prepared|mol2|1|dock6
    29    30     1
SMALL
NO_CHARGES


@<TRIPOS>ATOM
      1 C1         112.0506 246.0572 324.9639 C.3            1 RES1               0.0000
      2 C2         113.5253 245.6785 324.7175 C.ar           1 RES1               0.0000
      3 C3         112.0682 247.2561 325.9077 C.2            1 RES1               0.0000
      4 C4         111.4514 246.3530 323.5935 C.2            1 RES1               0.0000
      5 C5         111.2168 244.9303 325.6168 C.3            1 RES1               0.0000
      6 C6         113.9107 244.3434 324.6405 C.ar           1 RES1               0.0000
      7 C7         114.5094 246.6512 324.5627 C.ar           1 RES1               0.0000
      8 N8         111.7696 248.4785 325.3820 N.am           1 RES1               0.0000
      9 O9         112.3779 247.1367 327.0867 O.2            1 RES1               0.0000
     10 N10        111.0492 247.6366 323.3321 N.am           1 RES1               0.0000
     11 O11        111.3392 245.4898 322.7318 O.2            1 RES1               0.0000
     12 C12        109.8356 245.3744 326.0718 C.3            1 RES1               0.0000
     13 C13        115.2315 243.9935 324.4140 C.ar           1 RES1               0.0000
     14 C14        115.8297 246.2990 324.3366 C.ar           1 RES1               0.0000
     15 C15        111.2094 248.7194 324.1532 C.2            1 RES1               0.0000
     16 C16        116.1917 244.9708 324.2615 C.ar           1 RES1               0.0000
     17 O17        110.8713 249.8532 323.8256 O.2            1 RES1               0.0000
     18 H18        111.1047 244.1111 324.8959 H              1 RES1               0.0000
     19 H19        111.7659 244.5415 326.4833 H              1 RES1               0.0000
     20 H20        113.1694 243.5604 324.7605 H              1 RES1               0.0000
     21 H21        114.2479 247.7024 324.6190 H              1 RES1               0.0000
     22 H22        111.9826 249.2885 325.9555 H              1 RES1               0.0000
     23 H23        110.5875 247.8001 322.4430 H              1 RES1               0.0000
     24 H24        109.2930 244.5460 326.5224 H              1 RES1               0.0000
     25 H25        109.9100 246.1716 326.8086 H              1 RES1               0.0000
     26 H26        109.2527 245.7437 325.2306 H              1 RES1               0.0000
     27 H27        115.5114 242.9467 324.3572 H              1 RES1               0.0000
     28 H28        116.5823 247.0715 324.2177 H              1 RES1               0.0000
     29 H29        117.2263 244.6964 324.0837 H              1 RES1               0.0000
@<TRIPOS>BOND
    1    1    2 1     
    2    1    3 1     
    3    1    4 1     
    4    1    5 1     
    5    2    6 ar    
    6    2    7 ar    
    7    3    8 1     
    8    3    9 2     
    9    4   10 1     
   10    4   11 2     
   11    5   12 1     
   12    5   18 1     
   13    5   19 1     
   14    6   13 ar    
   15    6   20 1     
   16    7   14 ar    
   17    7   21 1     
   18    8   15 1     
   19    8   22 1     
   20   10   15 1     
   21   10   23 1     
   22   12   24 1     
   23   12   25 1     
   24   12   26 1     
   25   13   16 ar    
   26   13   27 1     
   27   14   16 ar    
   28   14   28 1     
   29   15   17 2     
   30   16   29 1     
@<TRIPOS>SUBSTRUCTURE
      1 RES1           1
@<TRIPOS>SET
DONOR_HYDROGENS      STATIC     ATOMS    <user>   **** ""
2 22 23
ATOM$RED        STATIC     ATOMS    COLORGROUP SYSTEM
2 22 23
@<TRIPOS>COMMENT
> <Gold.Version>
2022.3.0

> <Gold.Id.Protein>
unknown|5adf_clean|pdb

> <Gold.Protein.RotatedTorsions>
[ 8428 8423 8424 8425 ] final  -68.16 input   46.96 | X-H torsion
[ 8452 8445 8446 8447 ] final -144.06 input  111.34 | X-H torsion
[ 8996 8992 8993 8994 ] final  -41.50 input   44.62 | X-H torsion
[ 9030 9016 9017 9018 ] final  -87.18 input   32.56 | X-H torsion
[ 9077 9062 9063 9064 ] final -110.39 input   99.28 | X-H torsion
[ 9085 9073 9072 9070 ] final  155.52 input   59.99 | X-H torsion
[ 9117 9100 9101 9102 ] final  -85.69 input   89.92 | X-H torsion
[ 9192 9177 9178 9179 ] final    5.16 input  116.56 | X-H torsion
[ 3601 3592 3593 3594 ] final  -50.47 input   84.58 | X-H torsion
[ 8978 8972 8973 8974 ] final   47.78 input   29.23 | X-H torsion
[ 9137 9130 9131 9132 ] final -177.10 input  126.15 | X-H torsion
[ 4895 4885 4884 4881 ] final  132.59 input   60.00 | X-H torsion
[ 8982 8977 8976 8973 ] final  -85.23 input   60.00 | X-H torsion
[ 3579 3563 3564 3565 ] final    5.99 input  100.61 | X-H torsion
[ 3552 3542 3543 3544 ] final   67.04 input   82.26 | X-H torsion
[ 8482 8476 8477 8478 ] final   96.72 input   53.28 | X-H torsion
[ 8948 8937 8938 8939 ] final -157.12 input   48.32 | X-H torsion
[ 12881 12863 12862 12860 ] final  -40.40 input   60.03 | X-H torsion
[ 5550 5545 5544 5541 ] final -151.61 input   60.00 | X-H torsion
[ 5574 5565 5566 5567 ] final -131.70 input   49.17 | X-H torsion
[ 8328 8319 8318 8316 ] final   38.46 input   60.00 | X-H torsion
[ 5546 5540 5541 5542 ] final  -73.89 input  103.84 | X-H torsion
[ 8513 8500 8501 8502 ] final -128.56 input   63.30 | X-H torsion
[ 8486 8481 8480 8477 ] final  -71.71 input   60.02 | X-H torsion
[ 8545 8528 8529 8530 ] final  -43.09 input   88.08 | X-H torsion
[ 12873 12852 12853 12854 ] final -179.77 input  106.44 | X-H torsion
[ 12908 12891 12892 12893 ] final  172.25 input   37.87 | X-H torsion
[ 9225 9206 9207 9208 ] final -145.97 input   89.32 | X-H torsion
[ 11050 11043 11044 11045 ] final   94.54 input   52.80 | X-H torsion
[ 5606 5598 5599 5600 ] final   26.67 input  119.27 | X-H torsion
[ 8581 8562 8563 8564 ] final  138.22 input   68.50 | X-H torsion
[ 13460 8400 8399 8398 ] final  136.85 input   -0.00 | X-H torsion
[ 13464 8940 8939 8938 ] final   90.59 input   -0.00 | X-H torsion
[ 13467 8995 8994 8993 ] final  174.97 input    0.00 | X-H torsion
[ 13470 9019 9018 9017 ] final   51.45 input    0.00 | X-H torsion
[ 13473 9065 9064 9063 ] final  -24.92 input   -0.00 | X-H torsion
[ 13478 9103 9102 9101 ] final   69.67 input   -0.00 | X-H torsion
[ 13491 8975 8974 8973 ] final   -9.46 input    0.00 | X-H torsion
[ 13493 8345 8344 8343 ] final -108.29 input    0.00 | X-H torsion
[ 13501 8448 8447 8446 ] final  132.31 input    0.00 | X-H torsion
[ 13503 3502 3501 3500 ] final  164.01 input    0.00 | X-H torsion
[ 13506 8426 8425 8424 ] final   29.27 input    0.00 | X-H torsion
[ 13514 5543 5542 5541 ] final  -83.26 input   -0.00 | X-H torsion
[ 13525 9180 9179 9178 ] final  142.79 input    0.00 | X-H torsion
[ 13531 5517 5516 5515 ] final -170.88 input    0.00 | X-H torsion
[ 13535 8503 8502 8501 ] final -148.83 input   -0.00 | X-H torsion
[ 13538 5568 5567 5566 ] final -116.52 input   -0.00 | X-H torsion
[ 13540 8479 8478 8477 ] final  -33.94 input   -0.00 | X-H torsion
[ 13545 12894 12893 12892 ] final    5.17 input    0.00 | X-H torsion
[ 13547 12822 12821 12820 ] final -117.77 input   -0.00 | X-H torsion

> <Gold.Protein.ActiveResidues>
 TRP311  MET341  HIS342  TRP414  ALA417  ARG419  CYS420  VAL421  GLY422  LEU460 
 SER462  ASN481  SER482  GLN483  LEU484  ARG486  ALA502  ASN503  TRP566  TYR567 
 GLY568  LEU569  PRO570  ALA571  VAL572  SER573  ASN574  MET575  LEU576  PHE589 
 SER590  GLY591  TRP592  TYR593  MET594  GLY595  GLU597  ILE598  ARG601  ASP602 
 ARG608  ILE653  VAL654  TRP683  PHE709  GLU710  TYR711  GLN712  ASP714  HEM750 
 H4B760 

> <Gold.Protein.RotatedAtoms>
  120.8703  252.0381  329.0562 H   0  0  0  0  0  0  0  0  0  0  0  0  # atno 3552 bound_to 3542
  122.6204  248.4690  328.2876 H   0  0  0  0  0  0  0  0  0  0  0  0  # atno 3579 bound_to 3563
  124.9553  248.3498  328.2289 H   0  0  0  0  0  0  0  0  0  0  0  0  # atno 3601 bound_to 3592
  126.2847  246.3586  318.6119 H   0  0  0  0  0  0  0  0  0  0  0  0  # atno 4895 bound_to 4885
  106.6473  244.8679  317.3604 H   0  0  0  0  0  0  0  0  0  0  0  0  # atno 5546 bound_to 5540
  106.3670  242.9924  321.5670 H   0  0  0  0  0  0  0  0  0  0  0  0  # atno 5550 bound_to 5545
  109.0919  244.4503  318.9895 H   0  0  0  0  0  0  0  0  0  0  0  0  # atno 5574 bound_to 5565
  111.6707  242.0154  316.5948 H   0  0  0  0  0  0  0  0  0  0  0  0  # atno 5606 bound_to 5598
  111.8960  237.3585  321.9910 H   0  0  0  0  0  0  0  0  0  0  0  0  # atno 8328 bound_to 8319
  116.0213  242.6044  319.2862 H   0  0  0  0  0  0  0  0  0  0  0  0  # atno 8428 bound_to 8423
  114.7178  244.4311  319.0440 H   0  0  0  0  0  0  0  0  0  0  0  0  # atno 8452 bound_to 8445
  111.4076  246.1617  318.0642 H   0  0  0  0  0  0  0  0  0  0  0  0  # atno 8482 bound_to 8476
  110.5564  245.1529  316.7879 H   0  0  0  0  0  0  0  0  0  0  0  0  # atno 8486 bound_to 8481
  109.9408  248.6402  317.2922 H   0  0  0  0  0  0  0  0  0  0  0  0  # atno 8513 bound_to 8500
  109.4871  251.4671  318.6235 H   0  0  0  0  0  0  0  0  0  0  0  0  # atno 8545 bound_to 8528
  109.8338  254.9458  319.9491 H   0  0  0  0  0  0  0  0  0  0  0  0  # atno 8581 bound_to 8562
  115.8236  249.1722  314.9555 H   0  0  0  0  0  0  0  0  0  0  0  0  # atno 8948 bound_to 8937
  119.6705  247.0388  315.9264 H   0  0  0  0  0  0  0  0  0  0  0  0  # atno 8978 bound_to 8972
  119.7139  244.9128  314.3567 H   0  0  0  0  0  0  0  0  0  0  0  0  # atno 8982 bound_to 8977
  120.6889  243.7727  317.8722 H   0  0  0  0  0  0  0  0  0  0  0  0  # atno 8996 bound_to 8992
  122.0302  242.6966  320.1003 H   0  0  0  0  0  0  0  0  0  0  0  0  # atno 9030 bound_to 9016
  121.8905  240.3532  322.1384 H   0  0  0  0  0  0  0  0  0  0  0  0  # atno 9077 bound_to 9062
  115.1511  237.9557  321.4488 H   0  0  0  0  0  0  0  0  0  0  0  0  # atno 9085 bound_to 9073
  122.2878  239.2573  325.3704 H   0  0  0  0  0  0  0  0  0  0  0  0  # atno 9117 bound_to 9100
  123.1367  237.1000  327.7978 H   0  0  0  0  0  0  0  0  0  0  0  0  # atno 9137 bound_to 9130
  118.3199  236.9590  329.6628 H   0  0  0  0  0  0  0  0  0  0  0  0  # atno 9192 bound_to 9177
  116.4754  237.1410  327.6761 H   0  0  0  0  0  0  0  0  0  0  0  0  # atno 9225 bound_to 9206
  125.5282  238.2109  325.2433 H   0  0  0  0  0  0  0  0  0  0  0  0  # atno 11050 bound_to 11043
  110.5303  255.6363  324.8680 H   0  0  0  0  0  0  0  0  0  0  0  0  # atno 12873 bound_to 12852
  110.8795  250.5709  328.7738 H   0  0  0  0  0  0  0  0  0  0  0  0  # atno 12881 bound_to 12863
  107.5865  255.4762  322.5413 H   0  0  0  0  0  0  0  0  0  0  0  0  # atno 12908 bound_to 12891
  118.1863  243.3191  317.8923 LP  0  0  0  0  0  0  0  0  0  0  0  0  # atno 13460 bound_to 8400
  118.5552  243.0356  319.5607 LP  0  0  0  0  0  0  0  0  0  0  0  0  # atno 13461 bound_to 8400
  115.6809  241.5588  317.9295 LP  0  0  0  0  0  0  0  0  0  0  0  0  # atno 13462 bound_to 8423
  115.3001  245.7727  318.0859 LP  0  0  0  0  0  0  0  0  0  0  0  0  # atno 13463 bound_to 8445
  116.3469  245.8398  316.8297 LP  0  0  0  0  0  0  0  0  0  0  0  0  # atno 13464 bound_to 8940
  116.7572  246.7058  318.2725 LP  0  0  0  0  0  0  0  0  0  0  0  0  # atno 13465 bound_to 8940
  120.5515  245.1549  318.9361 LP  0  0  0  0  0  0  0  0  0  0  0  0  # atno 13466 bound_to 8992
  122.6705  240.9041  318.4019 LP  0  0  0  0  0  0  0  0  0  0  0  0  # atno 13467 bound_to 8995
  122.1980  242.2188  317.3781 LP  0  0  0  0  0  0  0  0  0  0  0  0  # atno 13468 bound_to 8995
  123.7101  242.7750  320.5684 LP  0  0  0  0  0  0  0  0  0  0  0  0  # atno 13469 bound_to 9016
  121.8145  242.4960  322.6084 LP  0  0  0  0  0  0  0  0  0  0  0  0  # atno 13470 bound_to 9019
  122.7480  241.6869  323.8225 LP  0  0  0  0  0  0  0  0  0  0  0  0  # atno 13471 bound_to 9019
  122.6450  238.7765  322.1986 LP  0  0  0  0  0  0  0  0  0  0  0  0  # atno 13472 bound_to 9062
  123.7471  238.1019  324.2135 LP  0  0  0  0  0  0  0  0  0  0  0  0  # atno 13473 bound_to 9065
  124.2856  239.0846  325.5342 LP  0  0  0  0  0  0  0  0  0  0  0  0  # atno 13474 bound_to 9065
  114.8169  238.9236  322.7137 LP  0  0  0  0  0  0  0  0  0  0  0  0  # atno 13475 bound_to 9073
  114.7463  237.3009  322.8826 LP  0  0  0  0  0  0  0  0  0  0  0  0  # atno 13476 bound_to 9073
  121.2255  240.4109  326.1450 LP  0  0  0  0  0  0  0  0  0  0  0  0  # atno 13477 bound_to 9100
  120.0601  238.0928  326.8503 LP  0  0  0  0  0  0  0  0  0  0  0  0  # atno 13478 bound_to 9103
  119.8494  238.1745  328.5676 LP  0  0  0  0  0  0  0  0  0  0  0  0  # atno 13479 bound_to 9103
  118.8557  238.5798  330.0193 LP  0  0  0  0  0  0  0  0  0  0  0  0  # atno 13480 bound_to 9177
  123.6864  247.3921  327.5076 LP  0  0  0  0  0  0  0  0  0  0  0  0  # atno 13489 bound_to 3592
  118.2269  247.0870  316.9083 LP  0  0  0  0  0  0  0  0  0  0  0  0  # atno 13490 bound_to 8972
  121.4439  246.4641  316.2235 LP  0  0  0  0  0  0  0  0  0  0  0  0  # atno 13491 bound_to 8975
  122.5920  245.9985  317.4340 LP  0  0  0  0  0  0  0  0  0  0  0  0  # atno 13492 bound_to 8975
  120.0448  237.3711  319.7121 LP  0  0  0  0  0  0  0  0  0  0  0  0  # atno 13493 bound_to 8345
  121.2816  236.8557  318.6146 LP  0  0  0  0  0  0  0  0  0  0  0  0  # atno 13494 bound_to 8345
  121.9835  237.9017  328.8398 LP  0  0  0  0  0  0  0  0  0  0  0  0  # atno 13495 bound_to 9130
  125.3641  245.1580  318.0116 LP  0  0  0  0  0  0  0  0  0  0  0  0  # atno 13496 bound_to 4885
  124.6811  246.3533  318.8898 LP  0  0  0  0  0  0  0  0  0  0  0  0  # atno 13497 bound_to 4885
  120.0820  243.3487  314.6122 LP  0  0  0  0  0  0  0  0  0  0  0  0  # atno 13498 bound_to 8977
  120.9123  244.5229  315.3857 LP  0  0  0  0  0  0  0  0  0  0  0  0  # atno 13499 bound_to 8977
  122.0183  248.8026  329.8962 LP  0  0  0  0  0  0  0  0  0  0  0  0  # atno 13500 bound_to 3563
  113.8301  247.8884  316.5049 LP  0  0  0  0  0  0  0  0  0  0  0  0  # atno 13501 bound_to 8448
  114.4946  248.3984  318.0209 LP  0  0  0  0  0  0  0  0  0  0  0  0  # atno 13502 bound_to 8448
  119.7261  248.8468  329.7616 LP  0  0  0  0  0  0  0  0  0  0  0  0  # atno 13503 bound_to 3502
  118.8710  249.4195  331.1547 LP  0  0  0  0  0  0  0  0  0  0  0  0  # atno 13504 bound_to 3502
  119.6747  250.8692  329.5612 LP  0  0  0  0  0  0  0  0  0  0  0  0  # atno 13505 bound_to 3542
  113.1536  243.3175  316.9085 LP  0  0  0  0  0  0  0  0  0  0  0  0  # atno 13506 bound_to 8426
  112.7127  244.9773  317.1340 LP  0  0  0  0  0  0  0  0  0  0  0  0  # atno 13507 bound_to 8426
  112.4238  247.5384  318.4082 LP  0  0  0  0  0  0  0  0  0  0  0  0  # atno 13510 bound_to 8476
  115.4603  248.0339  316.2301 LP  0  0  0  0  0  0  0  0  0  0  0  0  # atno 13511 bound_to 8937
  110.1078  246.2566  318.7430 LP  0  0  0  0  0  0  0  0  0  0  0  0  # atno 13514 bound_to 5543
  110.3408  245.4703  320.2685 LP  0  0  0  0  0  0  0  0  0  0  0  0  # atno 13515 bound_to 5543
  111.2762  251.8649  329.6775 LP  0  0  0  0  0  0  0  0  0  0  0  0  # atno 13516 bound_to 12863
  112.1762  251.4692  328.3736 LP  0  0  0  0  0  0  0  0  0  0  0  0  # atno 13517 bound_to 12863
  107.9549  242.9642  321.2127 LP  0  0  0  0  0  0  0  0  0  0  0  0  # atno 13518 bound_to 5545
  106.8470  242.8250  320.0213 LP  0  0  0  0  0  0  0  0  0  0  0  0  # atno 13519 bound_to 5545
  108.4812  242.8636  318.5774 LP  0  0  0  0  0  0  0  0  0  0  0  0  # atno 13520 bound_to 5565
  111.5244  238.3126  320.7260 LP  0  0  0  0  0  0  0  0  0  0  0  0  # atno 13523 bound_to 8319
  112.9327  238.5233  321.5253 LP  0  0  0  0  0  0  0  0  0  0  0  0  # atno 13524 bound_to 8319
  114.2962  237.0586  327.9223 LP  0  0  0  0  0  0  0  0  0  0  0  0  # atno 13525 bound_to 9180
  114.4632  237.9724  329.3842 LP  0  0  0  0  0  0  0  0  0  0  0  0  # atno 13526 bound_to 9180
  106.0793  243.6803  318.5067 LP  0  0  0  0  0  0  0  0  0  0  0  0  # atno 13529 bound_to 5540
  110.4659  248.7634  318.9495 LP  0  0  0  0  0  0  0  0  0  0  0  0  # atno 13530 bound_to 8500
  107.8814  246.4227  317.4384 LP  0  0  0  0  0  0  0  0  0  0  0  0  # atno 13531 bound_to 5517
  107.1055  246.4557  315.8902 LP  0  0  0  0  0  0  0  0  0  0  0  0  # atno 13532 bound_to 5517
  109.5506  245.1825  315.5087 LP  0  0  0  0  0  0  0  0  0  0  0  0  # atno 13533 bound_to 8481
  109.2771  246.1592  316.7885 LP  0  0  0  0  0  0  0  0  0  0  0  0  # atno 13534 bound_to 8481
  108.1799  252.7925  319.8532 LP  0  0  0  0  0  0  0  0  0  0  0  0  # atno 13535 bound_to 8503
  107.2961  251.3433  320.1977 LP  0  0  0  0  0  0  0  0  0  0  0  0  # atno 13536 bound_to 8503
  110.7541  250.6585  319.5082 LP  0  0  0  0  0  0  0  0  0  0  0  0  # atno 13537 bound_to 8528
  109.2585  241.0277  316.1962 LP  0  0  0  0  0  0  0  0  0  0  0  0  # atno 13538 bound_to 5568
  108.4421  242.5457  316.3665 LP  0  0  0  0  0  0  0  0  0  0  0  0  # atno 13539 bound_to 5568
  109.9629  249.5307  315.1995 LP  0  0  0  0  0  0  0  0  0  0  0  0  # atno 13540 bound_to 8479
  108.5068  249.4882  316.1365 LP  0  0  0  0  0  0  0  0  0  0  0  0  # atno 13541 bound_to 8479
  105.4308  253.1589  322.6476 LP  0  0  0  0  0  0  0  0  0  0  0  0  # atno 13545 bound_to 12894
  103.7376  252.8554  322.4452 LP  0  0  0  0  0  0  0  0  0  0  0  0  # atno 13546 bound_to 12894
  109.7108  255.6018  321.6855 LP  0  0  0  0  0  0  0  0  0  0  0  0  # atno 13547 bound_to 12822
  111.2906  254.9559  321.9799 LP  0  0  0  0  0  0  0  0  0  0  0  0  # atno 13548 bound_to 12822
  109.7594  256.8735  323.9054 LP  0  0  0  0  0  0  0  0  0  0  0  0  # atno 13549 bound_to 12852
  106.5624  254.2334  323.2208 LP  0  0  0  0  0  0  0  0  0  0  0  0  # atno 13550 bound_to 12891

> <Gold.Score>
     Fitness  S(hb_ext) S(vdw_ext)  S(hb_int)    S(int)      intcor
     37.97      10.70      20.33       0.00      -0.69      -0.76

> <Gold.Goldscore.Fitness>
37.9722

> <Gold.Goldscore.Internal.Vdw>
-0.9343

> <Gold.Goldscore.Internal.Torsion>
-0.5208

> <Gold.Goldscore.External.Vdw>
20.3346

> <Gold.Goldscore.Internal.HBond>
0.0000

> <Gold.Goldscore.External.HBond>
10.7023

> <Gold.Goldscore.Internal.Correction>
-0.7650

> <Gold.Goldscore.Hbonds>
donor molecule, donor type, donor heavy atom, donor atom, acceptor molecule, acceptor atom, score
      L1  H     8    22       P1 13310  0.99
      L1  H    10    23       P1  8507  0.79

> <Gold.Goldscore.Internal.Vdw.Weighted>
-0.9343

> <Gold.Goldscore.Internal.Torsion.Weighted>
-0.5208

> <Gold.Goldscore.External.Vdw.Weighted>
27.9600

> <Gold.Goldscore.Internal.HBond.Weighted>
0.0000

> <Gold.Goldscore.External.HBond.Weighted>
10.7023

> <Gold.Goldscore.Internal.Correction.Weighted>
-0.7650

> <Gold.Rescore>
     Score     S(PLP)   S(hbond)     S(cho)   S(metal)  DE(clash)   DE(tors)     intcor
     36.26     -34.67       0.82       0.00       0.00       0.00       0.43       ----

> <Gold.PLP.Fitness>
36.2624

> <Gold.PLP.PLP>
-34.6678

> <Gold.PLP.part.hbond>
-1.0000

> <Gold.PLP.part.metal>
0.0000

> <Gold.PLP.part.buried>
-2.5261

> <Gold.PLP.part.nonpolar>
-31.3125

> <Gold.PLP.part.repulsive>
0.8484

> <Gold.PLP.ligand.clash>
0.0000

> <Gold.PLP.ligand.torsion>
0.4267

> <Gold.PLP.Chemscore.Hbond>
0.8160

> <Gold.PLP.Chemscore.CHOScore>
0.0000

> <Gold.PLP.Chemscore.Metal>
0.0000

> <Gold.Chemscore.Hbonds>
donor molecule, donor type, donor heavy atom, donor atom, acceptor molecule, acceptor atom, score
      L1  H     8    22       P1 13310  1.00
      L1  H    10    23       P1  8507  0.83

> <Gold.PLP.Chemscore.Internal.Correction>
   9.000000E+99

