#       Name:                CT1002167954
#       Creating user name   hitesit
#       Creation time:       Sun Apr 16 20:17:44 2023


#       File generated by GOLD software.
#

@<TRIPOS>MOLECULE
CT1002167954|ligand_prepared|mol2|1|dock5
    29    30     1
SMALL
NO_CHARGES


@<TRIPOS>ATOM
      1 C1         113.3285 241.6046 326.2668 C.3            1 RES1               0.0000
      2 C2         113.1709 242.9991 325.6271 C.ar           1 RES1               0.0000
      3 C3         111.9183 241.1193 326.5894 C.2            1 RES1               0.0000
      4 C4         114.0629 240.7462 325.2428 C.2            1 RES1               0.0000
      5 C5         114.1581 241.6060 327.5719 C.3            1 RES1               0.0000
      6 C6         114.1675 243.9602 325.7681 C.ar           1 RES1               0.0000
      7 C7         112.0377 243.3378 324.8923 C.ar           1 RES1               0.0000
      8 N8         111.3901 240.1419 325.7984 N.am           1 RES1               0.0000
      9 O9         111.2647 241.6143 327.4993 O.2            1 RES1               0.0000
     10 N10        113.3891 239.6887 324.6900 N.am           1 RES1               0.0000
     11 O11        115.2133 240.9859 324.8974 O.2            1 RES1               0.0000
     12 C12        114.0433 240.3186 328.3728 C.3            1 RES1               0.0000
     13 C13        114.0374 245.2134 325.1928 C.ar           1 RES1               0.0000
     14 C14        111.9096 244.5917 324.3181 C.ar           1 RES1               0.0000
     15 C15        112.0758 239.3661 324.8986 C.2            1 RES1               0.0000
     16 C16        112.9088 245.5298 324.4671 C.ar           1 RES1               0.0000
     17 O17        111.5251 238.4322 324.3228 O.2            1 RES1               0.0000
     18 H18        115.2127 241.7722 327.3198 H              1 RES1               0.0000
     19 H19        113.8276 242.4429 328.1995 H              1 RES1               0.0000
     20 H20        115.0617 243.7301 326.3377 H              1 RES1               0.0000
     21 H21        111.2384 242.6160 324.7628 H              1 RES1               0.0000
     22 H22        110.3930 239.9722 325.8838 H              1 RES1               0.0000
     23 H23        113.9153 239.0861 324.0653 H              1 RES1               0.0000
     24 H24        114.6443 240.3726 329.2781 H              1 RES1               0.0000
     25 H25        113.0106 240.1350 328.6621 H              1 RES1               0.0000
     26 H26        114.3876 239.4683 327.7876 H              1 RES1               0.0000
     27 H27        114.8261 245.9486 325.3142 H              1 RES1               0.0000
     28 H28        111.0193 244.8366 323.7483 H              1 RES1               0.0000
     29 H29        112.8073 246.5115 324.0163 H              1 RES1               0.0000
@<TRIPOS>BOND
    1    1    2 1     
    2    1    3 1     
    3    1    4 1     
    4    1    5 1     
    5    2    6 ar    
    6    2    7 ar    
    7    3    8 1     
    8    3    9 2     
    9    4   10 1     
   10    4   11 2     
   11    5   12 1     
   12    5   18 1     
   13    5   19 1     
   14    6   13 ar    
   15    6   20 1     
   16    7   14 ar    
   17    7   21 1     
   18    8   15 1     
   19    8   22 1     
   20   10   15 1     
   21   10   23 1     
   22   12   24 1     
   23   12   25 1     
   24   12   26 1     
   25   13   16 ar    
   26   13   27 1     
   27   14   16 ar    
   28   14   28 1     
   29   15   17 2     
   30   16   29 1     
@<TRIPOS>SUBSTRUCTURE
      1 RES1           1
@<TRIPOS>SET
DONOR_HYDROGENS      STATIC     ATOMS    <user>   **** ""
2 22 23
ATOM$RED        STATIC     ATOMS    COLORGROUP SYSTEM
2 22 23
@<TRIPOS>COMMENT
> <Gold.Version>
2022.3.0

> <Gold.Id.Protein>
unknown|5adf_clean|pdb

> <Gold.Protein.RotatedTorsions>
[ 8428 8423 8424 8425 ] final -136.61 input   46.96 | X-H torsion
[ 8452 8445 8446 8447 ] final -129.83 input  111.34 | X-H torsion
[ 8996 8992 8993 8994 ] final   69.81 input   44.62 | X-H torsion
[ 9030 9016 9017 9018 ] final  146.28 input   32.56 | X-H torsion
[ 9077 9062 9063 9064 ] final -139.15 input   99.28 | X-H torsion
[ 9085 9073 9072 9070 ] final -140.95 input   59.99 | X-H torsion
[ 9117 9100 9101 9102 ] final -101.97 input   89.92 | X-H torsion
[ 9192 9177 9178 9179 ] final  135.59 input  116.56 | X-H torsion
[ 3601 3592 3593 3594 ] final   63.81 input   84.58 | X-H torsion
[ 8978 8972 8973 8974 ] final   24.02 input   29.23 | X-H torsion
[ 9137 9130 9131 9132 ] final   36.71 input  126.15 | X-H torsion
[ 4895 4885 4884 4881 ] final -118.13 input   60.00 | X-H torsion
[ 8982 8977 8976 8973 ] final  161.73 input   60.00 | X-H torsion
[ 3579 3563 3564 3565 ] final   10.66 input  100.61 | X-H torsion
[ 3552 3542 3543 3544 ] final  168.31 input   82.26 | X-H torsion
[ 8482 8476 8477 8478 ] final  -35.97 input   53.28 | X-H torsion
[ 8948 8937 8938 8939 ] final  150.80 input   48.32 | X-H torsion
[ 12881 12863 12862 12860 ] final   16.61 input   60.03 | X-H torsion
[ 5550 5545 5544 5541 ] final   91.55 input   60.00 | X-H torsion
[ 5574 5565 5566 5567 ] final    1.76 input   49.17 | X-H torsion
[ 8328 8319 8318 8316 ] final  -99.51 input   60.00 | X-H torsion
[ 5546 5540 5541 5542 ] final -156.08 input  103.84 | X-H torsion
[ 8513 8500 8501 8502 ] final  -57.71 input   63.30 | X-H torsion
[ 8486 8481 8480 8477 ] final -132.80 input   60.02 | X-H torsion
[ 8545 8528 8529 8530 ] final  -23.04 input   88.08 | X-H torsion
[ 12873 12852 12853 12854 ] final  -51.24 input  106.44 | X-H torsion
[ 12908 12891 12892 12893 ] final   48.80 input   37.87 | X-H torsion
[ 9225 9206 9207 9208 ] final    8.66 input   89.32 | X-H torsion
[ 11050 11043 11044 11045 ] final -176.94 input   52.80 | X-H torsion
[ 5606 5598 5599 5600 ] final  -44.44 input  119.27 | X-H torsion
[ 8581 8562 8563 8564 ] final  171.48 input   68.50 | X-H torsion
[ 13460 8400 8399 8398 ] final    2.41 input   -0.00 | X-H torsion
[ 13464 8940 8939 8938 ] final -133.67 input   -0.00 | X-H torsion
[ 13467 8995 8994 8993 ] final  -32.78 input    0.00 | X-H torsion
[ 13470 9019 9018 9017 ] final   51.08 input    0.00 | X-H torsion
[ 13473 9065 9064 9063 ] final  169.50 input   -0.00 | X-H torsion
[ 13478 9103 9102 9101 ] final   66.74 input   -0.00 | X-H torsion
[ 13491 8975 8974 8973 ] final    9.88 input    0.00 | X-H torsion
[ 13493 8345 8344 8343 ] final -157.20 input    0.00 | X-H torsion
[ 13501 8448 8447 8446 ] final   72.07 input    0.00 | X-H torsion
[ 13503 3502 3501 3500 ] final  113.03 input    0.00 | X-H torsion
[ 13506 8426 8425 8424 ] final   -8.00 input    0.00 | X-H torsion
[ 13514 5543 5542 5541 ] final  175.05 input   -0.00 | X-H torsion
[ 13525 9180 9179 9178 ] final  -26.02 input    0.00 | X-H torsion
[ 13531 5517 5516 5515 ] final  -51.36 input    0.00 | X-H torsion
[ 13535 8503 8502 8501 ] final -172.66 input   -0.00 | X-H torsion
[ 13538 5568 5567 5566 ] final  102.66 input   -0.00 | X-H torsion
[ 13540 8479 8478 8477 ] final -171.91 input   -0.00 | X-H torsion
[ 13545 12894 12893 12892 ] final   65.93 input    0.00 | X-H torsion
[ 13547 12822 12821 12820 ] final  161.90 input   -0.00 | X-H torsion

> <Gold.Protein.ActiveResidues>
 TRP311  MET341  HIS342  TRP414  ALA417  ARG419  CYS420  VAL421  GLY422  LEU460 
 SER462  ASN481  SER482  GLN483  LEU484  ARG486  ALA502  ASN503  TRP566  TYR567 
 GLY568  LEU569  PRO570  ALA571  VAL572  SER573  ASN574  MET575  LEU576  PHE589 
 SER590  GLY591  TRP592  TYR593  MET594  GLY595  GLU597  ILE598  ARG601  ASP602 
 ARG608  ILE653  VAL654  TRP683  PHE709  GLU710  TYR711  GLN712  ASP714  HEM750 
 H4B760 

> <Gold.Protein.RotatedAtoms>
  119.6699  251.5213  328.6655 H   0  0  0  0  0  0  0  0  0  0  0  0  # atno 3552 bound_to 3542
  122.5932  248.4022  328.2945 H   0  0  0  0  0  0  0  0  0  0  0  0  # atno 3579 bound_to 3563
  123.8115  248.3063  327.2926 H   0  0  0  0  0  0  0  0  0  0  0  0  # atno 3601 bound_to 3592
  124.7978  246.4736  318.9427 H   0  0  0  0  0  0  0  0  0  0  0  0  # atno 4895 bound_to 4885
  105.7460  244.8814  318.0863 H   0  0  0  0  0  0  0  0  0  0  0  0  # atno 5546 bound_to 5540
  107.9317  242.9709  321.2592 H   0  0  0  0  0  0  0  0  0  0  0  0  # atno 5550 bound_to 5545
  108.4036  243.3066  318.0517 H   0  0  0  0  0  0  0  0  0  0  0  0  # atno 5574 bound_to 5565
  110.7007  242.3471  316.5384 H   0  0  0  0  0  0  0  0  0  0  0  0  # atno 5606 bound_to 5598
  111.7419  238.5042  320.6798 H   0  0  0  0  0  0  0  0  0  0  0  0  # atno 8328 bound_to 8319
  116.7140  242.2310  318.6818 H   0  0  0  0  0  0  0  0  0  0  0  0  # atno 8428 bound_to 8423
  114.6053  244.3849  318.8613 H   0  0  0  0  0  0  0  0  0  0  0  0  # atno 8452 bound_to 8445
  111.7971  247.5819  318.7182 H   0  0  0  0  0  0  0  0  0  0  0  0  # atno 8482 bound_to 8476
  110.3016  244.8412  315.9252 H   0  0  0  0  0  0  0  0  0  0  0  0  # atno 8486 bound_to 8481
  110.5576  249.3552  317.6617 H   0  0  0  0  0  0  0  0  0  0  0  0  # atno 8513 bound_to 8500
  109.7179  251.4980  318.4259 H   0  0  0  0  0  0  0  0  0  0  0  0  # atno 8545 bound_to 8528
  109.7992  254.6539  319.5363 H   0  0  0  0  0  0  0  0  0  0  0  0  # atno 8581 bound_to 8562
  115.7061  249.4754  315.6593 H   0  0  0  0  0  0  0  0  0  0  0  0  # atno 8948 bound_to 8937
  119.7928  247.1927  316.2316 H   0  0  0  0  0  0  0  0  0  0  0  0  # atno 8978 bound_to 8972
  119.9990  243.3894  314.5448 H   0  0  0  0  0  0  0  0  0  0  0  0  # atno 8982 bound_to 8977
  120.3101  244.2375  319.2105 H   0  0  0  0  0  0  0  0  0  0  0  0  # atno 8996 bound_to 8992
  123.5737  242.6126  319.8123 H   0  0  0  0  0  0  0  0  0  0  0  0  # atno 9030 bound_to 9016
  121.5981  240.0846  321.9474 H   0  0  0  0  0  0  0  0  0  0  0  0  # atno 9077 bound_to 9062
  114.9797  237.1805  322.0333 H   0  0  0  0  0  0  0  0  0  0  0  0  # atno 9085 bound_to 9073
  122.4403  239.4568  325.3626 H   0  0  0  0  0  0  0  0  0  0  0  0  # atno 9117 bound_to 9100
  122.3544  237.7517  329.1546 H   0  0  0  0  0  0  0  0  0  0  0  0  # atno 9137 bound_to 9130
  119.1038  238.3165  329.3838 H   0  0  0  0  0  0  0  0  0  0  0  0  # atno 9192 bound_to 9177
  117.1163  236.3240  329.0718 H   0  0  0  0  0  0  0  0  0  0  0  0  # atno 9225 bound_to 9206
  126.4849  237.6553  324.7104 H   0  0  0  0  0  0  0  0  0  0  0  0  # atno 11050 bound_to 11043
  110.1753  256.3793  323.5074 H   0  0  0  0  0  0  0  0  0  0  0  0  # atno 12873 bound_to 12852
  111.5684  250.7131  328.2225 H   0  0  0  0  0  0  0  0  0  0  0  0  # atno 12881 bound_to 12863
  106.9218  254.0676  322.4933 H   0  0  0  0  0  0  0  0  0  0  0  0  # atno 12908 bound_to 12891
  118.8364  242.5842  319.1522 LP  0  0  0  0  0  0  0  0  0  0  0  0  # atno 13460 bound_to 8400
  117.9050  243.7706  318.3008 LP  0  0  0  0  0  0  0  0  0  0  0  0  # atno 13461 bound_to 8400
  115.0023  241.9246  318.5216 LP  0  0  0  0  0  0  0  0  0  0  0  0  # atno 13462 bound_to 8423
  115.4096  245.8177  318.2638 LP  0  0  0  0  0  0  0  0  0  0  0  0  # atno 13463 bound_to 8445
  117.0866  246.1449  318.2204 LP  0  0  0  0  0  0  0  0  0  0  0  0  # atno 13464 bound_to 8940
  116.0175  246.4008  316.8819 LP  0  0  0  0  0  0  0  0  0  0  0  0  # atno 13465 bound_to 8940
  120.9189  244.7040  317.6379 LP  0  0  0  0  0  0  0  0  0  0  0  0  # atno 13466 bound_to 8992
  121.8392  242.0820  317.5365 LP  0  0  0  0  0  0  0  0  0  0  0  0  # atno 13467 bound_to 8995
  123.0293  241.0410  318.2436 LP  0  0  0  0  0  0  0  0  0  0  0  0  # atno 13468 bound_to 8995
  122.1925  242.8575  320.8515 LP  0  0  0  0  0  0  0  0  0  0  0  0  # atno 13469 bound_to 9016
  121.8191  242.4980  322.6062 LP  0  0  0  0  0  0  0  0  0  0  0  0  # atno 13470 bound_to 9019
  122.7434  241.6849  323.8247 LP  0  0  0  0  0  0  0  0  0  0  0  0  # atno 13471 bound_to 9019
  122.9291  239.0375  322.3842 LP  0  0  0  0  0  0  0  0  0  0  0  0  # atno 13472 bound_to 9062
  124.2315  238.9094  325.6509 LP  0  0  0  0  0  0  0  0  0  0  0  0  # atno 13473 bound_to 9065
  123.8011  238.2772  324.0968 LP  0  0  0  0  0  0  0  0  0  0  0  0  # atno 13474 bound_to 9065
  115.0740  238.7828  321.7653 LP  0  0  0  0  0  0  0  0  0  0  0  0  # atno 13475 bound_to 9073
  114.6618  238.2221  323.2425 LP  0  0  0  0  0  0  0  0  0  0  0  0  # atno 13476 bound_to 9073
  121.0775  240.2171  326.1526 LP  0  0  0  0  0  0  0  0  0  0  0  0  # atno 13477 bound_to 9100
  120.0605  238.1370  326.8494 LP  0  0  0  0  0  0  0  0  0  0  0  0  # atno 13478 bound_to 9103
  119.8490  238.1303  328.5685 LP  0  0  0  0  0  0  0  0  0  0  0  0  # atno 13479 bound_to 9103
  118.0807  237.2377  330.2951 LP  0  0  0  0  0  0  0  0  0  0  0  0  # atno 13480 bound_to 9177
  124.8110  247.4349  328.4281 LP  0  0  0  0  0  0  0  0  0  0  0  0  # atno 13489 bound_to 3592
  118.1070  246.9360  316.6090 LP  0  0  0  0  0  0  0  0  0  0  0  0  # atno 13490 bound_to 8972
  121.3942  246.6722  316.4206 LP  0  0  0  0  0  0  0  0  0  0  0  0  # atno 13491 bound_to 8975
  122.6417  245.7904  317.2369 LP  0  0  0  0  0  0  0  0  0  0  0  0  # atno 13492 bound_to 8975
  120.1608  237.8188  319.1642 LP  0  0  0  0  0  0  0  0  0  0  0  0  # atno 13493 bound_to 8345
  121.1656  236.4080  319.1625 LP  0  0  0  0  0  0  0  0  0  0  0  0  # atno 13494 bound_to 8345
  122.7444  237.2678  327.5200 LP  0  0  0  0  0  0  0  0  0  0  0  0  # atno 13495 bound_to 9130
  126.3493  246.2242  318.5187 LP  0  0  0  0  0  0  0  0  0  0  0  0  # atno 13496 bound_to 4885
  125.1925  245.1713  318.0498 LP  0  0  0  0  0  0  0  0  0  0  0  0  # atno 13497 bound_to 4885
  120.9333  244.4111  315.3995 LP  0  0  0  0  0  0  0  0  0  0  0  0  # atno 13498 bound_to 8977
  119.7738  244.9950  314.4089 LP  0  0  0  0  0  0  0  0  0  0  0  0  # atno 13499 bound_to 8977
  122.0446  248.8673  329.8895 LP  0  0  0  0  0  0  0  0  0  0  0  0  # atno 13500 bound_to 3563
  114.4931  247.4521  316.8594 LP  0  0  0  0  0  0  0  0  0  0  0  0  # atno 13501 bound_to 8448
  113.8317  248.8347  317.6664 LP  0  0  0  0  0  0  0  0  0  0  0  0  # atno 13502 bound_to 8448
  118.9936  248.9499  329.6685 LP  0  0  0  0  0  0  0  0  0  0  0  0  # atno 13503 bound_to 3502
  119.6034  249.3164  331.2477 LP  0  0  0  0  0  0  0  0  0  0  0  0  # atno 13504 bound_to 3502
  120.8509  251.3756  329.9441 LP  0  0  0  0  0  0  0  0  0  0  0  0  # atno 13505 bound_to 3542
  113.3238  243.6070  316.4686 LP  0  0  0  0  0  0  0  0  0  0  0  0  # atno 13506 bound_to 8426
  112.5425  244.6877  317.5739 LP  0  0  0  0  0  0  0  0  0  0  0  0  # atno 13507 bound_to 8426
  112.0404  246.1405  317.7645 LP  0  0  0  0  0  0  0  0  0  0  0  0  # atno 13510 bound_to 8476
  115.5753  247.7372  315.5414 LP  0  0  0  0  0  0  0  0  0  0  0  0  # atno 13511 bound_to 8937
  110.8247  245.2715  319.3082 LP  0  0  0  0  0  0  0  0  0  0  0  0  # atno 13514 bound_to 5543
  109.6238  246.4555  319.7033 LP  0  0  0  0  0  0  0  0  0  0  0  0  # atno 13515 bound_to 5543
  110.7233  251.1692  329.5364 LP  0  0  0  0  0  0  0  0  0  0  0  0  # atno 13516 bound_to 12863
  112.0356  252.0217  329.0697 LP  0  0  0  0  0  0  0  0  0  0  0  0  # atno 13517 bound_to 12863
  106.8978  242.8243  320.0113 LP  0  0  0  0  0  0  0  0  0  0  0  0  # atno 13518 bound_to 5545
  106.3277  242.9866  321.5329 LP  0  0  0  0  0  0  0  0  0  0  0  0  # atno 13519 bound_to 5545
  109.1489  243.9732  319.4872 LP  0  0  0  0  0  0  0  0  0  0  0  0  # atno 13520 bound_to 5565
  112.9587  238.3302  321.7463 LP  0  0  0  0  0  0  0  0  0  0  0  0  # atno 13523 bound_to 8319
  111.6537  237.3518  321.8255 LP  0  0  0  0  0  0  0  0  0  0  0  0  # atno 13524 bound_to 8319
  114.4683  238.1058  329.2806 LP  0  0  0  0  0  0  0  0  0  0  0  0  # atno 13525 bound_to 9180
  114.2911  236.9251  328.0258 LP  0  0  0  0  0  0  0  0  0  0  0  0  # atno 13526 bound_to 9180
  106.9651  243.6670  317.7933 LP  0  0  0  0  0  0  0  0  0  0  0  0  # atno 13529 bound_to 5540
  109.8538  248.0538  318.5829 LP  0  0  0  0  0  0  0  0  0  0  0  0  # atno 13530 bound_to 8500
  107.8541  246.0210  315.9972 LP  0  0  0  0  0  0  0  0  0  0  0  0  # atno 13531 bound_to 5517
  107.1328  246.8574  317.3314 LP  0  0  0  0  0  0  0  0  0  0  0  0  # atno 13532 bound_to 5517
  109.0289  245.8556  315.9482 LP  0  0  0  0  0  0  0  0  0  0  0  0  # atno 13533 bound_to 8481
  110.0552  245.7999  317.2172 LP  0  0  0  0  0  0  0  0  0  0  0  0  # atno 13534 bound_to 8481
  108.3079  252.7026  320.1749 LP  0  0  0  0  0  0  0  0  0  0  0  0  # atno 13535 bound_to 8503
  107.1681  251.4331  319.8761 LP  0  0  0  0  0  0  0  0  0  0  0  0  # atno 13536 bound_to 8503
  110.5259  250.6280  319.7035 LP  0  0  0  0  0  0  0  0  0  0  0  0  # atno 13537 bound_to 8528
  108.6210  242.4814  315.8178 LP  0  0  0  0  0  0  0  0  0  0  0  0  # atno 13538 bound_to 5568
  109.0796  241.0920  316.7449 LP  0  0  0  0  0  0  0  0  0  0  0  0  # atno 13539 bound_to 5568
  108.8222  250.0132  316.2390 LP  0  0  0  0  0  0  0  0  0  0  0  0  # atno 13540 bound_to 8479
  109.6474  249.0057  315.0970 LP  0  0  0  0  0  0  0  0  0  0  0  0  # atno 13541 bound_to 8479
  104.8791  253.2601  323.3204 LP  0  0  0  0  0  0  0  0  0  0  0  0  # atno 13545 bound_to 12894
  104.2892  252.7543  321.7724 LP  0  0  0  0  0  0  0  0  0  0  0  0  # atno 13546 bound_to 12894
  110.0206  254.6715  322.2208 LP  0  0  0  0  0  0  0  0  0  0  0  0  # atno 13547 bound_to 12822
  110.9808  255.8862  321.4446 LP  0  0  0  0  0  0  0  0  0  0  0  0  # atno 13548 bound_to 12822
  110.1069  256.1462  325.2372 LP  0  0  0  0  0  0  0  0  0  0  0  0  # atno 13549 bound_to 12852
  107.2110  255.6078  323.2676 LP  0  0  0  0  0  0  0  0  0  0  0  0  # atno 13550 bound_to 12891

> <Gold.Score>
     Fitness  S(hb_ext) S(vdw_ext)  S(hb_int)    S(int)      intcor
     36.39       4.91      23.46       0.00      -0.77      -0.76

> <Gold.Goldscore.Fitness>
36.3947

> <Gold.Goldscore.Internal.Vdw>
-0.8747

> <Gold.Goldscore.Internal.Torsion>
-0.6632

> <Gold.Goldscore.External.Vdw>
23.4610

> <Gold.Goldscore.Internal.HBond>
0.0000

> <Gold.Goldscore.External.HBond>
4.9088

> <Gold.Goldscore.Internal.Correction>
-0.7650

> <Gold.Goldscore.Hbonds>
donor molecule, donor type, donor heavy atom, donor atom, acceptor molecule, acceptor atom, score
      P1  H  9513  9525       L1    17  0.51
      L1  H    10    23       P1  9073  0.93

> <Gold.Goldscore.Internal.Vdw.Weighted>
-0.8747

> <Gold.Goldscore.Internal.Torsion.Weighted>
-0.6632

> <Gold.Goldscore.External.Vdw.Weighted>
32.2589

> <Gold.Goldscore.Internal.HBond.Weighted>
0.0000

> <Gold.Goldscore.External.HBond.Weighted>
4.9088

> <Gold.Goldscore.Internal.Correction.Weighted>
-0.7650

> <Gold.Rescore>
     Score     S(PLP)   S(hbond)     S(cho)   S(metal)  DE(clash)   DE(tors)     intcor
     18.89     -17.76       1.12       0.00       0.00       0.00       1.12       ----

> <Gold.PLP.Fitness>
18.8927

> <Gold.PLP.PLP>
-17.7558

> <Gold.PLP.part.hbond>
-4.1966

> <Gold.PLP.part.metal>
0.0000

> <Gold.PLP.part.buried>
3.7521

> <Gold.PLP.part.nonpolar>
-20.6656

> <Gold.PLP.part.repulsive>
2.2351

> <Gold.PLP.ligand.clash>
0.0000

> <Gold.PLP.ligand.torsion>
1.1181

> <Gold.PLP.Chemscore.Hbond>
1.1244

> <Gold.PLP.Chemscore.CHOScore>
0.0000

> <Gold.PLP.Chemscore.Metal>
0.0000

> <Gold.Chemscore.Hbonds>
donor molecule, donor type, donor heavy atom, donor atom, acceptor molecule, acceptor atom, score
      L1  H    10    23       P1  9073  0.42
      P1  H  9513  9525       L1    17  0.32

> <Gold.PLP.Chemscore.Internal.Correction>
   9.000000E+99

