#       Name:                GA Fitting Points
#       Creating user name   hitesit
#       Creation time:       Sun Apr 16 02:23:11 2023


#       Fitting Points Used by GA Software.
#

@<TRIPOS>MOLECULE
GA Fitting Points
  4783    0    0
SMALL
NO_CHARGES


@<TRIPOS>ATOM
      1 ****        95.0000 266.7500 360.7500 Du        
      2 ****        95.0000 266.7500 361.0000 Du        
      3 ****        95.0000 267.0000 360.7500 Du        
      4 ****        95.0000 267.0000 361.0000 Du        
      5 ****        95.0000 267.2500 360.7500 Du        
      6 ****        95.2500 263.2500 352.7500 Du        
      7 ****        95.2500 263.2500 353.0000 Du        
      8 ****        95.2500 263.2500 353.2500 Du        
      9 ****        95.2500 263.7500 352.7500 Du        
     10 ****        95.2500 263.7500 353.0000 Du        
     11 ****        95.2500 264.0000 353.2500 Du        
     12 ****        95.2500 264.2500 353.2500 Du        
     13 ****        95.2500 266.2500 360.7500 Du        
     14 ****        95.2500 266.2500 361.0000 Du        
     15 ****        95.2500 266.5000 360.7500 Du        
     16 ****        95.2500 266.5000 361.0000 Du        
     17 ****        95.2500 266.7500 360.7500 Du        
     18 ****        95.2500 266.7500 361.0000 Du        
     19 ****        95.2500 266.7500 361.2500 Du        
     20 ****        95.2500 267.0000 360.7500 Du        
     21 ****        95.2500 267.0000 361.0000 Du        
     22 ****        95.2500 267.0000 361.2500 Du        
     23 ****        95.2500 267.2500 360.7500 Du        
     24 ****        95.2500 267.2500 361.0000 Du        
     25 ****        95.5000 256.5000 359.5000 Du        
     26 ****        95.5000 256.5000 359.7500 Du        
     27 ****        95.5000 256.7500 359.5000 Du        
     28 ****        95.5000 261.2500 354.0000 Du        
     29 ****        95.5000 261.2500 354.2500 Du        
     30 ****        95.5000 261.5000 354.0000 Du        
     31 ****        95.5000 261.7500 354.0000 Du        
     32 ****        95.5000 262.0000 353.7500 Du        
     33 ****        95.5000 262.0000 354.0000 Du        
     34 ****        95.5000 262.2500 354.0000 Du        
     35 ****        95.5000 262.7500 353.2500 Du        
     36 ****        95.5000 263.0000 353.0000 Du        
     37 ****        95.5000 263.0000 353.2500 Du        
     38 ****        95.5000 263.2500 352.7500 Du        
     39 ****        95.5000 263.2500 353.0000 Du        
     40 ****        95.5000 263.2500 353.2500 Du        
     41 ****        95.5000 263.5000 352.7500 Du        
     42 ****        95.5000 263.5000 353.0000 Du        
     43 ****        95.5000 263.5000 353.2500 Du        
     44 ****        95.5000 263.5000 353.5000 Du        
     45 ****        95.5000 263.7500 352.7500 Du        
     46 ****        95.5000 263.7500 353.0000 Du        
     47 ****        95.5000 263.7500 353.2500 Du        
     48 ****        95.5000 264.0000 352.7500 Du        
     49 ****        95.5000 264.0000 353.0000 Du        
     50 ****        95.5000 264.0000 353.2500 Du        
     51 ****        95.5000 264.2500 352.7500 Du        
     52 ****        95.5000 264.2500 353.0000 Du        
     53 ****        95.5000 264.2500 353.2500 Du        
     54 ****        95.5000 264.5000 352.7500 Du        
     55 ****        95.5000 264.5000 353.0000 Du        
     56 ****        95.5000 264.5000 353.2500 Du        
     57 ****        95.5000 264.7500 352.7500 Du        
     58 ****        95.5000 264.7500 353.0000 Du        
     59 ****        95.5000 264.7500 353.2500 Du        
     60 ****        95.5000 265.0000 353.2500 Du        
     61 ****        95.5000 266.0000 360.5000 Du        
     62 ****        95.5000 266.0000 360.7500 Du        
     63 ****        95.5000 266.2500 360.5000 Du        
     64 ****        95.5000 266.2500 360.7500 Du        
     65 ****        95.5000 266.2500 361.0000 Du        
     66 ****        95.5000 266.5000 360.5000 Du        
     67 ****        95.5000 266.5000 360.7500 Du        
     68 ****        95.5000 266.5000 361.0000 Du        
     69 ****        95.5000 266.5000 361.2500 Du        
     70 ****        95.5000 266.7500 360.5000 Du        
     71 ****        95.5000 266.7500 360.7500 Du        
     72 ****        95.5000 266.7500 361.0000 Du        
     73 ****        95.5000 266.7500 361.2500 Du        
     74 ****        95.5000 266.7500 361.5000 Du        
     75 ****        95.5000 267.0000 360.5000 Du        
     76 ****        95.5000 267.0000 360.7500 Du        
     77 ****        95.5000 267.0000 361.0000 Du        
     78 ****        95.5000 267.0000 361.2500 Du        
     79 ****        95.5000 267.2500 360.7500 Du        
     80 ****        95.5000 267.2500 361.0000 Du        
     81 ****        95.5000 267.2500 361.2500 Du        
     82 ****        95.5000 267.5000 360.7500 Du        
     83 ****        95.5000 267.5000 361.0000 Du        
     84 ****        95.7500 256.5000 359.7500 Du        
     85 ****        95.7500 256.7500 359.7500 Du        
     86 ****        95.7500 256.7500 360.0000 Du        
     87 ****        95.7500 257.0000 360.0000 Du        
     88 ****        95.7500 261.0000 354.0000 Du        
     89 ****        95.7500 261.0000 354.2500 Du        
     90 ****        95.7500 261.2500 354.0000 Du        
     91 ****        95.7500 261.2500 354.2500 Du        
     92 ****        95.7500 261.2500 354.5000 Du        
     93 ****        95.7500 261.2500 354.7500 Du        
     94 ****        95.7500 261.5000 354.0000 Du        
     95 ****        95.7500 261.5000 354.2500 Du        
     96 ****        95.7500 261.7500 353.7500 Du        
     97 ****        95.7500 261.7500 354.0000 Du        
     98 ****        95.7500 261.7500 354.2500 Du        
     99 ****        95.7500 262.0000 353.7500 Du        
    100 ****        95.7500 262.0000 354.0000 Du        
    101 ****        95.7500 262.0000 354.2500 Du        
    102 ****        95.7500 262.2500 353.7500 Du        
    103 ****        95.7500 262.2500 354.0000 Du        
    104 ****        95.7500 262.2500 354.2500 Du        
    105 ****        95.7500 262.5000 353.5000 Du        
    106 ****        95.7500 262.5000 353.7500 Du        
    107 ****        95.7500 262.5000 354.0000 Du        
    108 ****        95.7500 262.7500 353.0000 Du        
    109 ****        95.7500 262.7500 353.2500 Du        
    110 ****        95.7500 262.7500 353.5000 Du        
    111 ****        95.7500 262.7500 353.7500 Du        
    112 ****        95.7500 262.7500 354.0000 Du        
    113 ****        95.7500 263.0000 353.0000 Du        
    114 ****        95.7500 263.0000 353.2500 Du        
    115 ****        95.7500 263.0000 353.5000 Du        
    116 ****        95.7500 263.0000 353.7500 Du        
    117 ****        95.7500 263.0000 354.0000 Du        
    118 ****        95.7500 263.2500 352.7500 Du        
    119 ****        95.7500 263.2500 353.0000 Du        
    120 ****        95.7500 263.2500 353.2500 Du        
    121 ****        95.7500 263.2500 353.5000 Du        
    122 ****        95.7500 263.2500 353.7500 Du        
    123 ****        95.7500 263.5000 352.7500 Du        
    124 ****        95.7500 263.5000 353.0000 Du        
    125 ****        95.7500 263.5000 353.2500 Du        
    126 ****        95.7500 263.5000 353.5000 Du        
    127 ****        95.7500 263.5000 353.7500 Du        
    128 ****        95.7500 263.7500 352.7500 Du        
    129 ****        95.7500 263.7500 353.0000 Du        
    130 ****        95.7500 263.7500 353.2500 Du        
    131 ****        95.7500 263.7500 353.5000 Du        
    132 ****        95.7500 263.7500 353.7500 Du        
    133 ****        95.7500 264.0000 352.7500 Du        
    134 ****        95.7500 264.0000 353.0000 Du        
    135 ****        95.7500 264.0000 353.2500 Du        
    136 ****        95.7500 264.0000 353.5000 Du        
    137 ****        95.7500 264.0000 353.7500 Du        
    138 ****        95.7500 264.2500 352.7500 Du        
    139 ****        95.7500 264.2500 353.0000 Du        
    140 ****        95.7500 264.2500 353.2500 Du        
    141 ****        95.7500 264.2500 353.5000 Du        
    142 ****        95.7500 264.5000 352.7500 Du        
    143 ****        95.7500 264.5000 353.0000 Du        
    144 ****        95.7500 264.5000 353.2500 Du        
    145 ****        95.7500 264.5000 353.5000 Du        
    146 ****        95.7500 264.7500 352.7500 Du        
    147 ****        95.7500 264.7500 353.0000 Du        
    148 ****        95.7500 264.7500 353.2500 Du        
    149 ****        95.7500 265.0000 353.2500 Du        
    150 ****        95.7500 265.2500 353.2500 Du        
    151 ****        95.7500 265.2500 353.5000 Du        
    152 ****        95.7500 265.7500 360.5000 Du        
    153 ****        95.7500 265.7500 360.7500 Du        
    154 ****        95.7500 266.0000 360.5000 Du        
    155 ****        95.7500 266.0000 360.7500 Du        
    156 ****        95.7500 266.0000 361.0000 Du        
    157 ****        95.7500 266.2500 360.5000 Du        
    158 ****        95.7500 266.2500 360.7500 Du        
    159 ****        95.7500 266.2500 361.0000 Du        
    160 ****        95.7500 266.2500 361.2500 Du        
    161 ****        95.7500 266.5000 360.5000 Du        
    162 ****        95.7500 266.5000 360.7500 Du        
    163 ****        95.7500 266.5000 361.0000 Du        
    164 ****        95.7500 266.5000 361.2500 Du        
    165 ****        95.7500 266.5000 361.5000 Du        
    166 ****        95.7500 266.7500 360.5000 Du        
    167 ****        95.7500 266.7500 360.7500 Du        
    168 ****        95.7500 266.7500 361.0000 Du        
    169 ****        95.7500 266.7500 361.2500 Du        
    170 ****        95.7500 266.7500 361.5000 Du        
    171 ****        95.7500 267.0000 360.5000 Du        
    172 ****        95.7500 267.0000 360.7500 Du        
    173 ****        95.7500 267.0000 361.0000 Du        
    174 ****        95.7500 267.0000 361.2500 Du        
    175 ****        95.7500 267.0000 361.5000 Du        
    176 ****        95.7500 267.2500 360.5000 Du        
    177 ****        95.7500 267.2500 360.7500 Du        
    178 ****        95.7500 267.2500 361.0000 Du        
    179 ****        95.7500 267.2500 361.2500 Du        
    180 ****        95.7500 267.5000 360.5000 Du        
    181 ****        95.7500 267.5000 360.7500 Du        
    182 ****        95.7500 267.5000 361.0000 Du        
    183 ****        95.7500 267.7500 360.7500 Du        
    184 ****        95.7500 267.7500 361.0000 Du        
    185 ****        96.0000 256.7500 359.7500 Du        
    186 ****        96.0000 256.7500 360.0000 Du        
    187 ****        96.0000 257.0000 359.7500 Du        
    188 ****        96.0000 257.0000 360.0000 Du        
    189 ****        96.0000 261.2500 353.7500 Du        
    190 ****        96.0000 261.2500 354.0000 Du        
    191 ****        96.0000 261.2500 354.2500 Du        
    192 ****        96.0000 261.2500 354.5000 Du        
    193 ****        96.0000 261.2500 354.7500 Du        
    194 ****        96.0000 261.2500 355.0000 Du        
    195 ****        96.0000 261.2500 355.2500 Du        
    196 ****        96.0000 261.5000 353.7500 Du        
    197 ****        96.0000 261.5000 354.0000 Du        
    198 ****        96.0000 261.5000 354.2500 Du        
    199 ****        96.0000 261.5000 354.5000 Du        
    200 ****        96.0000 261.5000 354.7500 Du        
    201 ****        96.0000 261.7500 353.7500 Du        
    202 ****        96.0000 261.7500 354.0000 Du        
    203 ****        96.0000 261.7500 354.2500 Du        
    204 ****        96.0000 261.7500 354.5000 Du        
    205 ****        96.0000 261.7500 354.7500 Du        
    206 ****        96.0000 261.7500 355.0000 Du        
    207 ****        96.0000 262.0000 353.7500 Du        
    208 ****        96.0000 262.0000 354.0000 Du        
    209 ****        96.0000 262.0000 354.2500 Du        
    210 ****        96.0000 262.0000 354.5000 Du        
    211 ****        96.0000 262.0000 354.7500 Du        
    212 ****        96.0000 262.0000 355.0000 Du        
    213 ****        96.0000 262.2500 353.5000 Du        
    214 ****        96.0000 262.2500 353.7500 Du        
    215 ****        96.0000 262.2500 354.0000 Du        
    216 ****        96.0000 262.2500 354.2500 Du        
    217 ****        96.0000 262.2500 354.5000 Du        
    218 ****        96.0000 262.2500 354.7500 Du        
    219 ****        96.0000 262.5000 353.2500 Du        
    220 ****        96.0000 262.5000 353.5000 Du        
    221 ****        96.0000 262.5000 353.7500 Du        
    222 ****        96.0000 262.5000 354.0000 Du        
    223 ****        96.0000 262.5000 354.2500 Du        
    224 ****        96.0000 262.7500 353.0000 Du        
    225 ****        96.0000 262.7500 353.2500 Du        
    226 ****        96.0000 262.7500 353.5000 Du        
    227 ****        96.0000 262.7500 353.7500 Du        
    228 ****        96.0000 262.7500 354.0000 Du        
    229 ****        96.0000 262.7500 354.2500 Du        
    230 ****        96.0000 263.0000 352.7500 Du        
    231 ****        96.0000 263.0000 353.0000 Du        
    232 ****        96.0000 263.0000 353.2500 Du        
    233 ****        96.0000 263.0000 353.5000 Du        
    234 ****        96.0000 263.0000 353.7500 Du        
    235 ****        96.0000 263.0000 354.0000 Du        
    236 ****        96.0000 263.0000 354.2500 Du        
    237 ****        96.0000 263.2500 352.5000 Du        
    238 ****        96.0000 263.2500 352.7500 Du        
    239 ****        96.0000 263.2500 353.0000 Du        
    240 ****        96.0000 263.2500 353.2500 Du        
    241 ****        96.0000 263.2500 353.5000 Du        
    242 ****        96.0000 263.2500 353.7500 Du        
    243 ****        96.0000 263.2500 354.0000 Du        
    244 ****        96.0000 263.5000 352.2500 Du        
    245 ****        96.0000 263.5000 352.5000 Du        
    246 ****        96.0000 263.5000 352.7500 Du        
    247 ****        96.0000 263.5000 353.0000 Du        
    248 ****        96.0000 263.5000 353.2500 Du        
    249 ****        96.0000 263.5000 353.5000 Du        
    250 ****        96.0000 263.5000 353.7500 Du        
    251 ****        96.0000 263.5000 354.0000 Du        
    252 ****        96.0000 263.7500 352.2500 Du        
    253 ****        96.0000 263.7500 352.5000 Du        
    254 ****        96.0000 263.7500 352.7500 Du        
    255 ****        96.0000 263.7500 353.0000 Du        
    256 ****        96.0000 263.7500 353.2500 Du        
    257 ****        96.0000 263.7500 353.5000 Du        
    258 ****        96.0000 263.7500 353.7500 Du        
    259 ****        96.0000 263.7500 354.0000 Du        
    260 ****        96.0000 264.0000 352.2500 Du        
    261 ****        96.0000 264.0000 352.5000 Du        
    262 ****        96.0000 264.0000 352.7500 Du        
    263 ****        96.0000 264.0000 353.0000 Du        
    264 ****        96.0000 264.0000 353.2500 Du        
    265 ****        96.0000 264.0000 353.5000 Du        
    266 ****        96.0000 264.0000 353.7500 Du        
    267 ****        96.0000 264.2500 352.2500 Du        
    268 ****        96.0000 264.2500 352.5000 Du        
    269 ****        96.0000 264.2500 352.7500 Du        
    270 ****        96.0000 264.2500 353.0000 Du        
    271 ****        96.0000 264.2500 353.2500 Du        
    272 ****        96.0000 264.2500 353.5000 Du        
    273 ****        96.0000 264.2500 353.7500 Du        
    274 ****        96.0000 264.5000 352.7500 Du        
    275 ****        96.0000 264.5000 353.0000 Du        
    276 ****        96.0000 264.5000 353.2500 Du        
    277 ****        96.0000 264.5000 353.5000 Du        
    278 ****        96.0000 264.5000 353.7500 Du        
    279 ****        96.0000 264.7500 352.7500 Du        
    280 ****        96.0000 264.7500 353.0000 Du        
    281 ****        96.0000 264.7500 353.2500 Du        
    282 ****        96.0000 264.7500 353.5000 Du        
    283 ****        96.0000 265.0000 352.7500 Du        
    284 ****        96.0000 265.0000 353.0000 Du        
    285 ****        96.0000 265.0000 353.2500 Du        
    286 ****        96.0000 265.0000 353.5000 Du        
    287 ****        96.0000 265.2500 352.7500 Du        
    288 ****        96.0000 265.2500 353.0000 Du        
    289 ****        96.0000 265.2500 353.2500 Du        
    290 ****        96.0000 265.2500 353.5000 Du        
    291 ****        96.0000 265.5000 353.2500 Du        
    292 ****        96.0000 265.5000 360.5000 Du        
    293 ****        96.0000 265.5000 360.7500 Du        
    294 ****        96.0000 265.7500 353.2500 Du        
    295 ****        96.0000 265.7500 360.5000 Du        
    296 ****        96.0000 265.7500 360.7500 Du        
    297 ****        96.0000 265.7500 361.0000 Du        
    298 ****        96.0000 266.0000 360.5000 Du        
    299 ****        96.0000 266.0000 360.7500 Du        
    300 ****        96.0000 266.0000 361.0000 Du        
    301 ****        96.0000 266.0000 361.2500 Du        
    302 ****        96.0000 266.2500 360.5000 Du        
    303 ****        96.0000 266.2500 360.7500 Du        
    304 ****        96.0000 266.2500 361.0000 Du        
    305 ****        96.0000 266.2500 361.2500 Du        
    306 ****        96.0000 266.2500 361.5000 Du        
    307 ****        96.0000 266.5000 360.5000 Du        
    308 ****        96.0000 266.5000 360.7500 Du        
    309 ****        96.0000 266.5000 361.0000 Du        
    310 ****        96.0000 266.5000 361.2500 Du        
    311 ****        96.0000 266.5000 361.5000 Du        
    312 ****        96.0000 266.7500 360.5000 Du        
    313 ****        96.0000 266.7500 360.7500 Du        
    314 ****        96.0000 266.7500 361.0000 Du        
    315 ****        96.0000 266.7500 361.2500 Du        
    316 ****        96.0000 266.7500 361.5000 Du        
    317 ****        96.0000 266.7500 361.7500 Du        
    318 ****        96.0000 267.0000 360.5000 Du        
    319 ****        96.0000 267.0000 360.7500 Du        
    320 ****        96.0000 267.0000 361.0000 Du        
    321 ****        96.0000 267.0000 361.2500 Du        
    322 ****        96.0000 267.0000 361.5000 Du        
    323 ****        96.0000 267.2500 360.5000 Du        
    324 ****        96.0000 267.2500 360.7500 Du        
    325 ****        96.0000 267.2500 361.0000 Du        
    326 ****        96.0000 267.2500 361.2500 Du        
    327 ****        96.0000 267.2500 361.5000 Du        
    328 ****        96.0000 267.5000 360.5000 Du        
    329 ****        96.0000 267.5000 360.7500 Du        
    330 ****        96.0000 267.5000 361.0000 Du        
    331 ****        96.0000 267.5000 361.2500 Du        
    332 ****        96.0000 267.7500 360.7500 Du        
    333 ****        96.0000 267.7500 361.0000 Du        
    334 ****        96.0000 268.0000 360.7500 Du        
    335 ****        96.2500 260.7500 361.5000 Du        
    336 ****        96.2500 260.7500 361.7500 Du        
    337 ****        96.2500 261.0000 361.5000 Du        
    338 ****        96.2500 261.2500 353.7500 Du        
    339 ****        96.2500 261.2500 354.0000 Du        
    340 ****        96.2500 261.2500 354.2500 Du        
    341 ****        96.2500 261.2500 354.5000 Du        
    342 ****        96.2500 261.2500 354.7500 Du        
    343 ****        96.2500 261.2500 355.0000 Du        
    344 ****        96.2500 261.2500 355.2500 Du        
    345 ****        96.2500 261.5000 353.7500 Du        
    346 ****        96.2500 261.5000 354.0000 Du        
    347 ****        96.2500 261.5000 354.2500 Du        
    348 ****        96.2500 261.5000 354.5000 Du        
    349 ****        96.2500 261.5000 354.7500 Du        
    350 ****        96.2500 261.5000 355.0000 Du        
    351 ****        96.2500 261.5000 355.2500 Du        
    352 ****        96.2500 261.7500 353.7500 Du        
    353 ****        96.2500 261.7500 354.0000 Du        
    354 ****        96.2500 261.7500 354.2500 Du        
    355 ****        96.2500 261.7500 354.5000 Du        
    356 ****        96.2500 261.7500 354.7500 Du        
    357 ****        96.2500 261.7500 355.0000 Du        
    358 ****        96.2500 261.7500 355.2500 Du        
    359 ****        96.2500 262.0000 353.7500 Du        
    360 ****        96.2500 262.0000 354.0000 Du        
    361 ****        96.2500 262.0000 354.2500 Du        
    362 ****        96.2500 262.0000 354.5000 Du        
    363 ****        96.2500 262.0000 354.7500 Du        
    364 ****        96.2500 262.0000 355.0000 Du        
    365 ****        96.2500 262.0000 355.2500 Du        
    366 ****        96.2500 262.2500 353.5000 Du        
    367 ****        96.2500 262.2500 353.7500 Du        
    368 ****        96.2500 262.2500 354.0000 Du        
    369 ****        96.2500 262.2500 354.2500 Du        
    370 ****        96.2500 262.2500 354.5000 Du        
    371 ****        96.2500 262.2500 354.7500 Du        
    372 ****        96.2500 262.2500 355.0000 Du        
    373 ****        96.2500 262.5000 353.2500 Du        
    374 ****        96.2500 262.5000 353.5000 Du        
    375 ****        96.2500 262.5000 353.7500 Du        
    376 ****        96.2500 262.5000 354.0000 Du        
    377 ****        96.2500 262.5000 354.2500 Du        
    378 ****        96.2500 262.7500 353.0000 Du        
    379 ****        96.2500 262.7500 353.2500 Du        
    380 ****        96.2500 262.7500 353.5000 Du        
    381 ****        96.2500 262.7500 353.7500 Du        
    382 ****        96.2500 262.7500 354.0000 Du        
    383 ****        96.2500 262.7500 354.2500 Du        
    384 ****        96.2500 263.0000 352.7500 Du        
    385 ****        96.2500 263.0000 353.0000 Du        
    386 ****        96.2500 263.0000 353.2500 Du        
    387 ****        96.2500 263.0000 353.5000 Du        
    388 ****        96.2500 263.0000 353.7500 Du        
    389 ****        96.2500 263.0000 354.0000 Du        
    390 ****        96.2500 263.0000 354.2500 Du        
    391 ****        96.2500 263.2500 352.5000 Du        
    392 ****        96.2500 263.2500 352.7500 Du        
    393 ****        96.2500 263.2500 353.0000 Du        
    394 ****        96.2500 263.2500 353.2500 Du        
    395 ****        96.2500 263.2500 353.5000 Du        
    396 ****        96.2500 263.2500 353.7500 Du        
    397 ****        96.2500 263.2500 354.0000 Du        
    398 ****        96.2500 263.5000 352.2500 Du        
    399 ****        96.2500 263.5000 352.5000 Du        
    400 ****        96.2500 263.5000 352.7500 Du        
    401 ****        96.2500 263.5000 353.0000 Du        
    402 ****        96.2500 263.5000 353.2500 Du        
    403 ****        96.2500 263.5000 353.5000 Du        
    404 ****        96.2500 263.5000 353.7500 Du        
    405 ****        96.2500 263.5000 354.0000 Du        
    406 ****        96.2500 263.7500 352.2500 Du        
    407 ****        96.2500 263.7500 352.5000 Du        
    408 ****        96.2500 263.7500 352.7500 Du        
    409 ****        96.2500 263.7500 353.0000 Du        
    410 ****        96.2500 263.7500 353.2500 Du        
    411 ****        96.2500 263.7500 353.5000 Du        
    412 ****        96.2500 263.7500 353.7500 Du        
    413 ****        96.2500 263.7500 354.0000 Du        
    414 ****        96.2500 264.0000 352.2500 Du        
    415 ****        96.2500 264.0000 352.5000 Du        
    416 ****        96.2500 264.0000 352.7500 Du        
    417 ****        96.2500 264.0000 353.0000 Du        
    418 ****        96.2500 264.0000 353.2500 Du        
    419 ****        96.2500 264.0000 353.5000 Du        
    420 ****        96.2500 264.0000 353.7500 Du        
    421 ****        96.2500 264.2500 352.2500 Du        
    422 ****        96.2500 264.2500 352.5000 Du        
    423 ****        96.2500 264.2500 352.7500 Du        
    424 ****        96.2500 264.2500 353.0000 Du        
    425 ****        96.2500 264.2500 353.2500 Du        
    426 ****        96.2500 264.2500 353.5000 Du        
    427 ****        96.2500 264.2500 353.7500 Du        
    428 ****        96.2500 264.5000 352.7500 Du        
    429 ****        96.2500 264.5000 353.0000 Du        
    430 ****        96.2500 264.5000 353.2500 Du        
    431 ****        96.2500 264.5000 353.5000 Du        
    432 ****        96.2500 264.5000 353.7500 Du        
    433 ****        96.2500 264.7500 352.7500 Du        
    434 ****        96.2500 264.7500 353.0000 Du        
    435 ****        96.2500 264.7500 353.2500 Du        
    436 ****        96.2500 264.7500 353.5000 Du        
    437 ****        96.2500 265.0000 352.7500 Du        
    438 ****        96.2500 265.0000 353.0000 Du        
    439 ****        96.2500 265.0000 353.2500 Du        
    440 ****        96.2500 265.0000 353.5000 Du        
    441 ****        96.2500 265.2500 352.7500 Du        
    442 ****        96.2500 265.2500 353.0000 Du        
    443 ****        96.2500 265.2500 353.2500 Du        
    444 ****        96.2500 265.2500 353.5000 Du        
    445 ****        96.2500 265.5000 353.2500 Du        
    446 ****        96.2500 265.5000 360.5000 Du        
    447 ****        96.2500 265.5000 360.7500 Du        
    448 ****        96.2500 265.5000 361.0000 Du        
    449 ****        96.2500 265.7500 353.2500 Du        
    450 ****        96.2500 265.7500 360.5000 Du        
    451 ****        96.2500 265.7500 360.7500 Du        
    452 ****        96.2500 265.7500 361.0000 Du        
    453 ****        96.2500 266.0000 360.5000 Du        
    454 ****        96.2500 266.0000 360.7500 Du        
    455 ****        96.2500 266.0000 361.0000 Du        
    456 ****        96.2500 266.0000 361.2500 Du        
    457 ****        96.2500 266.2500 360.5000 Du        
    458 ****        96.2500 266.2500 360.7500 Du        
    459 ****        96.2500 266.2500 361.0000 Du        
    460 ****        96.2500 266.2500 361.2500 Du        
    461 ****        96.2500 266.2500 361.5000 Du        
    462 ****        96.2500 266.5000 360.5000 Du        
    463 ****        96.2500 266.5000 360.7500 Du        
    464 ****        96.2500 266.5000 361.0000 Du        
    465 ****        96.2500 266.5000 361.2500 Du        
    466 ****        96.2500 266.5000 361.5000 Du        
    467 ****        96.2500 266.5000 361.7500 Du        
    468 ****        96.2500 266.7500 360.5000 Du        
    469 ****        96.2500 266.7500 360.7500 Du        
    470 ****        96.2500 266.7500 361.0000 Du        
    471 ****        96.2500 266.7500 361.2500 Du        
    472 ****        96.2500 266.7500 361.5000 Du        
    473 ****        96.2500 266.7500 361.7500 Du        
    474 ****        96.2500 267.0000 360.5000 Du        
    475 ****        96.2500 267.0000 360.7500 Du        
    476 ****        96.2500 267.0000 361.0000 Du        
    477 ****        96.2500 267.0000 361.2500 Du        
    478 ****        96.2500 267.0000 361.5000 Du        
    479 ****        96.2500 267.0000 361.7500 Du        
    480 ****        96.2500 267.2500 360.5000 Du        
    481 ****        96.2500 267.2500 360.7500 Du        
    482 ****        96.2500 267.2500 361.0000 Du        
    483 ****        96.2500 267.2500 361.2500 Du        
    484 ****        96.2500 267.2500 361.5000 Du        
    485 ****        96.2500 267.5000 360.7500 Du        
    486 ****        96.2500 267.5000 361.0000 Du        
    487 ****        96.2500 267.5000 361.2500 Du        
    488 ****        96.2500 267.7500 360.7500 Du        
    489 ****        96.2500 267.7500 361.0000 Du        
    490 ****        96.2500 267.7500 361.2500 Du        
    491 ****        96.2500 268.0000 360.7500 Du        
    492 ****        96.2500 268.0000 361.0000 Du        
    493 ****        96.5000 260.0000 361.5000 Du        
    494 ****        96.5000 260.0000 361.7500 Du        
    495 ****        96.5000 260.2500 361.5000 Du        
    496 ****        96.5000 260.2500 361.7500 Du        
    497 ****        96.5000 260.5000 361.5000 Du        
    498 ****        96.5000 260.5000 361.7500 Du        
    499 ****        96.5000 260.7500 361.5000 Du        
    500 ****        96.5000 260.7500 361.7500 Du        
    501 ****        96.5000 260.7500 362.0000 Du        
    502 ****        96.5000 261.0000 361.5000 Du        
    503 ****        96.5000 261.0000 361.7500 Du        
    504 ****        96.5000 261.0000 362.0000 Du        
    505 ****        96.5000 261.2500 354.0000 Du        
    506 ****        96.5000 261.2500 354.2500 Du        
    507 ****        96.5000 261.2500 354.5000 Du        
    508 ****        96.5000 261.2500 354.7500 Du        
    509 ****        96.5000 261.2500 355.0000 Du        
    510 ****        96.5000 261.2500 355.2500 Du        
    511 ****        96.5000 261.2500 355.5000 Du        
    512 ****        96.5000 261.2500 355.7500 Du        
    513 ****        96.5000 261.2500 356.0000 Du        
    514 ****        96.5000 261.2500 361.5000 Du        
    515 ****        96.5000 261.2500 361.7500 Du        
    516 ****        96.5000 261.5000 353.7500 Du        
    517 ****        96.5000 261.5000 354.0000 Du        
    518 ****        96.5000 261.5000 354.2500 Du        
    519 ****        96.5000 261.5000 354.5000 Du        
    520 ****        96.5000 261.5000 354.7500 Du        
    521 ****        96.5000 261.5000 355.0000 Du        
    522 ****        96.5000 261.5000 355.2500 Du        
    523 ****        96.5000 261.5000 355.5000 Du        
    524 ****        96.5000 261.7500 353.7500 Du        
    525 ****        96.5000 261.7500 354.0000 Du        
    526 ****        96.5000 261.7500 354.2500 Du        
    527 ****        96.5000 261.7500 354.5000 Du        
    528 ****        96.5000 261.7500 354.7500 Du        
    529 ****        96.5000 261.7500 355.0000 Du        
    530 ****        96.5000 261.7500 355.2500 Du        
    531 ****        96.5000 261.7500 355.5000 Du        
    532 ****        96.5000 262.0000 353.5000 Du        
    533 ****        96.5000 262.0000 353.7500 Du        
    534 ****        96.5000 262.0000 354.0000 Du        
    535 ****        96.5000 262.0000 354.2500 Du        
    536 ****        96.5000 262.0000 354.5000 Du        
    537 ****        96.5000 262.0000 354.7500 Du        
    538 ****        96.5000 262.0000 355.0000 Du        
    539 ****        96.5000 262.0000 355.2500 Du        
    540 ****        96.5000 262.2500 353.5000 Du        
    541 ****        96.5000 262.2500 353.7500 Du        
    542 ****        96.5000 262.2500 354.0000 Du        
    543 ****        96.5000 262.2500 354.2500 Du        
    544 ****        96.5000 262.2500 354.5000 Du        
    545 ****        96.5000 262.2500 354.7500 Du        
    546 ****        96.5000 262.2500 355.0000 Du        
    547 ****        96.5000 262.5000 353.2500 Du        
    548 ****        96.5000 262.5000 353.5000 Du        
    549 ****        96.5000 262.5000 353.7500 Du        
    550 ****        96.5000 262.5000 354.0000 Du        
    551 ****        96.5000 262.5000 354.2500 Du        
    552 ****        96.5000 262.5000 354.5000 Du        
    553 ****        96.5000 262.7500 353.0000 Du        
    554 ****        96.5000 262.7500 353.2500 Du        
    555 ****        96.5000 262.7500 353.5000 Du        
    556 ****        96.5000 262.7500 353.7500 Du        
    557 ****        96.5000 262.7500 354.0000 Du        
    558 ****        96.5000 262.7500 354.2500 Du        
    559 ****        96.5000 263.0000 352.7500 Du        
    560 ****        96.5000 263.0000 353.0000 Du        
    561 ****        96.5000 263.0000 353.2500 Du        
    562 ****        96.5000 263.0000 353.5000 Du        
    563 ****        96.5000 263.0000 353.7500 Du        
    564 ****        96.5000 263.0000 354.0000 Du        
    565 ****        96.5000 263.0000 354.2500 Du        
    566 ****        96.5000 263.2500 352.5000 Du        
    567 ****        96.5000 263.2500 352.7500 Du        
    568 ****        96.5000 263.2500 353.0000 Du        
    569 ****        96.5000 263.2500 353.2500 Du        
    570 ****        96.5000 263.2500 353.5000 Du        
    571 ****        96.5000 263.2500 353.7500 Du        
    572 ****        96.5000 263.2500 354.0000 Du        
    573 ****        96.5000 263.2500 354.2500 Du        
    574 ****        96.5000 263.5000 352.2500 Du        
    575 ****        96.5000 263.5000 352.5000 Du        
    576 ****        96.5000 263.5000 352.7500 Du        
    577 ****        96.5000 263.5000 353.0000 Du        
    578 ****        96.5000 263.5000 353.2500 Du        
    579 ****        96.5000 263.5000 353.5000 Du        
    580 ****        96.5000 263.5000 353.7500 Du        
    581 ****        96.5000 263.5000 354.0000 Du        
    582 ****        96.5000 263.7500 352.0000 Du        
    583 ****        96.5000 263.7500 352.2500 Du        
    584 ****        96.5000 263.7500 352.5000 Du        
    585 ****        96.5000 263.7500 352.7500 Du        
    586 ****        96.5000 263.7500 353.0000 Du        
    587 ****        96.5000 263.7500 353.2500 Du        
    588 ****        96.5000 263.7500 353.5000 Du        
    589 ****        96.5000 263.7500 353.7500 Du        
    590 ****        96.5000 263.7500 354.0000 Du        
    591 ****        96.5000 264.0000 352.0000 Du        
    592 ****        96.5000 264.0000 352.2500 Du        
    593 ****        96.5000 264.0000 352.5000 Du        
    594 ****        96.5000 264.0000 352.7500 Du        
    595 ****        96.5000 264.0000 353.0000 Du        
    596 ****        96.5000 264.0000 353.2500 Du        
    597 ****        96.5000 264.0000 353.5000 Du        
    598 ****        96.5000 264.0000 353.7500 Du        
    599 ****        96.5000 264.2500 352.0000 Du        
    600 ****        96.5000 264.2500 352.2500 Du        
    601 ****        96.5000 264.2500 352.5000 Du        
    602 ****        96.5000 264.2500 352.7500 Du        
    603 ****        96.5000 264.2500 353.0000 Du        
    604 ****        96.5000 264.2500 353.2500 Du        
    605 ****        96.5000 264.2500 353.5000 Du        
    606 ****        96.5000 264.2500 353.7500 Du        
    607 ****        96.5000 264.5000 352.2500 Du        
    608 ****        96.5000 264.5000 352.5000 Du        
    609 ****        96.5000 264.5000 352.7500 Du        
    610 ****        96.5000 264.5000 353.0000 Du        
    611 ****        96.5000 264.5000 353.2500 Du        
    612 ****        96.5000 264.5000 353.5000 Du        
    613 ****        96.5000 264.5000 353.7500 Du        
    614 ****        96.5000 264.7500 352.2500 Du        
    615 ****        96.5000 264.7500 352.5000 Du        
    616 ****        96.5000 264.7500 352.7500 Du        
    617 ****        96.5000 264.7500 353.0000 Du        
    618 ****        96.5000 264.7500 353.2500 Du        
    619 ****        96.5000 264.7500 353.5000 Du        
    620 ****        96.5000 264.7500 360.5000 Du        
    621 ****        96.5000 265.0000 352.2500 Du        
    622 ****        96.5000 265.0000 352.5000 Du        
    623 ****        96.5000 265.0000 352.7500 Du        
    624 ****        96.5000 265.0000 353.0000 Du        
    625 ****        96.5000 265.0000 353.2500 Du        
    626 ****        96.5000 265.0000 353.5000 Du        
    627 ****        96.5000 265.0000 360.5000 Du        
    628 ****        96.5000 265.0000 360.7500 Du        
    629 ****        96.5000 265.2500 352.2500 Du        
    630 ****        96.5000 265.2500 352.5000 Du        
    631 ****        96.5000 265.2500 352.7500 Du        
    632 ****        96.5000 265.2500 353.0000 Du        
    633 ****        96.5000 265.2500 353.2500 Du        
    634 ****        96.5000 265.2500 353.5000 Du        
    635 ****        96.5000 265.2500 360.5000 Du        
    636 ****        96.5000 265.2500 360.7500 Du        
    637 ****        96.5000 265.5000 352.7500 Du        
    638 ****        96.5000 265.5000 353.0000 Du        
    639 ****        96.5000 265.5000 353.2500 Du        
    640 ****        96.5000 265.5000 360.5000 Du        
    641 ****        96.5000 265.5000 360.7500 Du        
    642 ****        96.5000 265.5000 361.0000 Du        
    643 ****        96.5000 265.7500 352.7500 Du        
    644 ****        96.5000 265.7500 353.0000 Du        
    645 ****        96.5000 265.7500 353.2500 Du        
    646 ****        96.5000 265.7500 360.5000 Du        
    647 ****        96.5000 265.7500 360.7500 Du        
    648 ****        96.5000 265.7500 361.0000 Du        
    649 ****        96.5000 265.7500 361.2500 Du        
    650 ****        96.5000 266.0000 360.5000 Du        
    651 ****        96.5000 266.0000 360.7500 Du        
    652 ****        96.5000 266.0000 361.0000 Du        
    653 ****        96.5000 266.0000 361.2500 Du        
    654 ****        96.5000 266.0000 361.5000 Du        
    655 ****        96.5000 266.2500 360.5000 Du        
    656 ****        96.5000 266.2500 360.7500 Du        
    657 ****        96.5000 266.2500 361.0000 Du        
    658 ****        96.5000 266.2500 361.2500 Du        
    659 ****        96.5000 266.2500 361.5000 Du        
    660 ****        96.5000 266.5000 360.5000 Du        
    661 ****        96.5000 266.5000 360.7500 Du        
    662 ****        96.5000 266.5000 361.0000 Du        
    663 ****        96.5000 266.5000 361.2500 Du        
    664 ****        96.5000 266.5000 361.5000 Du        
    665 ****        96.5000 266.5000 361.7500 Du        
    666 ****        96.5000 266.7500 360.5000 Du        
    667 ****        96.5000 266.7500 360.7500 Du        
    668 ****        96.5000 266.7500 361.0000 Du        
    669 ****        96.5000 266.7500 361.2500 Du        
    670 ****        96.5000 266.7500 361.5000 Du        
    671 ****        96.5000 266.7500 361.7500 Du        
    672 ****        96.5000 267.0000 360.5000 Du        
    673 ****        96.5000 267.0000 360.7500 Du        
    674 ****        96.5000 267.0000 361.0000 Du        
    675 ****        96.5000 267.0000 361.2500 Du        
    676 ****        96.5000 267.0000 361.5000 Du        
    677 ****        96.5000 267.0000 361.7500 Du        
    678 ****        96.5000 267.2500 360.5000 Du        
    679 ****        96.5000 267.2500 360.7500 Du        
    680 ****        96.5000 267.2500 361.0000 Du        
    681 ****        96.5000 267.2500 361.2500 Du        
    682 ****        96.5000 267.2500 361.5000 Du        
    683 ****        96.5000 267.2500 361.7500 Du        
    684 ****        96.5000 267.5000 360.5000 Du        
    685 ****        96.5000 267.5000 360.7500 Du        
    686 ****        96.5000 267.5000 361.0000 Du        
    687 ****        96.5000 267.5000 361.2500 Du        
    688 ****        96.5000 267.5000 361.5000 Du        
    689 ****        96.5000 267.7500 360.5000 Du        
    690 ****        96.5000 267.7500 360.7500 Du        
    691 ****        96.5000 267.7500 361.0000 Du        
    692 ****        96.5000 267.7500 361.2500 Du        
    693 ****        96.5000 268.0000 360.5000 Du        
    694 ****        96.5000 268.0000 360.7500 Du        
    695 ****        96.5000 268.0000 361.0000 Du        
    696 ****        96.5000 268.2500 360.7500 Du        
    697 ****        96.7500 258.2500 361.0000 Du        
    698 ****        96.7500 258.2500 361.5000 Du        
    699 ****        96.7500 258.2500 361.7500 Du        
    700 ****        96.7500 258.5000 361.0000 Du        
    701 ****        96.7500 258.5000 361.2500 Du        
    702 ****        96.7500 258.5000 361.5000 Du        
    703 ****        96.7500 258.5000 361.7500 Du        
    704 ****        96.7500 258.7500 361.0000 Du        
    705 ****        96.7500 258.7500 361.2500 Du        
    706 ****        96.7500 258.7500 361.5000 Du        
    707 ****        96.7500 258.7500 361.7500 Du        
    708 ****        96.7500 259.0000 361.2500 Du        
    709 ****        96.7500 259.0000 361.5000 Du        
    710 ****        96.7500 259.0000 361.7500 Du        
    711 ****        96.7500 259.2500 361.5000 Du        
    712 ****        96.7500 259.2500 361.7500 Du        
    713 ****        96.7500 259.7500 361.2500 Du        
    714 ****        96.7500 259.7500 361.5000 Du        
    715 ****        96.7500 259.7500 361.7500 Du        
    716 ****        96.7500 260.0000 361.2500 Du        
    717 ****        96.7500 260.0000 361.5000 Du        
    718 ****        96.7500 260.0000 361.7500 Du        
    719 ****        96.7500 260.2500 357.0000 Du        
    720 ****        96.7500 260.2500 361.2500 Du        
    721 ****        96.7500 260.2500 361.5000 Du        
    722 ****        96.7500 260.2500 361.7500 Du        
    723 ****        96.7500 260.2500 362.0000 Du        
    724 ****        96.7500 260.5000 361.2500 Du        
    725 ****        96.7500 260.5000 361.5000 Du        
    726 ****        96.7500 260.5000 361.7500 Du        
    727 ****        96.7500 260.5000 362.0000 Du        
    728 ****        96.7500 260.7500 361.2500 Du        
    729 ****        96.7500 260.7500 361.5000 Du        
    730 ****        96.7500 260.7500 361.7500 Du        
    731 ****        96.7500 260.7500 362.0000 Du        
    732 ****        96.7500 261.0000 361.2500 Du        
    733 ****        96.7500 261.0000 361.5000 Du        
    734 ****        96.7500 261.0000 361.7500 Du        
    735 ****        96.7500 261.0000 362.0000 Du        
    736 ****        96.7500 261.2500 354.0000 Du        
    737 ****        96.7500 261.2500 354.2500 Du        
    738 ****        96.7500 261.2500 354.5000 Du        
    739 ****        96.7500 261.2500 354.7500 Du        
    740 ****        96.7500 261.2500 355.0000 Du        
    741 ****        96.7500 261.2500 355.2500 Du        
    742 ****        96.7500 261.2500 355.5000 Du        
    743 ****        96.7500 261.2500 355.7500 Du        
    744 ****        96.7500 261.2500 356.0000 Du        
    745 ****        96.7500 261.2500 361.2500 Du        
    746 ****        96.7500 261.2500 361.5000 Du        
    747 ****        96.7500 261.2500 361.7500 Du        
    748 ****        96.7500 261.2500 362.0000 Du        
    749 ****        96.7500 261.5000 353.7500 Du        
    750 ****        96.7500 261.5000 354.0000 Du        
    751 ****        96.7500 261.5000 354.2500 Du        
    752 ****        96.7500 261.5000 354.5000 Du        
    753 ****        96.7500 261.5000 354.7500 Du        
    754 ****        96.7500 261.5000 355.0000 Du        
    755 ****        96.7500 261.5000 355.2500 Du        
    756 ****        96.7500 261.5000 355.5000 Du        
    757 ****        96.7500 261.5000 355.7500 Du        
    758 ****        96.7500 261.5000 361.2500 Du        
    759 ****        96.7500 261.5000 361.5000 Du        
    760 ****        96.7500 261.5000 361.7500 Du        
    761 ****        96.7500 261.7500 353.7500 Du        
    762 ****        96.7500 261.7500 354.0000 Du        
    763 ****        96.7500 261.7500 354.2500 Du        
    764 ****        96.7500 261.7500 354.5000 Du        
    765 ****        96.7500 261.7500 354.7500 Du        
    766 ****        96.7500 261.7500 355.0000 Du        
    767 ****        96.7500 261.7500 355.2500 Du        
    768 ****        96.7500 261.7500 355.5000 Du        
    769 ****        96.7500 261.7500 355.7500 Du        
    770 ****        96.7500 262.0000 353.7500 Du        
    771 ****        96.7500 262.0000 354.0000 Du        
    772 ****        96.7500 262.0000 354.2500 Du        
    773 ****        96.7500 262.0000 354.5000 Du        
    774 ****        96.7500 262.0000 354.7500 Du        
    775 ****        96.7500 262.0000 355.0000 Du        
    776 ****        96.7500 262.0000 355.2500 Du        
    777 ****        96.7500 262.2500 353.5000 Du        
    778 ****        96.7500 262.2500 353.7500 Du        
    779 ****        96.7500 262.2500 354.0000 Du        
    780 ****        96.7500 262.2500 354.2500 Du        
    781 ****        96.7500 262.2500 354.5000 Du        
    782 ****        96.7500 262.2500 354.7500 Du        
    783 ****        96.7500 262.2500 355.0000 Du        
    784 ****        96.7500 262.5000 353.2500 Du        
    785 ****        96.7500 262.5000 353.5000 Du        
    786 ****        96.7500 262.5000 353.7500 Du        
    787 ****        96.7500 262.5000 354.0000 Du        
    788 ****        96.7500 262.5000 354.2500 Du        
    789 ****        96.7500 262.5000 354.5000 Du        
    790 ****        96.7500 262.7500 353.0000 Du        
    791 ****        96.7500 262.7500 353.2500 Du        
    792 ****        96.7500 262.7500 353.5000 Du        
    793 ****        96.7500 262.7500 353.7500 Du        
    794 ****        96.7500 262.7500 354.0000 Du        
    795 ****        96.7500 262.7500 354.2500 Du        
    796 ****        96.7500 262.7500 354.5000 Du        
    797 ****        96.7500 263.0000 352.7500 Du        
    798 ****        96.7500 263.0000 353.0000 Du        
    799 ****        96.7500 263.0000 353.2500 Du        
    800 ****        96.7500 263.0000 353.5000 Du        
    801 ****        96.7500 263.0000 353.7500 Du        
    802 ****        96.7500 263.0000 354.0000 Du        
    803 ****        96.7500 263.0000 354.2500 Du        
    804 ****        96.7500 263.2500 352.5000 Du        
    805 ****        96.7500 263.2500 352.7500 Du        
    806 ****        96.7500 263.2500 353.0000 Du        
    807 ****        96.7500 263.2500 353.2500 Du        
    808 ****        96.7500 263.2500 353.5000 Du        
    809 ****        96.7500 263.2500 353.7500 Du        
    810 ****        96.7500 263.2500 354.0000 Du        
    811 ****        96.7500 263.2500 354.2500 Du        
    812 ****        96.7500 263.5000 352.5000 Du        
    813 ****        96.7500 263.5000 352.7500 Du        
    814 ****        96.7500 263.5000 353.0000 Du        
    815 ****        96.7500 263.5000 353.2500 Du        
    816 ****        96.7500 263.5000 353.5000 Du        
    817 ****        96.7500 263.5000 353.7500 Du        
    818 ****        96.7500 263.5000 354.0000 Du        
    819 ****        96.7500 263.7500 352.2500 Du        
    820 ****        96.7500 263.7500 352.5000 Du        
    821 ****        96.7500 263.7500 352.7500 Du        
    822 ****        96.7500 263.7500 353.0000 Du        
    823 ****        96.7500 263.7500 353.2500 Du        
    824 ****        96.7500 263.7500 353.5000 Du        
    825 ****        96.7500 263.7500 353.7500 Du        
    826 ****        96.7500 263.7500 354.0000 Du        
    827 ****        96.7500 264.0000 352.0000 Du        
    828 ****        96.7500 264.0000 352.2500 Du        
    829 ****        96.7500 264.0000 352.5000 Du        
    830 ****        96.7500 264.0000 352.7500 Du        
    831 ****        96.7500 264.0000 353.0000 Du        
    832 ****        96.7500 264.0000 353.2500 Du        
    833 ****        96.7500 264.0000 353.5000 Du        
    834 ****        96.7500 264.0000 353.7500 Du        
    835 ****        96.7500 264.2500 352.0000 Du        
    836 ****        96.7500 264.2500 352.2500 Du        
    837 ****        96.7500 264.2500 352.5000 Du        
    838 ****        96.7500 264.2500 352.7500 Du        
    839 ****        96.7500 264.2500 353.0000 Du        
    840 ****        96.7500 264.2500 353.2500 Du        
    841 ****        96.7500 264.2500 353.5000 Du        
    842 ****        96.7500 264.2500 353.7500 Du        
    843 ****        96.7500 264.5000 352.2500 Du        
    844 ****        96.7500 264.5000 352.5000 Du        
    845 ****        96.7500 264.5000 352.7500 Du        
    846 ****        96.7500 264.5000 353.0000 Du        
    847 ****        96.7500 264.5000 353.2500 Du        
    848 ****        96.7500 264.5000 353.5000 Du        
    849 ****        96.7500 264.5000 360.5000 Du        
    850 ****        96.7500 264.7500 352.2500 Du        
    851 ****        96.7500 264.7500 352.5000 Du        
    852 ****        96.7500 264.7500 352.7500 Du        
    853 ****        96.7500 264.7500 353.0000 Du        
    854 ****        96.7500 264.7500 353.2500 Du        
    855 ****        96.7500 264.7500 353.5000 Du        
    856 ****        96.7500 264.7500 360.5000 Du        
    857 ****        96.7500 264.7500 360.7500 Du        
    858 ****        96.7500 265.0000 352.2500 Du        
    859 ****        96.7500 265.0000 352.5000 Du        
    860 ****        96.7500 265.0000 352.7500 Du        
    861 ****        96.7500 265.0000 353.0000 Du        
    862 ****        96.7500 265.0000 353.2500 Du        
    863 ****        96.7500 265.0000 353.5000 Du        
    864 ****        96.7500 265.0000 360.5000 Du        
    865 ****        96.7500 265.0000 360.7500 Du        
    866 ****        96.7500 265.2500 352.2500 Du        
    867 ****        96.7500 265.2500 352.5000 Du        
    868 ****        96.7500 265.2500 352.7500 Du        
    869 ****        96.7500 265.2500 353.0000 Du        
    870 ****        96.7500 265.2500 353.2500 Du        
    871 ****        96.7500 265.2500 360.5000 Du        
    872 ****        96.7500 265.2500 360.7500 Du        
    873 ****        96.7500 265.2500 361.0000 Du        
    874 ****        96.7500 265.5000 352.7500 Du        
    875 ****        96.7500 265.5000 353.0000 Du        
    876 ****        96.7500 265.5000 353.2500 Du        
    877 ****        96.7500 265.5000 360.5000 Du        
    878 ****        96.7500 265.5000 360.7500 Du        
    879 ****        96.7500 265.5000 361.0000 Du        
    880 ****        96.7500 265.7500 352.7500 Du        
    881 ****        96.7500 265.7500 353.0000 Du        
    882 ****        96.7500 265.7500 353.2500 Du        
    883 ****        96.7500 265.7500 360.5000 Du        
    884 ****        96.7500 265.7500 360.7500 Du        
    885 ****        96.7500 265.7500 361.0000 Du        
    886 ****        96.7500 265.7500 361.2500 Du        
    887 ****        96.7500 266.0000 360.5000 Du        
    888 ****        96.7500 266.0000 360.7500 Du        
    889 ****        96.7500 266.0000 361.0000 Du        
    890 ****        96.7500 266.0000 361.2500 Du        
    891 ****        96.7500 266.0000 361.5000 Du        
    892 ****        96.7500 266.2500 360.5000 Du        
    893 ****        96.7500 266.2500 360.7500 Du        
    894 ****        96.7500 266.2500 361.0000 Du        
    895 ****        96.7500 266.2500 361.2500 Du        
    896 ****        96.7500 266.2500 361.5000 Du        
    897 ****        96.7500 266.5000 360.5000 Du        
    898 ****        96.7500 266.5000 360.7500 Du        
    899 ****        96.7500 266.5000 361.0000 Du        
    900 ****        96.7500 266.5000 361.2500 Du        
    901 ****        96.7500 266.5000 361.5000 Du        
    902 ****        96.7500 266.5000 361.7500 Du        
    903 ****        96.7500 266.7500 360.5000 Du        
    904 ****        96.7500 266.7500 360.7500 Du        
    905 ****        96.7500 266.7500 361.0000 Du        
    906 ****        96.7500 266.7500 361.2500 Du        
    907 ****        96.7500 266.7500 361.5000 Du        
    908 ****        96.7500 266.7500 361.7500 Du        
    909 ****        96.7500 267.0000 360.5000 Du        
    910 ****        96.7500 267.0000 360.7500 Du        
    911 ****        96.7500 267.0000 361.0000 Du        
    912 ****        96.7500 267.0000 361.2500 Du        
    913 ****        96.7500 267.0000 361.5000 Du        
    914 ****        96.7500 267.0000 361.7500 Du        
    915 ****        96.7500 267.2500 360.5000 Du        
    916 ****        96.7500 267.2500 360.7500 Du        
    917 ****        96.7500 267.2500 361.0000 Du        
    918 ****        96.7500 267.2500 361.2500 Du        
    919 ****        96.7500 267.2500 361.5000 Du        
    920 ****        96.7500 267.2500 361.7500 Du        
    921 ****        96.7500 267.5000 360.5000 Du        
    922 ****        96.7500 267.5000 360.7500 Du        
    923 ****        96.7500 267.5000 361.0000 Du        
    924 ****        96.7500 267.5000 361.2500 Du        
    925 ****        96.7500 267.5000 361.5000 Du        
    926 ****        96.7500 267.7500 360.5000 Du        
    927 ****        96.7500 267.7500 360.7500 Du        
    928 ****        96.7500 267.7500 361.0000 Du        
    929 ****        96.7500 267.7500 361.2500 Du        
    930 ****        96.7500 268.0000 360.5000 Du        
    931 ****        96.7500 268.0000 360.7500 Du        
    932 ****        96.7500 268.0000 361.0000 Du        
    933 ****        96.7500 268.2500 360.5000 Du        
    934 ****        96.7500 268.2500 360.7500 Du        
    935 ****        96.7500 268.2500 361.0000 Du        
    936 ****        97.0000 258.0000 361.0000 Du        
    937 ****        97.0000 258.0000 361.7500 Du        
    938 ****        97.0000 258.0000 362.0000 Du        
    939 ****        97.0000 258.2500 360.7500 Du        
    940 ****        97.0000 258.2500 361.0000 Du        
    941 ****        97.0000 258.2500 361.2500 Du        
    942 ****        97.0000 258.2500 361.5000 Du        
    943 ****        97.0000 258.2500 361.7500 Du        
    944 ****        97.0000 258.2500 362.0000 Du        
    945 ****        97.0000 258.5000 360.7500 Du        
    946 ****        97.0000 258.5000 361.0000 Du        
    947 ****        97.0000 258.5000 361.2500 Du        
    948 ****        97.0000 258.5000 361.5000 Du        
    949 ****        97.0000 258.5000 361.7500 Du        
    950 ****        97.0000 258.7500 360.7500 Du        
    951 ****        97.0000 258.7500 361.0000 Du        
    952 ****        97.0000 258.7500 361.2500 Du        
    953 ****        97.0000 258.7500 361.5000 Du        
    954 ****        97.0000 258.7500 361.7500 Du        
    955 ****        97.0000 258.7500 362.0000 Du        
    956 ****        97.0000 259.0000 360.7500 Du        
    957 ****        97.0000 259.0000 361.0000 Du        
    958 ****        97.0000 259.0000 361.2500 Du        
    959 ****        97.0000 259.0000 361.5000 Du        
    960 ****        97.0000 259.0000 361.7500 Du        
    961 ****        97.0000 259.0000 362.0000 Du        
    962 ****        97.0000 259.2500 360.7500 Du        
    963 ****        97.0000 259.2500 361.0000 Du        
    964 ****        97.0000 259.2500 361.2500 Du        
    965 ****        97.0000 259.2500 361.5000 Du        
    966 ****        97.0000 259.2500 361.7500 Du        
    967 ****        97.0000 259.2500 362.0000 Du        
    968 ****        97.0000 259.5000 361.2500 Du        
    969 ****        97.0000 259.5000 361.5000 Du        
    970 ****        97.0000 259.5000 361.7500 Du        
    971 ****        97.0000 259.5000 362.0000 Du        
    972 ****        97.0000 259.7500 361.0000 Du        
    973 ****        97.0000 259.7500 361.2500 Du        
    974 ****        97.0000 259.7500 361.5000 Du        
    975 ****        97.0000 259.7500 361.7500 Du        
    976 ****        97.0000 259.7500 362.0000 Du        
    977 ****        97.0000 260.0000 361.0000 Du        
    978 ****        97.0000 260.0000 361.2500 Du        
    979 ****        97.0000 260.0000 361.5000 Du        
    980 ****        97.0000 260.0000 361.7500 Du        
    981 ****        97.0000 260.0000 362.0000 Du        
    982 ****        97.0000 260.2500 357.2500 Du        
    983 ****        97.0000 260.2500 361.0000 Du        
    984 ****        97.0000 260.2500 361.2500 Du        
    985 ****        97.0000 260.2500 361.5000 Du        
    986 ****        97.0000 260.2500 361.7500 Du        
    987 ****        97.0000 260.2500 362.0000 Du        
    988 ****        97.0000 260.5000 361.2500 Du        
    989 ****        97.0000 260.5000 361.5000 Du        
    990 ****        97.0000 260.5000 361.7500 Du        
    991 ****        97.0000 260.5000 362.0000 Du        
    992 ****        97.0000 260.7500 361.2500 Du        
    993 ****        97.0000 260.7500 361.5000 Du        
    994 ****        97.0000 260.7500 361.7500 Du        
    995 ****        97.0000 260.7500 362.0000 Du        
    996 ****        97.0000 260.7500 362.2500 Du        
    997 ****        97.0000 261.0000 361.0000 Du        
    998 ****        97.0000 261.0000 361.2500 Du        
    999 ****        97.0000 261.0000 361.5000 Du        
   1000 ****        97.0000 261.0000 361.7500 Du        
   1001 ****        97.0000 261.0000 362.0000 Du        
   1002 ****        97.0000 261.0000 362.2500 Du        
   1003 ****        97.0000 261.2500 361.0000 Du        
   1004 ****        97.0000 261.2500 361.2500 Du        
   1005 ****        97.0000 261.2500 361.5000 Du        
   1006 ****        97.0000 261.2500 361.7500 Du        
   1007 ****        97.0000 261.2500 362.0000 Du        
   1008 ****        97.0000 261.5000 361.0000 Du        
   1009 ****        97.0000 261.5000 361.2500 Du        
   1010 ****        97.0000 261.5000 361.5000 Du        
   1011 ****        97.0000 261.5000 361.7500 Du        
   1012 ****        97.0000 261.5000 362.0000 Du        
   1013 ****        97.0000 261.7500 354.0000 Du        
   1014 ****        97.0000 261.7500 354.2500 Du        
   1015 ****        97.0000 261.7500 354.5000 Du        
   1016 ****        97.0000 261.7500 354.7500 Du        
   1017 ****        97.0000 261.7500 355.0000 Du        
   1018 ****        97.0000 261.7500 355.2500 Du        
   1019 ****        97.0000 261.7500 361.0000 Du        
   1020 ****        97.0000 261.7500 361.2500 Du        
   1021 ****        97.0000 261.7500 361.5000 Du        
   1022 ****        97.0000 261.7500 361.7500 Du        
   1023 ****        97.0000 262.0000 353.7500 Du        
   1024 ****        97.0000 262.0000 354.0000 Du        
   1025 ****        97.0000 262.0000 354.2500 Du        
   1026 ****        97.0000 262.0000 354.5000 Du        
   1027 ****        97.0000 262.0000 354.7500 Du        
   1028 ****        97.0000 262.0000 355.0000 Du        
   1029 ****        97.0000 262.0000 355.2500 Du        
   1030 ****        97.0000 262.0000 361.0000 Du        
   1031 ****        97.0000 262.2500 353.7500 Du        
   1032 ****        97.0000 262.2500 354.0000 Du        
   1033 ****        97.0000 262.2500 354.2500 Du        
   1034 ****        97.0000 262.2500 354.5000 Du        
   1035 ****        97.0000 262.2500 354.7500 Du        
   1036 ****        97.0000 262.2500 355.0000 Du        
   1037 ****        97.0000 262.5000 353.5000 Du        
   1038 ****        97.0000 262.5000 353.7500 Du        
   1039 ****        97.0000 262.5000 354.0000 Du        
   1040 ****        97.0000 262.5000 354.2500 Du        
   1041 ****        97.0000 262.5000 354.5000 Du        
   1042 ****        97.0000 262.5000 360.7500 Du        
   1043 ****        97.0000 262.7500 353.2500 Du        
   1044 ****        97.0000 262.7500 353.5000 Du        
   1045 ****        97.0000 262.7500 353.7500 Du        
   1046 ****        97.0000 262.7500 354.0000 Du        
   1047 ****        97.0000 262.7500 354.2500 Du        
   1048 ****        97.0000 262.7500 360.5000 Du        
   1049 ****        97.0000 262.7500 360.7500 Du        
   1050 ****        97.0000 263.0000 353.0000 Du        
   1051 ****        97.0000 263.0000 353.2500 Du        
   1052 ****        97.0000 263.0000 353.5000 Du        
   1053 ****        97.0000 263.0000 353.7500 Du        
   1054 ****        97.0000 263.0000 354.0000 Du        
   1055 ****        97.0000 263.0000 354.2500 Du        
   1056 ****        97.0000 263.0000 360.5000 Du        
   1057 ****        97.0000 263.0000 360.7500 Du        
   1058 ****        97.0000 263.2500 352.7500 Du        
   1059 ****        97.0000 263.2500 353.0000 Du        
   1060 ****        97.0000 263.2500 353.2500 Du        
   1061 ****        97.0000 263.2500 353.5000 Du        
   1062 ****        97.0000 263.2500 353.7500 Du        
   1063 ****        97.0000 263.2500 354.0000 Du        
   1064 ****        97.0000 263.5000 352.5000 Du        
   1065 ****        97.0000 263.5000 352.7500 Du        
   1066 ****        97.0000 263.5000 353.0000 Du        
   1067 ****        97.0000 263.5000 353.2500 Du        
   1068 ****        97.0000 263.5000 353.5000 Du        
   1069 ****        97.0000 263.5000 353.7500 Du        
   1070 ****        97.0000 263.5000 354.0000 Du        
   1071 ****        97.0000 263.7500 352.2500 Du        
   1072 ****        97.0000 263.7500 352.5000 Du        
   1073 ****        97.0000 263.7500 352.7500 Du        
   1074 ****        97.0000 263.7500 353.0000 Du        
   1075 ****        97.0000 263.7500 353.2500 Du        
   1076 ****        97.0000 263.7500 353.5000 Du        
   1077 ****        97.0000 263.7500 353.7500 Du        
   1078 ****        97.0000 264.0000 352.2500 Du        
   1079 ****        97.0000 264.0000 352.5000 Du        
   1080 ****        97.0000 264.0000 352.7500 Du        
   1081 ****        97.0000 264.0000 353.0000 Du        
   1082 ****        97.0000 264.0000 353.2500 Du        
   1083 ****        97.0000 264.0000 353.5000 Du        
   1084 ****        97.0000 264.0000 353.7500 Du        
   1085 ****        97.0000 264.2500 352.2500 Du        
   1086 ****        97.0000 264.2500 352.5000 Du        
   1087 ****        97.0000 264.2500 352.7500 Du        
   1088 ****        97.0000 264.2500 353.0000 Du        
   1089 ****        97.0000 264.2500 353.2500 Du        
   1090 ****        97.0000 264.2500 353.5000 Du        
   1091 ****        97.0000 264.5000 352.2500 Du        
   1092 ****        97.0000 264.5000 352.5000 Du        
   1093 ****        97.0000 264.5000 352.7500 Du        
   1094 ****        97.0000 264.5000 353.0000 Du        
   1095 ****        97.0000 264.5000 353.2500 Du        
   1096 ****        97.0000 264.5000 353.5000 Du        
   1097 ****        97.0000 264.5000 360.7500 Du        
   1098 ****        97.0000 264.7500 352.2500 Du        
   1099 ****        97.0000 264.7500 352.5000 Du        
   1100 ****        97.0000 264.7500 352.7500 Du        
   1101 ****        97.0000 264.7500 353.0000 Du        
   1102 ****        97.0000 264.7500 353.2500 Du        
   1103 ****        97.0000 264.7500 360.7500 Du        
   1104 ****        97.0000 265.0000 352.2500 Du        
   1105 ****        97.0000 265.0000 352.5000 Du        
   1106 ****        97.0000 265.0000 352.7500 Du        
   1107 ****        97.0000 265.0000 353.0000 Du        
   1108 ****        97.0000 265.0000 353.2500 Du        
   1109 ****        97.0000 265.0000 360.7500 Du        
   1110 ****        97.0000 265.2500 352.5000 Du        
   1111 ****        97.0000 265.2500 352.7500 Du        
   1112 ****        97.0000 265.2500 353.0000 Du        
   1113 ****        97.0000 265.2500 353.2500 Du        
   1114 ****        97.0000 265.2500 360.7500 Du        
   1115 ****        97.0000 265.2500 361.0000 Du        
   1116 ****        97.0000 265.5000 352.5000 Du        
   1117 ****        97.0000 265.5000 352.7500 Du        
   1118 ****        97.0000 265.5000 353.0000 Du        
   1119 ****        97.0000 265.5000 360.7500 Du        
   1120 ****        97.0000 265.5000 361.0000 Du        
   1121 ****        97.0000 265.7500 352.5000 Du        
   1122 ****        97.0000 265.7500 352.7500 Du        
   1123 ****        97.0000 265.7500 353.0000 Du        
   1124 ****        97.0000 265.7500 360.7500 Du        
   1125 ****        97.0000 265.7500 361.0000 Du        
   1126 ****        97.0000 265.7500 361.2500 Du        
   1127 ****        97.0000 266.0000 360.5000 Du        
   1128 ****        97.0000 266.0000 360.7500 Du        
   1129 ****        97.0000 266.0000 361.0000 Du        
   1130 ****        97.0000 266.0000 361.2500 Du        
   1131 ****        97.0000 266.2500 360.5000 Du        
   1132 ****        97.0000 266.2500 360.7500 Du        
   1133 ****        97.0000 266.2500 361.0000 Du        
   1134 ****        97.0000 266.2500 361.2500 Du        
   1135 ****        97.0000 266.2500 361.5000 Du        
   1136 ****        97.0000 266.5000 360.5000 Du        
   1137 ****        97.0000 266.5000 360.7500 Du        
   1138 ****        97.0000 266.5000 361.0000 Du        
   1139 ****        97.0000 266.5000 361.2500 Du        
   1140 ****        97.0000 266.5000 361.5000 Du        
   1141 ****        97.0000 266.5000 361.7500 Du        
   1142 ****        97.0000 266.7500 360.5000 Du        
   1143 ****        97.0000 266.7500 360.7500 Du        
   1144 ****        97.0000 266.7500 361.0000 Du        
   1145 ****        97.0000 266.7500 361.2500 Du        
   1146 ****        97.0000 266.7500 361.5000 Du        
   1147 ****        97.0000 266.7500 361.7500 Du        
   1148 ****        97.0000 267.0000 360.5000 Du        
   1149 ****        97.0000 267.0000 360.7500 Du        
   1150 ****        97.0000 267.0000 361.0000 Du        
   1151 ****        97.0000 267.0000 361.2500 Du        
   1152 ****        97.0000 267.0000 361.5000 Du        
   1153 ****        97.0000 267.0000 361.7500 Du        
   1154 ****        97.0000 267.2500 360.5000 Du        
   1155 ****        97.0000 267.2500 360.7500 Du        
   1156 ****        97.0000 267.2500 361.0000 Du        
   1157 ****        97.0000 267.2500 361.2500 Du        
   1158 ****        97.0000 267.2500 361.5000 Du        
   1159 ****        97.0000 267.2500 361.7500 Du        
   1160 ****        97.0000 267.5000 360.5000 Du        
   1161 ****        97.0000 267.5000 360.7500 Du        
   1162 ****        97.0000 267.5000 361.0000 Du        
   1163 ****        97.0000 267.5000 361.2500 Du        
   1164 ****        97.0000 267.5000 361.5000 Du        
   1165 ****        97.0000 267.7500 360.5000 Du        
   1166 ****        97.0000 267.7500 360.7500 Du        
   1167 ****        97.0000 267.7500 361.0000 Du        
   1168 ****        97.0000 267.7500 361.2500 Du        
   1169 ****        97.0000 268.0000 360.5000 Du        
   1170 ****        97.0000 268.0000 360.7500 Du        
   1171 ****        97.0000 268.0000 361.0000 Du        
   1172 ****        97.0000 268.0000 361.2500 Du        
   1173 ****        97.0000 268.2500 360.5000 Du        
   1174 ****        97.0000 268.2500 360.7500 Du        
   1175 ****        97.0000 268.2500 361.0000 Du        
   1176 ****        97.2500 255.5000 364.0000 Du        
   1177 ****        97.2500 258.0000 361.2500 Du        
   1178 ****        97.2500 258.0000 361.7500 Du        
   1179 ****        97.2500 258.0000 362.0000 Du        
   1180 ****        97.2500 258.2500 360.5000 Du        
   1181 ****        97.2500 258.2500 360.7500 Du        
   1182 ****        97.2500 258.2500 361.0000 Du        
   1183 ****        97.2500 258.2500 361.2500 Du        
   1184 ****        97.2500 258.2500 361.5000 Du        
   1185 ****        97.2500 258.2500 361.7500 Du        
   1186 ****        97.2500 258.2500 362.0000 Du        
   1187 ****        97.2500 258.5000 360.7500 Du        
   1188 ****        97.2500 258.5000 361.0000 Du        
   1189 ****        97.2500 258.5000 361.2500 Du        
   1190 ****        97.2500 258.5000 361.5000 Du        
   1191 ****        97.2500 258.5000 361.7500 Du        
   1192 ****        97.2500 258.5000 362.0000 Du        
   1193 ****        97.2500 258.7500 360.7500 Du        
   1194 ****        97.2500 258.7500 361.0000 Du        
   1195 ****        97.2500 258.7500 361.2500 Du        
   1196 ****        97.2500 258.7500 361.5000 Du        
   1197 ****        97.2500 258.7500 361.7500 Du        
   1198 ****        97.2500 258.7500 362.0000 Du        
   1199 ****        97.2500 259.0000 360.7500 Du        
   1200 ****        97.2500 259.0000 361.0000 Du        
   1201 ****        97.2500 259.0000 361.2500 Du        
   1202 ****        97.2500 259.0000 361.5000 Du        
   1203 ****        97.2500 259.0000 361.7500 Du        
   1204 ****        97.2500 259.0000 362.0000 Du        
   1205 ****        97.2500 259.2500 360.7500 Du        
   1206 ****        97.2500 259.2500 361.0000 Du        
   1207 ****        97.2500 259.2500 361.2500 Du        
   1208 ****        97.2500 259.2500 361.5000 Du        
   1209 ****        97.2500 259.2500 361.7500 Du        
   1210 ****        97.2500 259.2500 362.0000 Du        
   1211 ****        97.2500 259.5000 361.0000 Du        
   1212 ****        97.2500 259.5000 361.2500 Du        
   1213 ****        97.2500 259.5000 361.5000 Du        
   1214 ****        97.2500 259.5000 361.7500 Du        
   1215 ****        97.2500 259.5000 362.0000 Du        
   1216 ****        97.2500 259.7500 361.0000 Du        
   1217 ****        97.2500 259.7500 361.2500 Du        
   1218 ****        97.2500 259.7500 361.5000 Du        
   1219 ****        97.2500 259.7500 361.7500 Du        
   1220 ****        97.2500 259.7500 362.0000 Du        
   1221 ****        97.2500 260.0000 360.7500 Du        
   1222 ****        97.2500 260.0000 361.0000 Du        
   1223 ****        97.2500 260.0000 361.2500 Du        
   1224 ****        97.2500 260.0000 361.5000 Du        
   1225 ****        97.2500 260.0000 361.7500 Du        
   1226 ****        97.2500 260.0000 362.0000 Du        
   1227 ****        97.2500 260.2500 360.7500 Du        
   1228 ****        97.2500 260.2500 361.0000 Du        
   1229 ****        97.2500 260.2500 361.2500 Du        
   1230 ****        97.2500 260.2500 361.5000 Du        
   1231 ****        97.2500 260.2500 361.7500 Du        
   1232 ****        97.2500 260.2500 362.0000 Du        
   1233 ****        97.2500 260.5000 361.2500 Du        
   1234 ****        97.2500 260.5000 361.5000 Du        
   1235 ****        97.2500 260.5000 361.7500 Du        
   1236 ****        97.2500 260.5000 362.0000 Du        
   1237 ****        97.2500 260.5000 362.2500 Du        
   1238 ****        97.2500 260.7500 361.0000 Du        
   1239 ****        97.2500 260.7500 361.2500 Du        
   1240 ****        97.2500 260.7500 361.5000 Du        
   1241 ****        97.2500 260.7500 361.7500 Du        
   1242 ****        97.2500 260.7500 362.0000 Du        
   1243 ****        97.2500 260.7500 362.2500 Du        
   1244 ****        97.2500 261.0000 361.0000 Du        
   1245 ****        97.2500 261.0000 361.2500 Du        
   1246 ****        97.2500 261.0000 361.5000 Du        
   1247 ****        97.2500 261.0000 361.7500 Du        
   1248 ****        97.2500 261.0000 362.0000 Du        
   1249 ****        97.2500 261.0000 362.2500 Du        
   1250 ****        97.2500 261.2500 361.0000 Du        
   1251 ****        97.2500 261.2500 361.2500 Du        
   1252 ****        97.2500 261.2500 361.5000 Du        
   1253 ****        97.2500 261.2500 361.7500 Du        
   1254 ****        97.2500 261.2500 362.0000 Du        
   1255 ****        97.2500 261.2500 362.2500 Du        
   1256 ****        97.2500 261.5000 361.0000 Du        
   1257 ****        97.2500 261.5000 361.2500 Du        
   1258 ****        97.2500 261.5000 361.5000 Du        
   1259 ****        97.2500 261.5000 361.7500 Du        
   1260 ****        97.2500 261.5000 362.0000 Du        
   1261 ****        97.2500 261.7500 361.0000 Du        
   1262 ****        97.2500 261.7500 361.2500 Du        
   1263 ****        97.2500 261.7500 361.5000 Du        
   1264 ****        97.2500 261.7500 361.7500 Du        
   1265 ****        97.2500 262.0000 361.0000 Du        
   1266 ****        97.2500 262.0000 361.2500 Du        
   1267 ****        97.2500 262.2500 354.2500 Du        
   1268 ****        97.2500 262.2500 354.5000 Du        
   1269 ****        97.2500 262.5000 354.0000 Du        
   1270 ****        97.2500 262.5000 354.2500 Du        
   1271 ****        97.2500 262.5000 360.7500 Du        
   1272 ****        97.2500 262.7500 353.5000 Du        
   1273 ****        97.2500 262.7500 353.7500 Du        
   1274 ****        97.2500 262.7500 354.0000 Du        
   1275 ****        97.2500 262.7500 354.2500 Du        
   1276 ****        97.2500 263.0000 353.2500 Du        
   1277 ****        97.2500 263.0000 353.5000 Du        
   1278 ****        97.2500 263.0000 353.7500 Du        
   1279 ****        97.2500 263.0000 354.0000 Du        
   1280 ****        97.2500 263.2500 352.7500 Du        
   1281 ****        97.2500 263.2500 353.0000 Du        
   1282 ****        97.2500 263.2500 353.2500 Du        
   1283 ****        97.2500 263.2500 353.5000 Du        
   1284 ****        97.2500 263.2500 353.7500 Du        
   1285 ****        97.2500 263.2500 354.0000 Du        
   1286 ****        97.2500 263.5000 352.7500 Du        
   1287 ****        97.2500 263.5000 353.0000 Du        
   1288 ****        97.2500 263.5000 353.2500 Du        
   1289 ****        97.2500 263.5000 353.5000 Du        
   1290 ****        97.2500 263.5000 353.7500 Du        
   1291 ****        97.2500 263.7500 352.5000 Du        
   1292 ****        97.2500 263.7500 352.7500 Du        
   1293 ****        97.2500 263.7500 353.0000 Du        
   1294 ****        97.2500 263.7500 353.2500 Du        
   1295 ****        97.2500 263.7500 353.5000 Du        
   1296 ****        97.2500 263.7500 353.7500 Du        
   1297 ****        97.2500 264.0000 352.5000 Du        
   1298 ****        97.2500 264.0000 352.7500 Du        
   1299 ****        97.2500 264.0000 353.0000 Du        
   1300 ****        97.2500 264.0000 353.2500 Du        
   1301 ****        97.2500 264.0000 353.5000 Du        
   1302 ****        97.2500 264.2500 352.2500 Du        
   1303 ****        97.2500 264.2500 352.5000 Du        
   1304 ****        97.2500 264.2500 352.7500 Du        
   1305 ****        97.2500 264.2500 353.0000 Du        
   1306 ****        97.2500 264.2500 353.2500 Du        
   1307 ****        97.2500 264.5000 352.5000 Du        
   1308 ****        97.2500 264.5000 352.7500 Du        
   1309 ****        97.2500 264.5000 353.0000 Du        
   1310 ****        97.2500 264.5000 353.2500 Du        
   1311 ****        97.2500 264.7500 352.5000 Du        
   1312 ****        97.2500 264.7500 352.7500 Du        
   1313 ****        97.2500 264.7500 353.0000 Du        
   1314 ****        97.2500 264.7500 353.2500 Du        
   1315 ****        97.2500 264.7500 360.7500 Du        
   1316 ****        97.2500 265.0000 352.7500 Du        
   1317 ****        97.2500 265.0000 353.0000 Du        
   1318 ****        97.2500 265.0000 360.7500 Du        
   1319 ****        97.2500 265.2500 352.7500 Du        
   1320 ****        97.2500 265.2500 353.0000 Du        
   1321 ****        97.2500 265.2500 360.7500 Du        
   1322 ****        97.2500 265.5000 352.7500 Du        
   1323 ****        97.2500 265.5000 360.7500 Du        
   1324 ****        97.2500 265.7500 360.7500 Du        
   1325 ****        97.2500 265.7500 361.0000 Du        
   1326 ****        97.2500 266.0000 360.5000 Du        
   1327 ****        97.2500 266.0000 360.7500 Du        
   1328 ****        97.2500 266.0000 361.0000 Du        
   1329 ****        97.2500 266.0000 361.2500 Du        
   1330 ****        97.2500 266.2500 360.5000 Du        
   1331 ****        97.2500 266.2500 360.7500 Du        
   1332 ****        97.2500 266.2500 361.0000 Du        
   1333 ****        97.2500 266.2500 361.2500 Du        
   1334 ****        97.2500 266.5000 360.5000 Du        
   1335 ****        97.2500 266.5000 360.7500 Du        
   1336 ****        97.2500 266.5000 361.0000 Du        
   1337 ****        97.2500 266.5000 361.2500 Du        
   1338 ****        97.2500 266.5000 361.5000 Du        
   1339 ****        97.2500 266.7500 360.5000 Du        
   1340 ****        97.2500 266.7500 360.7500 Du        
   1341 ****        97.2500 266.7500 361.0000 Du        
   1342 ****        97.2500 266.7500 361.2500 Du        
   1343 ****        97.2500 266.7500 361.5000 Du        
   1344 ****        97.2500 266.7500 361.7500 Du        
   1345 ****        97.2500 267.0000 360.5000 Du        
   1346 ****        97.2500 267.0000 360.7500 Du        
   1347 ****        97.2500 267.0000 361.0000 Du        
   1348 ****        97.2500 267.0000 361.2500 Du        
   1349 ****        97.2500 267.0000 361.5000 Du        
   1350 ****        97.2500 267.0000 361.7500 Du        
   1351 ****        97.2500 267.2500 360.5000 Du        
   1352 ****        97.2500 267.2500 360.7500 Du        
   1353 ****        97.2500 267.2500 361.0000 Du        
   1354 ****        97.2500 267.2500 361.2500 Du        
   1355 ****        97.2500 267.2500 361.5000 Du        
   1356 ****        97.2500 267.5000 360.5000 Du        
   1357 ****        97.2500 267.5000 360.7500 Du        
   1358 ****        97.2500 267.5000 361.0000 Du        
   1359 ****        97.2500 267.5000 361.2500 Du        
   1360 ****        97.2500 267.5000 361.5000 Du        
   1361 ****        97.2500 267.7500 360.5000 Du        
   1362 ****        97.2500 267.7500 360.7500 Du        
   1363 ****        97.2500 267.7500 361.0000 Du        
   1364 ****        97.2500 267.7500 361.2500 Du        
   1365 ****        97.2500 268.0000 360.5000 Du        
   1366 ****        97.2500 268.0000 360.7500 Du        
   1367 ****        97.2500 268.0000 361.0000 Du        
   1368 ****        97.2500 268.2500 360.7500 Du        
   1369 ****        97.2500 268.2500 361.0000 Du        
   1370 ****        97.5000 255.0000 364.0000 Du        
   1371 ****        97.5000 255.0000 364.2500 Du        
   1372 ****        97.5000 255.0000 364.5000 Du        
   1373 ****        97.5000 255.0000 364.7500 Du        
   1374 ****        97.5000 255.2500 363.7500 Du        
   1375 ****        97.5000 255.2500 364.0000 Du        
   1376 ****        97.5000 255.2500 364.2500 Du        
   1377 ****        97.5000 255.2500 364.5000 Du        
   1378 ****        97.5000 255.2500 364.7500 Du        
   1379 ****        97.5000 255.2500 365.0000 Du        
   1380 ****        97.5000 255.2500 365.2500 Du        
   1381 ****        97.5000 255.5000 363.7500 Du        
   1382 ****        97.5000 255.5000 364.0000 Du        
   1383 ****        97.5000 255.5000 364.2500 Du        
   1384 ****        97.5000 255.5000 364.5000 Du        
   1385 ****        97.5000 255.5000 366.2500 Du        
   1386 ****        97.5000 255.7500 363.7500 Du        
   1387 ****        97.5000 255.7500 364.0000 Du        
   1388 ****        97.5000 258.0000 361.5000 Du        
   1389 ****        97.5000 258.0000 361.7500 Du        
   1390 ****        97.5000 258.0000 362.0000 Du        
   1391 ****        97.5000 258.2500 360.0000 Du        
   1392 ****        97.5000 258.2500 360.2500 Du        
   1393 ****        97.5000 258.2500 360.5000 Du        
   1394 ****        97.5000 258.2500 360.7500 Du        
   1395 ****        97.5000 258.2500 361.0000 Du        
   1396 ****        97.5000 258.2500 361.2500 Du        
   1397 ****        97.5000 258.2500 361.5000 Du        
   1398 ****        97.5000 258.2500 361.7500 Du        
   1399 ****        97.5000 258.2500 362.0000 Du        
   1400 ****        97.5000 258.5000 360.0000 Du        
   1401 ****        97.5000 258.5000 360.2500 Du        
   1402 ****        97.5000 258.5000 360.5000 Du        
   1403 ****        97.5000 258.5000 360.7500 Du        
   1404 ****        97.5000 258.5000 361.0000 Du        
   1405 ****        97.5000 258.5000 361.2500 Du        
   1406 ****        97.5000 258.5000 361.5000 Du        
   1407 ****        97.5000 258.5000 361.7500 Du        
   1408 ****        97.5000 258.5000 362.0000 Du        
   1409 ****        97.5000 258.5000 362.2500 Du        
   1410 ****        97.5000 258.7500 360.0000 Du        
   1411 ****        97.5000 258.7500 360.2500 Du        
   1412 ****        97.5000 258.7500 360.5000 Du        
   1413 ****        97.5000 258.7500 360.7500 Du        
   1414 ****        97.5000 258.7500 361.0000 Du        
   1415 ****        97.5000 258.7500 361.2500 Du        
   1416 ****        97.5000 258.7500 361.5000 Du        
   1417 ****        97.5000 258.7500 361.7500 Du        
   1418 ****        97.5000 258.7500 362.0000 Du        
   1419 ****        97.5000 258.7500 362.2500 Du        
   1420 ****        97.5000 259.0000 360.0000 Du        
   1421 ****        97.5000 259.0000 360.5000 Du        
   1422 ****        97.5000 259.0000 360.7500 Du        
   1423 ****        97.5000 259.0000 361.0000 Du        
   1424 ****        97.5000 259.0000 361.2500 Du        
   1425 ****        97.5000 259.0000 361.5000 Du        
   1426 ****        97.5000 259.0000 361.7500 Du        
   1427 ****        97.5000 259.0000 362.0000 Du        
   1428 ****        97.5000 259.0000 362.2500 Du        
   1429 ****        97.5000 259.2500 360.0000 Du        
   1430 ****        97.5000 259.2500 360.2500 Du        
   1431 ****        97.5000 259.2500 360.5000 Du        
   1432 ****        97.5000 259.2500 360.7500 Du        
   1433 ****        97.5000 259.2500 361.0000 Du        
   1434 ****        97.5000 259.2500 361.2500 Du        
   1435 ****        97.5000 259.2500 361.5000 Du        
   1436 ****        97.5000 259.2500 361.7500 Du        
   1437 ****        97.5000 259.2500 362.0000 Du        
   1438 ****        97.5000 259.5000 360.2500 Du        
   1439 ****        97.5000 259.5000 360.5000 Du        
   1440 ****        97.5000 259.5000 360.7500 Du        
   1441 ****        97.5000 259.5000 361.0000 Du        
   1442 ****        97.5000 259.5000 361.2500 Du        
   1443 ****        97.5000 259.5000 361.5000 Du        
   1444 ****        97.5000 259.5000 361.7500 Du        
   1445 ****        97.5000 259.5000 362.0000 Du        
   1446 ****        97.5000 259.7500 360.2500 Du        
   1447 ****        97.5000 259.7500 360.7500 Du        
   1448 ****        97.5000 259.7500 361.0000 Du        
   1449 ****        97.5000 259.7500 361.2500 Du        
   1450 ****        97.5000 259.7500 361.5000 Du        
   1451 ****        97.5000 259.7500 361.7500 Du        
   1452 ****        97.5000 259.7500 362.0000 Du        
   1453 ****        97.5000 260.0000 360.5000 Du        
   1454 ****        97.5000 260.0000 360.7500 Du        
   1455 ****        97.5000 260.0000 361.0000 Du        
   1456 ****        97.5000 260.0000 361.2500 Du        
   1457 ****        97.5000 260.0000 361.5000 Du        
   1458 ****        97.5000 260.0000 361.7500 Du        
   1459 ****        97.5000 260.0000 362.0000 Du        
   1460 ****        97.5000 260.2500 360.5000 Du        
   1461 ****        97.5000 260.2500 360.7500 Du        
   1462 ****        97.5000 260.2500 361.0000 Du        
   1463 ****        97.5000 260.2500 361.2500 Du        
   1464 ****        97.5000 260.2500 361.5000 Du        
   1465 ****        97.5000 260.2500 361.7500 Du        
   1466 ****        97.5000 260.2500 362.0000 Du        
   1467 ****        97.5000 260.5000 360.7500 Du        
   1468 ****        97.5000 260.5000 361.0000 Du        
   1469 ****        97.5000 260.5000 361.2500 Du        
   1470 ****        97.5000 260.5000 361.5000 Du        
   1471 ****        97.5000 260.5000 361.7500 Du        
   1472 ****        97.5000 260.5000 362.0000 Du        
   1473 ****        97.5000 260.5000 362.2500 Du        
   1474 ****        97.5000 260.7500 357.2500 Du        
   1475 ****        97.5000 260.7500 357.5000 Du        
   1476 ****        97.5000 260.7500 360.5000 Du        
   1477 ****        97.5000 260.7500 360.7500 Du        
   1478 ****        97.5000 260.7500 361.0000 Du        
   1479 ****        97.5000 260.7500 361.2500 Du        
   1480 ****        97.5000 260.7500 361.5000 Du        
   1481 ****        97.5000 260.7500 361.7500 Du        
   1482 ****        97.5000 260.7500 362.0000 Du        
   1483 ****        97.5000 260.7500 362.2500 Du        
   1484 ****        97.5000 261.0000 357.2500 Du        
   1485 ****        97.5000 261.0000 357.5000 Du        
   1486 ****        97.5000 261.0000 357.7500 Du        
   1487 ****        97.5000 261.0000 360.7500 Du        
   1488 ****        97.5000 261.0000 361.0000 Du        
   1489 ****        97.5000 261.0000 361.2500 Du        
   1490 ****        97.5000 261.0000 361.5000 Du        
   1491 ****        97.5000 261.0000 361.7500 Du        
   1492 ****        97.5000 261.0000 362.0000 Du        
   1493 ****        97.5000 261.0000 362.2500 Du        
   1494 ****        97.5000 261.2500 357.2500 Du        
   1495 ****        97.5000 261.2500 357.5000 Du        
   1496 ****        97.5000 261.2500 357.7500 Du        
   1497 ****        97.5000 261.2500 360.7500 Du        
   1498 ****        97.5000 261.2500 361.0000 Du        
   1499 ****        97.5000 261.2500 361.2500 Du        
   1500 ****        97.5000 261.2500 361.5000 Du        
   1501 ****        97.5000 261.2500 361.7500 Du        
   1502 ****        97.5000 261.2500 362.0000 Du        
   1503 ****        97.5000 261.5000 361.0000 Du        
   1504 ****        97.5000 261.5000 361.2500 Du        
   1505 ****        97.5000 261.5000 361.5000 Du        
   1506 ****        97.5000 261.5000 361.7500 Du        
   1507 ****        97.5000 261.5000 362.0000 Du        
   1508 ****        97.5000 261.7500 361.2500 Du        
   1509 ****        97.5000 261.7500 361.5000 Du        
   1510 ****        97.5000 261.7500 361.7500 Du        
   1511 ****        97.5000 263.0000 353.7500 Du        
   1512 ****        97.5000 263.2500 353.2500 Du        
   1513 ****        97.5000 263.2500 353.5000 Du        
   1514 ****        97.5000 263.2500 353.7500 Du        
   1515 ****        97.5000 263.5000 352.7500 Du        
   1516 ****        97.5000 263.5000 353.0000 Du        
   1517 ****        97.5000 263.5000 353.2500 Du        
   1518 ****        97.5000 263.5000 353.5000 Du        
   1519 ****        97.5000 263.7500 352.7500 Du        
   1520 ****        97.5000 263.7500 353.0000 Du        
   1521 ****        97.5000 263.7500 353.2500 Du        
   1522 ****        97.5000 263.7500 353.5000 Du        
   1523 ****        97.5000 264.0000 352.5000 Du        
   1524 ****        97.5000 264.0000 352.7500 Du        
   1525 ****        97.5000 264.0000 353.0000 Du        
   1526 ****        97.5000 264.0000 353.2500 Du        
   1527 ****        97.5000 264.2500 352.5000 Du        
   1528 ****        97.5000 264.2500 352.7500 Du        
   1529 ****        97.5000 264.2500 353.0000 Du        
   1530 ****        97.5000 264.5000 352.7500 Du        
   1531 ****        97.5000 264.5000 353.0000 Du        
   1532 ****        97.5000 265.5000 360.7500 Du        
   1533 ****        97.5000 265.7500 360.7500 Du        
   1534 ****        97.5000 265.7500 361.0000 Du        
   1535 ****        97.5000 266.0000 360.7500 Du        
   1536 ****        97.5000 266.0000 361.0000 Du        
   1537 ****        97.5000 266.2500 360.5000 Du        
   1538 ****        97.5000 266.2500 360.7500 Du        
   1539 ****        97.5000 266.2500 361.0000 Du        
   1540 ****        97.5000 266.2500 361.2500 Du        
   1541 ****        97.5000 266.5000 360.5000 Du        
   1542 ****        97.5000 266.5000 360.7500 Du        
   1543 ****        97.5000 266.5000 361.0000 Du        
   1544 ****        97.5000 266.5000 361.2500 Du        
   1545 ****        97.5000 266.5000 361.5000 Du        
   1546 ****        97.5000 266.7500 360.5000 Du        
   1547 ****        97.5000 266.7500 360.7500 Du        
   1548 ****        97.5000 266.7500 361.0000 Du        
   1549 ****        97.5000 266.7500 361.2500 Du        
   1550 ****        97.5000 266.7500 361.5000 Du        
   1551 ****        97.5000 267.0000 360.5000 Du        
   1552 ****        97.5000 267.0000 360.7500 Du        
   1553 ****        97.5000 267.0000 361.0000 Du        
   1554 ****        97.5000 267.0000 361.2500 Du        
   1555 ****        97.5000 267.0000 361.5000 Du        
   1556 ****        97.5000 267.0000 361.7500 Du        
   1557 ****        97.5000 267.2500 360.5000 Du        
   1558 ****        97.5000 267.2500 360.7500 Du        
   1559 ****        97.5000 267.2500 361.0000 Du        
   1560 ****        97.5000 267.2500 361.2500 Du        
   1561 ****        97.5000 267.2500 361.5000 Du        
   1562 ****        97.5000 267.5000 360.5000 Du        
   1563 ****        97.5000 267.5000 360.7500 Du        
   1564 ****        97.5000 267.5000 361.0000 Du        
   1565 ****        97.5000 267.5000 361.2500 Du        
   1566 ****        97.5000 267.5000 361.5000 Du        
   1567 ****        97.5000 267.7500 360.5000 Du        
   1568 ****        97.5000 267.7500 360.7500 Du        
   1569 ****        97.5000 267.7500 361.0000 Du        
   1570 ****        97.5000 267.7500 361.2500 Du        
   1571 ****        97.5000 268.0000 360.5000 Du        
   1572 ****        97.5000 268.0000 360.7500 Du        
   1573 ****        97.5000 268.0000 361.0000 Du        
   1574 ****        97.5000 268.0000 361.2500 Du        
   1575 ****        97.5000 268.2500 360.5000 Du        
   1576 ****        97.5000 268.2500 360.7500 Du        
   1577 ****        97.5000 268.2500 361.0000 Du        
   1578 ****        97.5000 268.5000 360.7500 Du        
   1579 ****        97.7500 255.0000 365.0000 Du        
   1580 ****        97.7500 255.2500 364.0000 Du        
   1581 ****        97.7500 255.2500 364.2500 Du        
   1582 ****        97.7500 255.2500 364.5000 Du        
   1583 ****        97.7500 255.2500 364.7500 Du        
   1584 ****        97.7500 255.2500 365.0000 Du        
   1585 ****        97.7500 255.2500 365.2500 Du        
   1586 ****        97.7500 255.2500 365.5000 Du        
   1587 ****        97.7500 255.2500 365.7500 Du        
   1588 ****        97.7500 255.2500 366.0000 Du        
   1589 ****        97.7500 255.5000 364.0000 Du        
   1590 ****        97.7500 255.5000 364.2500 Du        
   1591 ****        97.7500 255.5000 364.5000 Du        
   1592 ****        97.7500 255.5000 364.7500 Du        
   1593 ****        97.7500 255.5000 365.2500 Du        
   1594 ****        97.7500 255.5000 365.5000 Du        
   1595 ****        97.7500 255.5000 365.7500 Du        
   1596 ****        97.7500 255.5000 366.0000 Du        
   1597 ****        97.7500 255.5000 366.2500 Du        
   1598 ****        97.7500 255.7500 364.0000 Du        
   1599 ****        97.7500 258.2500 360.2500 Du        
   1600 ****        97.7500 258.2500 360.5000 Du        
   1601 ****        97.7500 258.2500 360.7500 Du        
   1602 ****        97.7500 258.2500 361.0000 Du        
   1603 ****        97.7500 258.2500 361.2500 Du        
   1604 ****        97.7500 258.2500 361.5000 Du        
   1605 ****        97.7500 258.2500 361.7500 Du        
   1606 ****        97.7500 258.2500 362.0000 Du        
   1607 ****        97.7500 258.5000 360.0000 Du        
   1608 ****        97.7500 258.5000 360.2500 Du        
   1609 ****        97.7500 258.5000 360.5000 Du        
   1610 ****        97.7500 258.5000 360.7500 Du        
   1611 ****        97.7500 258.5000 361.0000 Du        
   1612 ****        97.7500 258.5000 361.2500 Du        
   1613 ****        97.7500 258.5000 361.5000 Du        
   1614 ****        97.7500 258.5000 361.7500 Du        
   1615 ****        97.7500 258.5000 362.0000 Du        
   1616 ****        97.7500 258.5000 362.2500 Du        
   1617 ****        97.7500 258.7500 360.0000 Du        
   1618 ****        97.7500 258.7500 360.2500 Du        
   1619 ****        97.7500 258.7500 360.5000 Du        
   1620 ****        97.7500 258.7500 360.7500 Du        
   1621 ****        97.7500 258.7500 361.0000 Du        
   1622 ****        97.7500 258.7500 361.2500 Du        
   1623 ****        97.7500 258.7500 361.5000 Du        
   1624 ****        97.7500 258.7500 361.7500 Du        
   1625 ****        97.7500 258.7500 362.0000 Du        
   1626 ****        97.7500 258.7500 362.2500 Du        
   1627 ****        97.7500 259.0000 360.0000 Du        
   1628 ****        97.7500 259.0000 360.2500 Du        
   1629 ****        97.7500 259.0000 360.5000 Du        
   1630 ****        97.7500 259.0000 360.7500 Du        
   1631 ****        97.7500 259.0000 361.0000 Du        
   1632 ****        97.7500 259.0000 361.2500 Du        
   1633 ****        97.7500 259.0000 361.5000 Du        
   1634 ****        97.7500 259.0000 361.7500 Du        
   1635 ****        97.7500 259.0000 362.0000 Du        
   1636 ****        97.7500 259.0000 362.2500 Du        
   1637 ****        97.7500 259.2500 359.7500 Du        
   1638 ****        97.7500 259.2500 360.0000 Du        
   1639 ****        97.7500 259.2500 360.2500 Du        
   1640 ****        97.7500 259.2500 360.5000 Du        
   1641 ****        97.7500 259.2500 360.7500 Du        
   1642 ****        97.7500 259.2500 361.0000 Du        
   1643 ****        97.7500 259.2500 361.2500 Du        
   1644 ****        97.7500 259.2500 361.5000 Du        
   1645 ****        97.7500 259.2500 361.7500 Du        
   1646 ****        97.7500 259.2500 362.0000 Du        
   1647 ****        97.7500 259.2500 362.2500 Du        
   1648 ****        97.7500 259.5000 360.0000 Du        
   1649 ****        97.7500 259.5000 360.2500 Du        
   1650 ****        97.7500 259.5000 360.5000 Du        
   1651 ****        97.7500 259.5000 360.7500 Du        
   1652 ****        97.7500 259.5000 361.0000 Du        
   1653 ****        97.7500 259.5000 361.2500 Du        
   1654 ****        97.7500 259.5000 361.5000 Du        
   1655 ****        97.7500 259.5000 361.7500 Du        
   1656 ****        97.7500 259.5000 362.0000 Du        
   1657 ****        97.7500 259.7500 360.0000 Du        
   1658 ****        97.7500 259.7500 360.2500 Du        
   1659 ****        97.7500 259.7500 360.5000 Du        
   1660 ****        97.7500 259.7500 360.7500 Du        
   1661 ****        97.7500 259.7500 361.0000 Du        
   1662 ****        97.7500 259.7500 361.2500 Du        
   1663 ****        97.7500 259.7500 361.5000 Du        
   1664 ****        97.7500 259.7500 361.7500 Du        
   1665 ****        97.7500 259.7500 362.0000 Du        
   1666 ****        97.7500 260.0000 360.0000 Du        
   1667 ****        97.7500 260.0000 360.2500 Du        
   1668 ****        97.7500 260.0000 360.5000 Du        
   1669 ****        97.7500 260.0000 360.7500 Du        
   1670 ****        97.7500 260.0000 361.0000 Du        
   1671 ****        97.7500 260.0000 361.2500 Du        
   1672 ****        97.7500 260.0000 361.5000 Du        
   1673 ****        97.7500 260.0000 361.7500 Du        
   1674 ****        97.7500 260.0000 362.0000 Du        
   1675 ****        97.7500 260.2500 360.5000 Du        
   1676 ****        97.7500 260.2500 360.7500 Du        
   1677 ****        97.7500 260.2500 361.0000 Du        
   1678 ****        97.7500 260.2500 361.2500 Du        
   1679 ****        97.7500 260.2500 361.5000 Du        
   1680 ****        97.7500 260.2500 361.7500 Du        
   1681 ****        97.7500 260.2500 362.0000 Du        
   1682 ****        97.7500 260.5000 360.2500 Du        
   1683 ****        97.7500 260.5000 360.5000 Du        
   1684 ****        97.7500 260.5000 360.7500 Du        
   1685 ****        97.7500 260.5000 361.0000 Du        
   1686 ****        97.7500 260.5000 361.2500 Du        
   1687 ****        97.7500 260.5000 361.5000 Du        
   1688 ****        97.7500 260.5000 361.7500 Du        
   1689 ****        97.7500 260.5000 362.0000 Du        
   1690 ****        97.7500 260.7500 357.5000 Du        
   1691 ****        97.7500 260.7500 357.7500 Du        
   1692 ****        97.7500 260.7500 358.0000 Du        
   1693 ****        97.7500 260.7500 360.2500 Du        
   1694 ****        97.7500 260.7500 360.5000 Du        
   1695 ****        97.7500 260.7500 360.7500 Du        
   1696 ****        97.7500 260.7500 361.0000 Du        
   1697 ****        97.7500 260.7500 361.2500 Du        
   1698 ****        97.7500 260.7500 361.5000 Du        
   1699 ****        97.7500 260.7500 361.7500 Du        
   1700 ****        97.7500 260.7500 362.0000 Du        
   1701 ****        97.7500 261.0000 357.5000 Du        
   1702 ****        97.7500 261.0000 357.7500 Du        
   1703 ****        97.7500 261.0000 358.0000 Du        
   1704 ****        97.7500 261.0000 360.2500 Du        
   1705 ****        97.7500 261.0000 360.5000 Du        
   1706 ****        97.7500 261.0000 360.7500 Du        
   1707 ****        97.7500 261.0000 361.0000 Du        
   1708 ****        97.7500 261.0000 361.2500 Du        
   1709 ****        97.7500 261.0000 361.5000 Du        
   1710 ****        97.7500 261.0000 361.7500 Du        
   1711 ****        97.7500 261.0000 362.0000 Du        
   1712 ****        97.7500 261.2500 357.5000 Du        
   1713 ****        97.7500 261.2500 357.7500 Du        
   1714 ****        97.7500 261.2500 360.5000 Du        
   1715 ****        97.7500 261.2500 360.7500 Du        
   1716 ****        97.7500 261.2500 361.0000 Du        
   1717 ****        97.7500 261.2500 361.2500 Du        
   1718 ****        97.7500 261.2500 361.5000 Du        
   1719 ****        97.7500 261.2500 361.7500 Du        
   1720 ****        97.7500 261.2500 362.0000 Du        
   1721 ****        97.7500 263.7500 353.0000 Du        
   1722 ****        97.7500 264.0000 352.7500 Du        
   1723 ****        97.7500 264.0000 353.0000 Du        
   1724 ****        97.7500 265.7500 360.7500 Du        
   1725 ****        97.7500 266.0000 360.7500 Du        
   1726 ****        97.7500 266.0000 361.0000 Du        
   1727 ****        97.7500 266.2500 360.5000 Du        
   1728 ****        97.7500 266.2500 360.7500 Du        
   1729 ****        97.7500 266.2500 361.0000 Du        
   1730 ****        97.7500 266.5000 360.5000 Du        
   1731 ****        97.7500 266.5000 360.7500 Du        
   1732 ****        97.7500 266.5000 361.0000 Du        
   1733 ****        97.7500 266.5000 361.2500 Du        
   1734 ****        97.7500 266.7500 360.5000 Du        
   1735 ****        97.7500 266.7500 360.7500 Du        
   1736 ****        97.7500 266.7500 361.0000 Du        
   1737 ****        97.7500 266.7500 361.2500 Du        
   1738 ****        97.7500 266.7500 361.5000 Du        
   1739 ****        97.7500 267.0000 360.5000 Du        
   1740 ****        97.7500 267.0000 360.7500 Du        
   1741 ****        97.7500 267.0000 361.0000 Du        
   1742 ****        97.7500 267.0000 361.2500 Du        
   1743 ****        97.7500 267.0000 361.5000 Du        
   1744 ****        97.7500 267.2500 360.5000 Du        
   1745 ****        97.7500 267.2500 360.7500 Du        
   1746 ****        97.7500 267.2500 361.0000 Du        
   1747 ****        97.7500 267.2500 361.2500 Du        
   1748 ****        97.7500 267.2500 361.5000 Du        
   1749 ****        97.7500 267.5000 360.2500 Du        
   1750 ****        97.7500 267.5000 360.5000 Du        
   1751 ****        97.7500 267.5000 360.7500 Du        
   1752 ****        97.7500 267.5000 361.0000 Du        
   1753 ****        97.7500 267.5000 361.2500 Du        
   1754 ****        97.7500 267.5000 361.5000 Du        
   1755 ****        97.7500 267.7500 360.2500 Du        
   1756 ****        97.7500 267.7500 360.5000 Du        
   1757 ****        97.7500 267.7500 360.7500 Du        
   1758 ****        97.7500 267.7500 361.0000 Du        
   1759 ****        97.7500 267.7500 361.2500 Du        
   1760 ****        97.7500 268.0000 360.2500 Du        
   1761 ****        97.7500 268.0000 360.5000 Du        
   1762 ****        97.7500 268.0000 360.7500 Du        
   1763 ****        97.7500 268.0000 361.0000 Du        
   1764 ****        97.7500 268.0000 361.2500 Du        
   1765 ****        97.7500 268.2500 360.5000 Du        
   1766 ****        97.7500 268.2500 360.7500 Du        
   1767 ****        97.7500 268.2500 361.0000 Du        
   1768 ****        97.7500 268.5000 360.5000 Du        
   1769 ****        97.7500 268.5000 360.7500 Du        
   1770 ****        97.7500 268.7500 360.7500 Du        
   1771 ****        97.7500 269.2500 360.7500 Du        
   1772 ****        98.0000 255.0000 365.2500 Du        
   1773 ****        98.0000 255.0000 365.7500 Du        
   1774 ****        98.0000 255.0000 366.0000 Du        
   1775 ****        98.0000 255.0000 366.2500 Du        
   1776 ****        98.0000 255.2500 364.7500 Du        
   1777 ****        98.0000 255.2500 365.0000 Du        
   1778 ****        98.0000 255.2500 365.2500 Du        
   1779 ****        98.0000 255.2500 365.5000 Du        
   1780 ****        98.0000 255.2500 365.7500 Du        
   1781 ****        98.0000 255.2500 366.0000 Du        
   1782 ****        98.0000 255.2500 366.2500 Du        
   1783 ****        98.0000 255.2500 366.5000 Du        
   1784 ****        98.0000 255.5000 365.7500 Du        
   1785 ****        98.0000 255.5000 366.0000 Du        
   1786 ****        98.0000 255.5000 366.2500 Du        
   1787 ****        98.0000 255.5000 366.5000 Du        
   1788 ****        98.0000 255.5000 366.7500 Du        
   1789 ****        98.0000 255.5000 367.0000 Du        
   1790 ****        98.0000 255.7500 366.2500 Du        
   1791 ****        98.0000 255.7500 367.0000 Du        
   1792 ****        98.0000 258.2500 360.7500 Du        
   1793 ****        98.0000 258.2500 361.0000 Du        
   1794 ****        98.0000 258.5000 360.2500 Du        
   1795 ****        98.0000 258.5000 360.5000 Du        
   1796 ****        98.0000 258.5000 360.7500 Du        
   1797 ****        98.0000 258.5000 361.0000 Du        
   1798 ****        98.0000 258.5000 361.2500 Du        
   1799 ****        98.0000 258.5000 361.5000 Du        
   1800 ****        98.0000 258.5000 361.7500 Du        
   1801 ****        98.0000 258.5000 362.0000 Du        
   1802 ****        98.0000 258.7500 360.0000 Du        
   1803 ****        98.0000 258.7500 360.2500 Du        
   1804 ****        98.0000 258.7500 360.5000 Du        
   1805 ****        98.0000 258.7500 360.7500 Du        
   1806 ****        98.0000 258.7500 361.0000 Du        
   1807 ****        98.0000 258.7500 361.2500 Du        
   1808 ****        98.0000 258.7500 361.5000 Du        
   1809 ****        98.0000 258.7500 361.7500 Du        
   1810 ****        98.0000 258.7500 362.0000 Du        
   1811 ****        98.0000 258.7500 362.2500 Du        
   1812 ****        98.0000 259.0000 359.7500 Du        
   1813 ****        98.0000 259.0000 360.0000 Du        
   1814 ****        98.0000 259.0000 360.2500 Du        
   1815 ****        98.0000 259.0000 360.5000 Du        
   1816 ****        98.0000 259.0000 360.7500 Du        
   1817 ****        98.0000 259.0000 361.0000 Du        
   1818 ****        98.0000 259.0000 361.2500 Du        
   1819 ****        98.0000 259.0000 361.5000 Du        
   1820 ****        98.0000 259.0000 361.7500 Du        
   1821 ****        98.0000 259.0000 362.0000 Du        
   1822 ****        98.0000 259.0000 362.2500 Du        
   1823 ****        98.0000 259.2500 359.7500 Du        
   1824 ****        98.0000 259.2500 360.0000 Du        
   1825 ****        98.0000 259.2500 360.2500 Du        
   1826 ****        98.0000 259.2500 360.5000 Du        
   1827 ****        98.0000 259.2500 360.7500 Du        
   1828 ****        98.0000 259.2500 361.0000 Du        
   1829 ****        98.0000 259.2500 361.2500 Du        
   1830 ****        98.0000 259.2500 361.5000 Du        
   1831 ****        98.0000 259.2500 361.7500 Du        
   1832 ****        98.0000 259.2500 362.0000 Du        
   1833 ****        98.0000 259.2500 362.2500 Du        
   1834 ****        98.0000 259.5000 360.0000 Du        
   1835 ****        98.0000 259.5000 360.2500 Du        
   1836 ****        98.0000 259.5000 360.5000 Du        
   1837 ****        98.0000 259.5000 360.7500 Du        
   1838 ****        98.0000 259.5000 361.0000 Du        
   1839 ****        98.0000 259.5000 361.2500 Du        
   1840 ****        98.0000 259.5000 361.5000 Du        
   1841 ****        98.0000 259.5000 361.7500 Du        
   1842 ****        98.0000 259.5000 362.0000 Du        
   1843 ****        98.0000 259.7500 360.0000 Du        
   1844 ****        98.0000 259.7500 360.2500 Du        
   1845 ****        98.0000 259.7500 360.5000 Du        
   1846 ****        98.0000 259.7500 360.7500 Du        
   1847 ****        98.0000 259.7500 361.0000 Du        
   1848 ****        98.0000 259.7500 361.2500 Du        
   1849 ****        98.0000 259.7500 361.5000 Du        
   1850 ****        98.0000 259.7500 361.7500 Du        
   1851 ****        98.0000 259.7500 362.0000 Du        
   1852 ****        98.0000 260.0000 359.7500 Du        
   1853 ****        98.0000 260.0000 360.0000 Du        
   1854 ****        98.0000 260.0000 360.2500 Du        
   1855 ****        98.0000 260.0000 360.5000 Du        
   1856 ****        98.0000 260.0000 360.7500 Du        
   1857 ****        98.0000 260.0000 361.0000 Du        
   1858 ****        98.0000 260.0000 361.2500 Du        
   1859 ****        98.0000 260.0000 361.5000 Du        
   1860 ****        98.0000 260.0000 361.7500 Du        
   1861 ****        98.0000 260.0000 362.0000 Du        
   1862 ****        98.0000 260.2500 359.7500 Du        
   1863 ****        98.0000 260.2500 360.0000 Du        
   1864 ****        98.0000 260.2500 360.2500 Du        
   1865 ****        98.0000 260.2500 360.5000 Du        
   1866 ****        98.0000 260.2500 360.7500 Du        
   1867 ****        98.0000 260.2500 361.0000 Du        
   1868 ****        98.0000 260.2500 361.2500 Du        
   1869 ****        98.0000 260.2500 361.5000 Du        
   1870 ****        98.0000 260.2500 361.7500 Du        
   1871 ****        98.0000 260.2500 362.0000 Du        
   1872 ****        98.0000 260.5000 360.0000 Du        
   1873 ****        98.0000 260.5000 360.2500 Du        
   1874 ****        98.0000 260.5000 360.5000 Du        
   1875 ****        98.0000 260.5000 360.7500 Du        
   1876 ****        98.0000 260.5000 361.0000 Du        
   1877 ****        98.0000 260.5000 361.2500 Du        
   1878 ****        98.0000 260.5000 361.5000 Du        
   1879 ****        98.0000 260.5000 361.7500 Du        
   1880 ****        98.0000 260.5000 362.0000 Du        
   1881 ****        98.0000 260.7500 357.7500 Du        
   1882 ****        98.0000 260.7500 358.0000 Du        
   1883 ****        98.0000 260.7500 358.2500 Du        
   1884 ****        98.0000 260.7500 360.0000 Du        
   1885 ****        98.0000 260.7500 360.2500 Du        
   1886 ****        98.0000 260.7500 360.5000 Du        
   1887 ****        98.0000 260.7500 360.7500 Du        
   1888 ****        98.0000 260.7500 361.0000 Du        
   1889 ****        98.0000 260.7500 361.2500 Du        
   1890 ****        98.0000 260.7500 361.5000 Du        
   1891 ****        98.0000 260.7500 361.7500 Du        
   1892 ****        98.0000 260.7500 362.0000 Du        
   1893 ****        98.0000 261.0000 357.5000 Du        
   1894 ****        98.0000 261.0000 357.7500 Du        
   1895 ****        98.0000 261.0000 358.0000 Du        
   1896 ****        98.0000 261.0000 358.2500 Du        
   1897 ****        98.0000 261.0000 360.0000 Du        
   1898 ****        98.0000 261.0000 360.2500 Du        
   1899 ****        98.0000 261.0000 360.5000 Du        
   1900 ****        98.0000 261.0000 360.7500 Du        
   1901 ****        98.0000 261.0000 361.0000 Du        
   1902 ****        98.0000 261.0000 361.2500 Du        
   1903 ****        98.0000 261.0000 361.5000 Du        
   1904 ****        98.0000 261.0000 361.7500 Du        
   1905 ****        98.0000 261.2500 357.5000 Du        
   1906 ****        98.0000 261.2500 357.7500 Du        
   1907 ****        98.0000 261.2500 358.0000 Du        
   1908 ****        98.0000 261.2500 358.2500 Du        
   1909 ****        98.0000 261.2500 360.0000 Du        
   1910 ****        98.0000 261.2500 360.2500 Du        
   1911 ****        98.0000 261.2500 360.5000 Du        
   1912 ****        98.0000 261.2500 360.7500 Du        
   1913 ****        98.0000 266.0000 360.7500 Du        
   1914 ****        98.0000 266.0000 361.0000 Du        
   1915 ****        98.0000 266.2500 360.5000 Du        
   1916 ****        98.0000 266.2500 360.7500 Du        
   1917 ****        98.0000 266.2500 361.0000 Du        
   1918 ****        98.0000 266.5000 360.5000 Du        
   1919 ****        98.0000 266.5000 360.7500 Du        
   1920 ****        98.0000 266.5000 361.0000 Du        
   1921 ****        98.0000 266.5000 361.2500 Du        
   1922 ****        98.0000 266.7500 360.5000 Du        
   1923 ****        98.0000 266.7500 360.7500 Du        
   1924 ****        98.0000 266.7500 361.0000 Du        
   1925 ****        98.0000 266.7500 361.2500 Du        
   1926 ****        98.0000 266.7500 361.5000 Du        
   1927 ****        98.0000 267.0000 360.2500 Du        
   1928 ****        98.0000 267.0000 360.5000 Du        
   1929 ****        98.0000 267.0000 360.7500 Du        
   1930 ****        98.0000 267.0000 361.0000 Du        
   1931 ****        98.0000 267.0000 361.2500 Du        
   1932 ****        98.0000 267.0000 361.5000 Du        
   1933 ****        98.0000 267.2500 360.2500 Du        
   1934 ****        98.0000 267.2500 360.5000 Du        
   1935 ****        98.0000 267.2500 360.7500 Du        
   1936 ****        98.0000 267.2500 361.0000 Du        
   1937 ****        98.0000 267.2500 361.2500 Du        
   1938 ****        98.0000 267.2500 361.5000 Du        
   1939 ****        98.0000 267.5000 360.2500 Du        
   1940 ****        98.0000 267.5000 360.5000 Du        
   1941 ****        98.0000 267.5000 360.7500 Du        
   1942 ****        98.0000 267.5000 361.0000 Du        
   1943 ****        98.0000 267.5000 361.2500 Du        
   1944 ****        98.0000 267.5000 361.5000 Du        
   1945 ****        98.0000 267.7500 360.2500 Du        
   1946 ****        98.0000 267.7500 360.5000 Du        
   1947 ****        98.0000 267.7500 360.7500 Du        
   1948 ****        98.0000 267.7500 361.0000 Du        
   1949 ****        98.0000 267.7500 361.2500 Du        
   1950 ****        98.0000 268.0000 360.2500 Du        
   1951 ****        98.0000 268.0000 360.5000 Du        
   1952 ****        98.0000 268.0000 360.7500 Du        
   1953 ****        98.0000 268.0000 361.0000 Du        
   1954 ****        98.0000 268.0000 361.2500 Du        
   1955 ****        98.0000 268.2500 360.2500 Du        
   1956 ****        98.0000 268.2500 360.5000 Du        
   1957 ****        98.0000 268.2500 360.7500 Du        
   1958 ****        98.0000 268.2500 361.0000 Du        
   1959 ****        98.0000 268.2500 361.2500 Du        
   1960 ****        98.0000 268.5000 360.5000 Du        
   1961 ****        98.0000 268.5000 360.7500 Du        
   1962 ****        98.0000 268.5000 361.0000 Du        
   1963 ****        98.0000 268.7500 360.5000 Du        
   1964 ****        98.0000 268.7500 360.7500 Du        
   1965 ****        98.0000 268.7500 361.0000 Du        
   1966 ****        98.0000 269.0000 360.5000 Du        
   1967 ****        98.0000 269.0000 360.7500 Du        
   1968 ****        98.0000 269.0000 361.0000 Du        
   1969 ****        98.0000 269.2500 360.7500 Du        
   1970 ****        98.0000 269.2500 361.0000 Du        
   1971 ****        98.2500 255.0000 365.7500 Du        
   1972 ****        98.2500 255.0000 366.0000 Du        
   1973 ****        98.2500 255.0000 366.2500 Du        
   1974 ****        98.2500 255.0000 366.5000 Du        
   1975 ****        98.2500 255.2500 365.7500 Du        
   1976 ****        98.2500 255.2500 366.0000 Du        
   1977 ****        98.2500 255.2500 366.2500 Du        
   1978 ****        98.2500 255.5000 366.0000 Du        
   1979 ****        98.2500 255.5000 366.2500 Du        
   1980 ****        98.2500 258.5000 360.2500 Du        
   1981 ****        98.2500 258.5000 360.5000 Du        
   1982 ****        98.2500 258.5000 360.7500 Du        
   1983 ****        98.2500 258.5000 361.0000 Du        
   1984 ****        98.2500 258.5000 361.2500 Du        
   1985 ****        98.2500 258.7500 360.0000 Du        
   1986 ****        98.2500 258.7500 360.2500 Du        
   1987 ****        98.2500 258.7500 360.5000 Du        
   1988 ****        98.2500 258.7500 360.7500 Du        
   1989 ****        98.2500 258.7500 361.0000 Du        
   1990 ****        98.2500 258.7500 361.2500 Du        
   1991 ****        98.2500 258.7500 361.5000 Du        
   1992 ****        98.2500 258.7500 361.7500 Du        
   1993 ****        98.2500 258.7500 362.0000 Du        
   1994 ****        98.2500 259.0000 360.0000 Du        
   1995 ****        98.2500 259.0000 360.2500 Du        
   1996 ****        98.2500 259.0000 360.5000 Du        
   1997 ****        98.2500 259.0000 360.7500 Du        
   1998 ****        98.2500 259.0000 361.0000 Du        
   1999 ****        98.2500 259.0000 361.2500 Du        
   2000 ****        98.2500 259.0000 361.5000 Du        
   2001 ****        98.2500 259.0000 361.7500 Du        
   2002 ****        98.2500 259.0000 362.0000 Du        
   2003 ****        98.2500 259.0000 362.2500 Du        
   2004 ****        98.2500 259.2500 360.0000 Du        
   2005 ****        98.2500 259.2500 360.2500 Du        
   2006 ****        98.2500 259.2500 360.5000 Du        
   2007 ****        98.2500 259.2500 360.7500 Du        
   2008 ****        98.2500 259.2500 361.0000 Du        
   2009 ****        98.2500 259.2500 361.2500 Du        
   2010 ****        98.2500 259.2500 361.5000 Du        
   2011 ****        98.2500 259.2500 361.7500 Du        
   2012 ****        98.2500 259.2500 362.0000 Du        
   2013 ****        98.2500 259.2500 362.2500 Du        
   2014 ****        98.2500 259.5000 360.0000 Du        
   2015 ****        98.2500 259.5000 360.2500 Du        
   2016 ****        98.2500 259.5000 360.5000 Du        
   2017 ****        98.2500 259.5000 360.7500 Du        
   2018 ****        98.2500 259.5000 361.0000 Du        
   2019 ****        98.2500 259.5000 361.2500 Du        
   2020 ****        98.2500 259.5000 361.5000 Du        
   2021 ****        98.2500 259.5000 361.7500 Du        
   2022 ****        98.2500 259.5000 362.0000 Du        
   2023 ****        98.2500 259.7500 360.0000 Du        
   2024 ****        98.2500 259.7500 360.2500 Du        
   2025 ****        98.2500 259.7500 360.5000 Du        
   2026 ****        98.2500 259.7500 360.7500 Du        
   2027 ****        98.2500 259.7500 361.0000 Du        
   2028 ****        98.2500 259.7500 361.2500 Du        
   2029 ****        98.2500 259.7500 361.5000 Du        
   2030 ****        98.2500 259.7500 361.7500 Du        
   2031 ****        98.2500 259.7500 362.0000 Du        
   2032 ****        98.2500 260.0000 359.2500 Du        
   2033 ****        98.2500 260.0000 359.7500 Du        
   2034 ****        98.2500 260.0000 360.0000 Du        
   2035 ****        98.2500 260.0000 360.2500 Du        
   2036 ****        98.2500 260.0000 360.5000 Du        
   2037 ****        98.2500 260.0000 360.7500 Du        
   2038 ****        98.2500 260.0000 361.0000 Du        
   2039 ****        98.2500 260.0000 361.2500 Du        
   2040 ****        98.2500 260.0000 361.5000 Du        
   2041 ****        98.2500 260.0000 361.7500 Du        
   2042 ****        98.2500 260.0000 362.0000 Du        
   2043 ****        98.2500 260.2500 358.7500 Du        
   2044 ****        98.2500 260.2500 359.0000 Du        
   2045 ****        98.2500 260.2500 359.2500 Du        
   2046 ****        98.2500 260.2500 359.7500 Du        
   2047 ****        98.2500 260.2500 360.0000 Du        
   2048 ****        98.2500 260.2500 360.2500 Du        
   2049 ****        98.2500 260.2500 360.5000 Du        
   2050 ****        98.2500 260.2500 360.7500 Du        
   2051 ****        98.2500 260.2500 361.0000 Du        
   2052 ****        98.2500 260.2500 361.2500 Du        
   2053 ****        98.2500 260.2500 361.5000 Du        
   2054 ****        98.2500 260.2500 361.7500 Du        
   2055 ****        98.2500 260.2500 362.0000 Du        
   2056 ****        98.2500 260.5000 360.0000 Du        
   2057 ****        98.2500 260.5000 360.2500 Du        
   2058 ****        98.2500 260.5000 360.5000 Du        
   2059 ****        98.2500 260.5000 360.7500 Du        
   2060 ****        98.2500 260.5000 361.0000 Du        
   2061 ****        98.2500 260.5000 361.2500 Du        
   2062 ****        98.2500 260.5000 361.5000 Du        
   2063 ****        98.2500 260.5000 361.7500 Du        
   2064 ****        98.2500 260.7500 357.7500 Du        
   2065 ****        98.2500 260.7500 358.0000 Du        
   2066 ****        98.2500 260.7500 358.2500 Du        
   2067 ****        98.2500 260.7500 359.7500 Du        
   2068 ****        98.2500 260.7500 360.0000 Du        
   2069 ****        98.2500 260.7500 360.2500 Du        
   2070 ****        98.2500 260.7500 360.5000 Du        
   2071 ****        98.2500 260.7500 360.7500 Du        
   2072 ****        98.2500 260.7500 361.0000 Du        
   2073 ****        98.2500 260.7500 361.2500 Du        
   2074 ****        98.2500 260.7500 361.5000 Du        
   2075 ****        98.2500 261.0000 357.7500 Du        
   2076 ****        98.2500 261.0000 358.0000 Du        
   2077 ****        98.2500 261.0000 358.2500 Du        
   2078 ****        98.2500 261.0000 359.7500 Du        
   2079 ****        98.2500 261.0000 360.0000 Du        
   2080 ****        98.2500 261.0000 360.2500 Du        
   2081 ****        98.2500 261.0000 360.5000 Du        
   2082 ****        98.2500 261.0000 360.7500 Du        
   2083 ****        98.2500 261.0000 361.0000 Du        
   2084 ****        98.2500 261.2500 357.7500 Du        
   2085 ****        98.2500 261.2500 358.0000 Du        
   2086 ****        98.2500 261.2500 358.2500 Du        
   2087 ****        98.2500 261.2500 360.0000 Du        
   2088 ****        98.2500 261.2500 360.2500 Du        
   2089 ****        98.2500 262.0000 359.0000 Du        
   2090 ****        98.2500 266.0000 360.7500 Du        
   2091 ****        98.2500 266.2500 360.5000 Du        
   2092 ****        98.2500 266.2500 360.7500 Du        
   2093 ****        98.2500 266.2500 361.0000 Du        
   2094 ****        98.2500 266.5000 360.5000 Du        
   2095 ****        98.2500 266.5000 360.7500 Du        
   2096 ****        98.2500 266.5000 361.0000 Du        
   2097 ****        98.2500 266.5000 361.2500 Du        
   2098 ****        98.2500 266.7500 360.5000 Du        
   2099 ****        98.2500 266.7500 360.7500 Du        
   2100 ****        98.2500 266.7500 361.0000 Du        
   2101 ****        98.2500 266.7500 361.2500 Du        
   2102 ****        98.2500 267.0000 360.2500 Du        
   2103 ****        98.2500 267.0000 360.5000 Du        
   2104 ****        98.2500 267.0000 360.7500 Du        
   2105 ****        98.2500 267.0000 361.0000 Du        
   2106 ****        98.2500 267.0000 361.2500 Du        
   2107 ****        98.2500 267.0000 361.5000 Du        
   2108 ****        98.2500 267.2500 360.2500 Du        
   2109 ****        98.2500 267.2500 360.5000 Du        
   2110 ****        98.2500 267.2500 360.7500 Du        
   2111 ****        98.2500 267.2500 361.0000 Du        
   2112 ****        98.2500 267.2500 361.2500 Du        
   2113 ****        98.2500 267.2500 361.5000 Du        
   2114 ****        98.2500 267.5000 360.2500 Du        
   2115 ****        98.2500 267.5000 360.5000 Du        
   2116 ****        98.2500 267.5000 360.7500 Du        
   2117 ****        98.2500 267.5000 361.0000 Du        
   2118 ****        98.2500 267.5000 361.2500 Du        
   2119 ****        98.2500 267.5000 361.5000 Du        
   2120 ****        98.2500 267.7500 360.2500 Du        
   2121 ****        98.2500 267.7500 360.5000 Du        
   2122 ****        98.2500 267.7500 360.7500 Du        
   2123 ****        98.2500 267.7500 361.0000 Du        
   2124 ****        98.2500 267.7500 361.2500 Du        
   2125 ****        98.2500 268.0000 360.2500 Du        
   2126 ****        98.2500 268.0000 360.5000 Du        
   2127 ****        98.2500 268.0000 360.7500 Du        
   2128 ****        98.2500 268.0000 361.0000 Du        
   2129 ****        98.2500 268.0000 361.2500 Du        
   2130 ****        98.2500 268.2500 360.2500 Du        
   2131 ****        98.2500 268.2500 360.5000 Du        
   2132 ****        98.2500 268.2500 360.7500 Du        
   2133 ****        98.2500 268.2500 361.0000 Du        
   2134 ****        98.2500 268.2500 361.2500 Du        
   2135 ****        98.2500 268.5000 360.5000 Du        
   2136 ****        98.2500 268.5000 360.7500 Du        
   2137 ****        98.2500 268.5000 361.0000 Du        
   2138 ****        98.2500 268.7500 360.5000 Du        
   2139 ****        98.2500 268.7500 360.7500 Du        
   2140 ****        98.2500 268.7500 361.0000 Du        
   2141 ****        98.2500 269.0000 360.7500 Du        
   2142 ****        98.2500 269.0000 361.0000 Du        
   2143 ****        98.2500 269.2500 360.5000 Du        
   2144 ****        98.2500 269.2500 360.7500 Du        
   2145 ****        98.2500 269.2500 361.0000 Du        
   2146 ****        98.5000 254.7500 366.0000 Du        
   2147 ****        98.5000 255.0000 365.7500 Du        
   2148 ****        98.5000 255.0000 366.0000 Du        
   2149 ****        98.5000 255.0000 366.2500 Du        
   2150 ****        98.5000 255.0000 366.5000 Du        
   2151 ****        98.5000 255.2500 365.7500 Du        
   2152 ****        98.5000 255.2500 366.0000 Du        
   2153 ****        98.5000 255.2500 366.2500 Du        
   2154 ****        98.5000 255.2500 366.5000 Du        
   2155 ****        98.5000 255.5000 366.0000 Du        
   2156 ****        98.5000 258.5000 360.2500 Du        
   2157 ****        98.5000 258.5000 360.5000 Du        
   2158 ****        98.5000 258.5000 360.7500 Du        
   2159 ****        98.5000 258.5000 361.0000 Du        
   2160 ****        98.5000 258.7500 360.2500 Du        
   2161 ****        98.5000 258.7500 360.5000 Du        
   2162 ****        98.5000 258.7500 360.7500 Du        
   2163 ****        98.5000 258.7500 361.0000 Du        
   2164 ****        98.5000 258.7500 361.2500 Du        
   2165 ****        98.5000 258.7500 361.5000 Du        
   2166 ****        98.5000 259.0000 360.0000 Du        
   2167 ****        98.5000 259.0000 360.2500 Du        
   2168 ****        98.5000 259.0000 360.5000 Du        
   2169 ****        98.5000 259.0000 360.7500 Du        
   2170 ****        98.5000 259.0000 361.0000 Du        
   2171 ****        98.5000 259.0000 361.2500 Du        
   2172 ****        98.5000 259.0000 361.5000 Du        
   2173 ****        98.5000 259.0000 361.7500 Du        
   2174 ****        98.5000 259.0000 362.0000 Du        
   2175 ****        98.5000 259.2500 360.0000 Du        
   2176 ****        98.5000 259.2500 360.2500 Du        
   2177 ****        98.5000 259.2500 360.5000 Du        
   2178 ****        98.5000 259.2500 360.7500 Du        
   2179 ****        98.5000 259.2500 361.0000 Du        
   2180 ****        98.5000 259.2500 361.2500 Du        
   2181 ****        98.5000 259.2500 361.5000 Du        
   2182 ****        98.5000 259.2500 361.7500 Du        
   2183 ****        98.5000 259.2500 362.0000 Du        
   2184 ****        98.5000 259.5000 360.0000 Du        
   2185 ****        98.5000 259.5000 360.2500 Du        
   2186 ****        98.5000 259.5000 360.5000 Du        
   2187 ****        98.5000 259.5000 360.7500 Du        
   2188 ****        98.5000 259.5000 361.0000 Du        
   2189 ****        98.5000 259.5000 361.2500 Du        
   2190 ****        98.5000 259.5000 361.5000 Du        
   2191 ****        98.5000 259.5000 361.7500 Du        
   2192 ****        98.5000 259.5000 362.0000 Du        
   2193 ****        98.5000 259.7500 360.0000 Du        
   2194 ****        98.5000 259.7500 360.2500 Du        
   2195 ****        98.5000 259.7500 360.5000 Du        
   2196 ****        98.5000 259.7500 360.7500 Du        
   2197 ****        98.5000 259.7500 361.0000 Du        
   2198 ****        98.5000 259.7500 361.2500 Du        
   2199 ****        98.5000 259.7500 361.5000 Du        
   2200 ****        98.5000 259.7500 361.7500 Du        
   2201 ****        98.5000 259.7500 362.0000 Du        
   2202 ****        98.5000 260.0000 359.7500 Du        
   2203 ****        98.5000 260.0000 360.0000 Du        
   2204 ****        98.5000 260.0000 360.2500 Du        
   2205 ****        98.5000 260.0000 360.5000 Du        
   2206 ****        98.5000 260.0000 360.7500 Du        
   2207 ****        98.5000 260.0000 361.0000 Du        
   2208 ****        98.5000 260.0000 361.2500 Du        
   2209 ****        98.5000 260.0000 361.5000 Du        
   2210 ****        98.5000 260.0000 361.7500 Du        
   2211 ****        98.5000 260.0000 362.0000 Du        
   2212 ****        98.5000 260.2500 358.7500 Du        
   2213 ****        98.5000 260.2500 359.0000 Du        
   2214 ****        98.5000 260.2500 359.2500 Du        
   2215 ****        98.5000 260.2500 359.7500 Du        
   2216 ****        98.5000 260.2500 360.0000 Du        
   2217 ****        98.5000 260.2500 360.2500 Du        
   2218 ****        98.5000 260.2500 360.5000 Du        
   2219 ****        98.5000 260.2500 360.7500 Du        
   2220 ****        98.5000 260.2500 361.0000 Du        
   2221 ****        98.5000 260.2500 361.2500 Du        
   2222 ****        98.5000 260.2500 361.5000 Du        
   2223 ****        98.5000 260.2500 361.7500 Du        
   2224 ****        98.5000 260.5000 358.2500 Du        
   2225 ****        98.5000 260.5000 358.7500 Du        
   2226 ****        98.5000 260.5000 359.0000 Du        
   2227 ****        98.5000 260.5000 359.2500 Du        
   2228 ****        98.5000 260.5000 359.7500 Du        
   2229 ****        98.5000 260.5000 360.0000 Du        
   2230 ****        98.5000 260.5000 360.2500 Du        
   2231 ****        98.5000 260.5000 360.5000 Du        
   2232 ****        98.5000 260.5000 360.7500 Du        
   2233 ****        98.5000 260.5000 361.0000 Du        
   2234 ****        98.5000 260.5000 361.2500 Du        
   2235 ****        98.5000 260.5000 361.5000 Du        
   2236 ****        98.5000 260.5000 361.7500 Du        
   2237 ****        98.5000 260.7500 358.0000 Du        
   2238 ****        98.5000 260.7500 358.2500 Du        
   2239 ****        98.5000 260.7500 358.5000 Du        
   2240 ****        98.5000 260.7500 358.7500 Du        
   2241 ****        98.5000 260.7500 359.0000 Du        
   2242 ****        98.5000 260.7500 359.2500 Du        
   2243 ****        98.5000 260.7500 359.7500 Du        
   2244 ****        98.5000 260.7500 360.0000 Du        
   2245 ****        98.5000 260.7500 360.2500 Du        
   2246 ****        98.5000 260.7500 360.5000 Du        
   2247 ****        98.5000 260.7500 360.7500 Du        
   2248 ****        98.5000 260.7500 361.0000 Du        
   2249 ****        98.5000 260.7500 361.2500 Du        
   2250 ****        98.5000 260.7500 361.5000 Du        
   2251 ****        98.5000 261.0000 357.7500 Du        
   2252 ****        98.5000 261.0000 358.0000 Du        
   2253 ****        98.5000 261.0000 358.2500 Du        
   2254 ****        98.5000 261.0000 358.5000 Du        
   2255 ****        98.5000 261.0000 358.7500 Du        
   2256 ****        98.5000 261.0000 359.0000 Du        
   2257 ****        98.5000 261.0000 359.2500 Du        
   2258 ****        98.5000 261.0000 359.5000 Du        
   2259 ****        98.5000 261.0000 359.7500 Du        
   2260 ****        98.5000 261.0000 360.0000 Du        
   2261 ****        98.5000 261.0000 360.2500 Du        
   2262 ****        98.5000 261.0000 360.5000 Du        
   2263 ****        98.5000 261.0000 360.7500 Du        
   2264 ****        98.5000 261.2500 357.7500 Du        
   2265 ****        98.5000 261.2500 358.0000 Du        
   2266 ****        98.5000 261.2500 358.2500 Du        
   2267 ****        98.5000 261.2500 358.5000 Du        
   2268 ****        98.5000 261.2500 358.7500 Du        
   2269 ****        98.5000 261.2500 359.0000 Du        
   2270 ****        98.5000 261.2500 359.5000 Du        
   2271 ****        98.5000 261.2500 360.0000 Du        
   2272 ****        98.5000 261.5000 357.7500 Du        
   2273 ****        98.5000 261.5000 358.0000 Du        
   2274 ****        98.5000 261.5000 358.2500 Du        
   2275 ****        98.5000 261.5000 358.5000 Du        
   2276 ****        98.5000 261.5000 358.7500 Du        
   2277 ****        98.5000 261.5000 359.0000 Du        
   2278 ****        98.5000 261.7500 357.7500 Du        
   2279 ****        98.5000 261.7500 358.0000 Du        
   2280 ****        98.5000 261.7500 358.2500 Du        
   2281 ****        98.5000 261.7500 358.5000 Du        
   2282 ****        98.5000 261.7500 358.7500 Du        
   2283 ****        98.5000 261.7500 359.0000 Du        
   2284 ****        98.5000 262.0000 358.2500 Du        
   2285 ****        98.5000 262.0000 358.5000 Du        
   2286 ****        98.5000 262.0000 358.7500 Du        
   2287 ****        98.5000 266.2500 360.5000 Du        
   2288 ****        98.5000 266.2500 360.7500 Du        
   2289 ****        98.5000 266.5000 360.5000 Du        
   2290 ****        98.5000 266.5000 360.7500 Du        
   2291 ****        98.5000 266.5000 361.0000 Du        
   2292 ****        98.5000 266.7500 360.5000 Du        
   2293 ****        98.5000 266.7500 360.7500 Du        
   2294 ****        98.5000 266.7500 361.0000 Du        
   2295 ****        98.5000 266.7500 361.2500 Du        
   2296 ****        98.5000 267.0000 360.2500 Du        
   2297 ****        98.5000 267.0000 360.5000 Du        
   2298 ****        98.5000 267.0000 360.7500 Du        
   2299 ****        98.5000 267.0000 361.0000 Du        
   2300 ****        98.5000 267.0000 361.2500 Du        
   2301 ****        98.5000 267.0000 361.5000 Du        
   2302 ****        98.5000 267.2500 360.2500 Du        
   2303 ****        98.5000 267.2500 360.5000 Du        
   2304 ****        98.5000 267.2500 360.7500 Du        
   2305 ****        98.5000 267.2500 361.0000 Du        
   2306 ****        98.5000 267.2500 361.2500 Du        
   2307 ****        98.5000 267.2500 361.5000 Du        
   2308 ****        98.5000 267.5000 360.2500 Du        
   2309 ****        98.5000 267.5000 360.5000 Du        
   2310 ****        98.5000 267.5000 360.7500 Du        
   2311 ****        98.5000 267.5000 361.0000 Du        
   2312 ****        98.5000 267.5000 361.2500 Du        
   2313 ****        98.5000 267.5000 361.5000 Du        
   2314 ****        98.5000 267.7500 360.2500 Du        
   2315 ****        98.5000 267.7500 360.5000 Du        
   2316 ****        98.5000 267.7500 360.7500 Du        
   2317 ****        98.5000 267.7500 361.0000 Du        
   2318 ****        98.5000 267.7500 361.2500 Du        
   2319 ****        98.5000 267.7500 361.5000 Du        
   2320 ****        98.5000 268.0000 360.2500 Du        
   2321 ****        98.5000 268.0000 360.5000 Du        
   2322 ****        98.5000 268.0000 360.7500 Du        
   2323 ****        98.5000 268.0000 361.0000 Du        
   2324 ****        98.5000 268.0000 361.2500 Du        
   2325 ****        98.5000 268.2500 360.2500 Du        
   2326 ****        98.5000 268.2500 360.5000 Du        
   2327 ****        98.5000 268.2500 360.7500 Du        
   2328 ****        98.5000 268.2500 361.0000 Du        
   2329 ****        98.5000 268.2500 361.2500 Du        
   2330 ****        98.5000 268.5000 360.5000 Du        
   2331 ****        98.5000 268.5000 360.7500 Du        
   2332 ****        98.5000 268.5000 361.0000 Du        
   2333 ****        98.5000 268.5000 361.2500 Du        
   2334 ****        98.5000 268.7500 360.5000 Du        
   2335 ****        98.5000 268.7500 360.7500 Du        
   2336 ****        98.5000 268.7500 361.0000 Du        
   2337 ****        98.5000 268.7500 361.2500 Du        
   2338 ****        98.5000 269.0000 360.5000 Du        
   2339 ****        98.5000 269.0000 360.7500 Du        
   2340 ****        98.5000 269.0000 361.0000 Du        
   2341 ****        98.5000 269.2500 360.5000 Du        
   2342 ****        98.5000 269.2500 360.7500 Du        
   2343 ****        98.5000 269.2500 361.0000 Du        
   2344 ****        98.7500 254.7500 366.0000 Du        
   2345 ****        98.7500 255.0000 366.0000 Du        
   2346 ****        98.7500 255.0000 366.2500 Du        
   2347 ****        98.7500 255.0000 366.5000 Du        
   2348 ****        98.7500 255.2500 366.2500 Du        
   2349 ****        98.7500 255.2500 366.5000 Du        
   2350 ****        98.7500 258.7500 360.2500 Du        
   2351 ****        98.7500 258.7500 360.5000 Du        
   2352 ****        98.7500 258.7500 360.7500 Du        
   2353 ****        98.7500 258.7500 361.0000 Du        
   2354 ****        98.7500 259.0000 360.2500 Du        
   2355 ****        98.7500 259.0000 360.5000 Du        
   2356 ****        98.7500 259.0000 360.7500 Du        
   2357 ****        98.7500 259.0000 361.0000 Du        
   2358 ****        98.7500 259.0000 361.2500 Du        
   2359 ****        98.7500 259.0000 361.5000 Du        
   2360 ****        98.7500 259.2500 360.0000 Du        
   2361 ****        98.7500 259.2500 360.2500 Du        
   2362 ****        98.7500 259.2500 360.5000 Du        
   2363 ****        98.7500 259.2500 360.7500 Du        
   2364 ****        98.7500 259.2500 361.0000 Du        
   2365 ****        98.7500 259.2500 361.2500 Du        
   2366 ****        98.7500 259.2500 361.5000 Du        
   2367 ****        98.7500 259.2500 361.7500 Du        
   2368 ****        98.7500 259.5000 360.0000 Du        
   2369 ****        98.7500 259.5000 360.2500 Du        
   2370 ****        98.7500 259.5000 360.5000 Du        
   2371 ****        98.7500 259.5000 360.7500 Du        
   2372 ****        98.7500 259.5000 361.0000 Du        
   2373 ****        98.7500 259.5000 361.2500 Du        
   2374 ****        98.7500 259.5000 361.5000 Du        
   2375 ****        98.7500 259.5000 361.7500 Du        
   2376 ****        98.7500 259.7500 360.0000 Du        
   2377 ****        98.7500 259.7500 360.2500 Du        
   2378 ****        98.7500 259.7500 360.5000 Du        
   2379 ****        98.7500 259.7500 360.7500 Du        
   2380 ****        98.7500 259.7500 361.0000 Du        
   2381 ****        98.7500 259.7500 361.2500 Du        
   2382 ****        98.7500 259.7500 361.5000 Du        
   2383 ****        98.7500 259.7500 361.7500 Du        
   2384 ****        98.7500 260.0000 359.7500 Du        
   2385 ****        98.7500 260.0000 360.0000 Du        
   2386 ****        98.7500 260.0000 360.2500 Du        
   2387 ****        98.7500 260.0000 360.5000 Du        
   2388 ****        98.7500 260.0000 360.7500 Du        
   2389 ****        98.7500 260.0000 361.0000 Du        
   2390 ****        98.7500 260.0000 361.2500 Du        
   2391 ****        98.7500 260.0000 361.5000 Du        
   2392 ****        98.7500 260.0000 361.7500 Du        
   2393 ****        98.7500 260.2500 359.2500 Du        
   2394 ****        98.7500 260.2500 359.5000 Du        
   2395 ****        98.7500 260.2500 359.7500 Du        
   2396 ****        98.7500 260.2500 360.0000 Du        
   2397 ****        98.7500 260.2500 360.2500 Du        
   2398 ****        98.7500 260.2500 360.5000 Du        
   2399 ****        98.7500 260.2500 360.7500 Du        
   2400 ****        98.7500 260.2500 361.0000 Du        
   2401 ****        98.7500 260.2500 361.2500 Du        
   2402 ****        98.7500 260.2500 361.5000 Du        
   2403 ****        98.7500 260.2500 361.7500 Du        
   2404 ****        98.7500 260.5000 359.0000 Du        
   2405 ****        98.7500 260.5000 359.2500 Du        
   2406 ****        98.7500 260.5000 359.7500 Du        
   2407 ****        98.7500 260.5000 360.0000 Du        
   2408 ****        98.7500 260.5000 360.2500 Du        
   2409 ****        98.7500 260.5000 360.5000 Du        
   2410 ****        98.7500 260.5000 360.7500 Du        
   2411 ****        98.7500 260.5000 361.0000 Du        
   2412 ****        98.7500 260.5000 361.2500 Du        
   2413 ****        98.7500 260.5000 361.5000 Du        
   2414 ****        98.7500 260.7500 358.0000 Du        
   2415 ****        98.7500 260.7500 358.2500 Du        
   2416 ****        98.7500 260.7500 358.5000 Du        
   2417 ****        98.7500 260.7500 358.7500 Du        
   2418 ****        98.7500 260.7500 359.0000 Du        
   2419 ****        98.7500 260.7500 359.2500 Du        
   2420 ****        98.7500 260.7500 359.5000 Du        
   2421 ****        98.7500 260.7500 359.7500 Du        
   2422 ****        98.7500 260.7500 360.0000 Du        
   2423 ****        98.7500 260.7500 360.2500 Du        
   2424 ****        98.7500 260.7500 360.5000 Du        
   2425 ****        98.7500 260.7500 360.7500 Du        
   2426 ****        98.7500 260.7500 361.0000 Du        
   2427 ****        98.7500 261.0000 358.0000 Du        
   2428 ****        98.7500 261.0000 358.2500 Du        
   2429 ****        98.7500 261.0000 358.5000 Du        
   2430 ****        98.7500 261.0000 358.7500 Du        
   2431 ****        98.7500 261.0000 359.0000 Du        
   2432 ****        98.7500 261.0000 359.2500 Du        
   2433 ****        98.7500 261.0000 359.5000 Du        
   2434 ****        98.7500 261.0000 359.7500 Du        
   2435 ****        98.7500 261.0000 360.0000 Du        
   2436 ****        98.7500 261.0000 360.2500 Du        
   2437 ****        98.7500 261.0000 360.5000 Du        
   2438 ****        98.7500 261.2500 357.7500 Du        
   2439 ****        98.7500 261.2500 358.0000 Du        
   2440 ****        98.7500 261.2500 358.2500 Du        
   2441 ****        98.7500 261.2500 358.5000 Du        
   2442 ****        98.7500 261.2500 358.7500 Du        
   2443 ****        98.7500 261.2500 359.0000 Du        
   2444 ****        98.7500 261.2500 359.2500 Du        
   2445 ****        98.7500 261.2500 359.5000 Du        
   2446 ****        98.7500 261.2500 359.7500 Du        
   2447 ****        98.7500 261.2500 360.0000 Du        
   2448 ****        98.7500 261.5000 358.0000 Du        
   2449 ****        98.7500 261.5000 358.2500 Du        
   2450 ****        98.7500 261.5000 358.5000 Du        
   2451 ****        98.7500 261.5000 358.7500 Du        
   2452 ****        98.7500 261.5000 359.0000 Du        
   2453 ****        98.7500 261.5000 359.2500 Du        
   2454 ****        98.7500 261.5000 359.5000 Du        
   2455 ****        98.7500 261.7500 358.0000 Du        
   2456 ****        98.7500 261.7500 358.2500 Du        
   2457 ****        98.7500 261.7500 358.5000 Du        
   2458 ****        98.7500 261.7500 358.7500 Du        
   2459 ****        98.7500 261.7500 359.0000 Du        
   2460 ****        98.7500 261.7500 359.2500 Du        
   2461 ****        98.7500 261.7500 359.5000 Du        
   2462 ****        98.7500 262.0000 358.0000 Du        
   2463 ****        98.7500 262.0000 358.2500 Du        
   2464 ****        98.7500 262.0000 358.5000 Du        
   2465 ****        98.7500 262.0000 358.7500 Du        
   2466 ****        98.7500 262.0000 359.0000 Du        
   2467 ****        98.7500 262.0000 359.2500 Du        
   2468 ****        98.7500 262.2500 358.2500 Du        
   2469 ****        98.7500 262.2500 358.5000 Du        
   2470 ****        98.7500 262.2500 358.7500 Du        
   2471 ****        98.7500 262.2500 359.0000 Du        
   2472 ****        98.7500 266.2500 360.5000 Du        
   2473 ****        98.7500 266.2500 360.7500 Du        
   2474 ****        98.7500 266.5000 360.5000 Du        
   2475 ****        98.7500 266.5000 360.7500 Du        
   2476 ****        98.7500 266.5000 361.0000 Du        
   2477 ****        98.7500 266.7500 360.2500 Du        
   2478 ****        98.7500 266.7500 360.5000 Du        
   2479 ****        98.7500 266.7500 360.7500 Du        
   2480 ****        98.7500 266.7500 361.0000 Du        
   2481 ****        98.7500 266.7500 361.2500 Du        
   2482 ****        98.7500 267.0000 360.2500 Du        
   2483 ****        98.7500 267.0000 360.5000 Du        
   2484 ****        98.7500 267.0000 360.7500 Du        
   2485 ****        98.7500 267.0000 361.0000 Du        
   2486 ****        98.7500 267.0000 361.2500 Du        
   2487 ****        98.7500 267.0000 361.5000 Du        
   2488 ****        98.7500 267.2500 360.2500 Du        
   2489 ****        98.7500 267.2500 360.5000 Du        
   2490 ****        98.7500 267.2500 360.7500 Du        
   2491 ****        98.7500 267.2500 361.0000 Du        
   2492 ****        98.7500 267.2500 361.2500 Du        
   2493 ****        98.7500 267.2500 361.5000 Du        
   2494 ****        98.7500 267.5000 360.2500 Du        
   2495 ****        98.7500 267.5000 360.5000 Du        
   2496 ****        98.7500 267.5000 360.7500 Du        
   2497 ****        98.7500 267.5000 361.0000 Du        
   2498 ****        98.7500 267.5000 361.2500 Du        
   2499 ****        98.7500 267.5000 361.5000 Du        
   2500 ****        98.7500 267.7500 360.0000 Du        
   2501 ****        98.7500 267.7500 360.2500 Du        
   2502 ****        98.7500 267.7500 360.5000 Du        
   2503 ****        98.7500 267.7500 360.7500 Du        
   2504 ****        98.7500 267.7500 361.0000 Du        
   2505 ****        98.7500 267.7500 361.2500 Du        
   2506 ****        98.7500 267.7500 361.5000 Du        
   2507 ****        98.7500 268.0000 360.0000 Du        
   2508 ****        98.7500 268.0000 360.2500 Du        
   2509 ****        98.7500 268.0000 360.5000 Du        
   2510 ****        98.7500 268.0000 360.7500 Du        
   2511 ****        98.7500 268.0000 361.0000 Du        
   2512 ****        98.7500 268.0000 361.2500 Du        
   2513 ****        98.7500 268.0000 361.5000 Du        
   2514 ****        98.7500 268.2500 360.0000 Du        
   2515 ****        98.7500 268.2500 360.2500 Du        
   2516 ****        98.7500 268.2500 360.5000 Du        
   2517 ****        98.7500 268.2500 360.7500 Du        
   2518 ****        98.7500 268.2500 361.0000 Du        
   2519 ****        98.7500 268.2500 361.2500 Du        
   2520 ****        98.7500 268.5000 360.2500 Du        
   2521 ****        98.7500 268.5000 360.5000 Du        
   2522 ****        98.7500 268.5000 360.7500 Du        
   2523 ****        98.7500 268.5000 361.0000 Du        
   2524 ****        98.7500 268.5000 361.2500 Du        
   2525 ****        98.7500 268.7500 360.2500 Du        
   2526 ****        98.7500 268.7500 360.5000 Du        
   2527 ****        98.7500 268.7500 360.7500 Du        
   2528 ****        98.7500 268.7500 361.0000 Du        
   2529 ****        98.7500 268.7500 361.2500 Du        
   2530 ****        98.7500 269.0000 360.2500 Du        
   2531 ****        98.7500 269.0000 360.5000 Du        
   2532 ****        98.7500 269.0000 360.7500 Du        
   2533 ****        98.7500 269.0000 361.0000 Du        
   2534 ****        98.7500 269.0000 361.2500 Du        
   2535 ****        98.7500 269.2500 360.5000 Du        
   2536 ****        98.7500 269.2500 360.7500 Du        
   2537 ****        98.7500 269.2500 361.0000 Du        
   2538 ****        98.7500 269.2500 361.2500 Du        
   2539 ****        99.0000 254.5000 366.5000 Du        
   2540 ****        99.0000 254.7500 366.2500 Du        
   2541 ****        99.0000 254.7500 366.5000 Du        
   2542 ****        99.0000 255.0000 366.2500 Du        
   2543 ****        99.0000 255.0000 366.5000 Du        
   2544 ****        99.0000 255.0000 366.7500 Du        
   2545 ****        99.0000 255.0000 367.0000 Du        
   2546 ****        99.0000 258.7500 360.5000 Du        
   2547 ****        99.0000 258.7500 360.7500 Du        
   2548 ****        99.0000 259.0000 360.5000 Du        
   2549 ****        99.0000 259.0000 360.7500 Du        
   2550 ****        99.0000 259.0000 361.0000 Du        
   2551 ****        99.0000 259.0000 361.2500 Du        
   2552 ****        99.0000 259.2500 360.2500 Du        
   2553 ****        99.0000 259.2500 360.5000 Du        
   2554 ****        99.0000 259.2500 360.7500 Du        
   2555 ****        99.0000 259.2500 361.0000 Du        
   2556 ****        99.0000 259.2500 361.2500 Du        
   2557 ****        99.0000 259.2500 361.5000 Du        
   2558 ****        99.0000 259.5000 360.2500 Du        
   2559 ****        99.0000 259.5000 360.5000 Du        
   2560 ****        99.0000 259.5000 360.7500 Du        
   2561 ****        99.0000 259.5000 361.0000 Du        
   2562 ****        99.0000 259.5000 361.2500 Du        
   2563 ****        99.0000 259.5000 361.5000 Du        
   2564 ****        99.0000 259.5000 361.7500 Du        
   2565 ****        99.0000 259.7500 360.0000 Du        
   2566 ****        99.0000 259.7500 360.2500 Du        
   2567 ****        99.0000 259.7500 360.5000 Du        
   2568 ****        99.0000 259.7500 360.7500 Du        
   2569 ****        99.0000 259.7500 361.0000 Du        
   2570 ****        99.0000 259.7500 361.2500 Du        
   2571 ****        99.0000 259.7500 361.5000 Du        
   2572 ****        99.0000 259.7500 361.7500 Du        
   2573 ****        99.0000 260.0000 359.7500 Du        
   2574 ****        99.0000 260.0000 360.0000 Du        
   2575 ****        99.0000 260.0000 360.2500 Du        
   2576 ****        99.0000 260.0000 360.5000 Du        
   2577 ****        99.0000 260.0000 360.7500 Du        
   2578 ****        99.0000 260.0000 361.0000 Du        
   2579 ****        99.0000 260.0000 361.2500 Du        
   2580 ****        99.0000 260.0000 361.5000 Du        
   2581 ****        99.0000 260.0000 361.7500 Du        
   2582 ****        99.0000 260.2500 359.7500 Du        
   2583 ****        99.0000 260.2500 360.0000 Du        
   2584 ****        99.0000 260.2500 360.2500 Du        
   2585 ****        99.0000 260.2500 360.5000 Du        
   2586 ****        99.0000 260.2500 360.7500 Du        
   2587 ****        99.0000 260.2500 361.0000 Du        
   2588 ****        99.0000 260.2500 361.2500 Du        
   2589 ****        99.0000 260.2500 361.5000 Du        
   2590 ****        99.0000 260.5000 359.2500 Du        
   2591 ****        99.0000 260.5000 359.7500 Du        
   2592 ****        99.0000 260.5000 360.0000 Du        
   2593 ****        99.0000 260.5000 360.2500 Du        
   2594 ****        99.0000 260.5000 360.5000 Du        
   2595 ****        99.0000 260.5000 360.7500 Du        
   2596 ****        99.0000 260.5000 361.0000 Du        
   2597 ****        99.0000 260.5000 361.2500 Du        
   2598 ****        99.0000 260.7500 358.2500 Du        
   2599 ****        99.0000 260.7500 358.5000 Du        
   2600 ****        99.0000 260.7500 358.7500 Du        
   2601 ****        99.0000 260.7500 359.0000 Du        
   2602 ****        99.0000 260.7500 359.2500 Du        
   2603 ****        99.0000 260.7500 359.5000 Du        
   2604 ****        99.0000 260.7500 359.7500 Du        
   2605 ****        99.0000 260.7500 360.0000 Du        
   2606 ****        99.0000 260.7500 360.2500 Du        
   2607 ****        99.0000 260.7500 360.5000 Du        
   2608 ****        99.0000 260.7500 360.7500 Du        
   2609 ****        99.0000 261.0000 358.0000 Du        
   2610 ****        99.0000 261.0000 358.2500 Du        
   2611 ****        99.0000 261.0000 358.5000 Du        
   2612 ****        99.0000 261.0000 358.7500 Du        
   2613 ****        99.0000 261.0000 359.0000 Du        
   2614 ****        99.0000 261.0000 359.2500 Du        
   2615 ****        99.0000 261.0000 359.5000 Du        
   2616 ****        99.0000 261.0000 359.7500 Du        
   2617 ****        99.0000 261.0000 360.0000 Du        
   2618 ****        99.0000 261.0000 360.2500 Du        
   2619 ****        99.0000 261.2500 358.0000 Du        
   2620 ****        99.0000 261.2500 358.2500 Du        
   2621 ****        99.0000 261.2500 358.5000 Du        
   2622 ****        99.0000 261.2500 358.7500 Du        
   2623 ****        99.0000 261.2500 359.0000 Du        
   2624 ****        99.0000 261.2500 359.2500 Du        
   2625 ****        99.0000 261.2500 359.5000 Du        
   2626 ****        99.0000 261.2500 359.7500 Du        
   2627 ****        99.0000 261.5000 358.0000 Du        
   2628 ****        99.0000 261.5000 358.2500 Du        
   2629 ****        99.0000 261.5000 358.5000 Du        
   2630 ****        99.0000 261.5000 358.7500 Du        
   2631 ****        99.0000 261.5000 359.0000 Du        
   2632 ****        99.0000 261.5000 359.2500 Du        
   2633 ****        99.0000 261.5000 359.5000 Du        
   2634 ****        99.0000 261.7500 358.0000 Du        
   2635 ****        99.0000 261.7500 358.2500 Du        
   2636 ****        99.0000 261.7500 358.5000 Du        
   2637 ****        99.0000 261.7500 358.7500 Du        
   2638 ****        99.0000 261.7500 359.0000 Du        
   2639 ****        99.0000 261.7500 359.2500 Du        
   2640 ****        99.0000 262.0000 358.0000 Du        
   2641 ****        99.0000 262.0000 358.2500 Du        
   2642 ****        99.0000 262.0000 358.5000 Du        
   2643 ****        99.0000 262.0000 358.7500 Du        
   2644 ****        99.0000 262.0000 359.0000 Du        
   2645 ****        99.0000 262.0000 359.2500 Du        
   2646 ****        99.0000 262.2500 358.0000 Du        
   2647 ****        99.0000 262.2500 358.2500 Du        
   2648 ****        99.0000 262.2500 358.5000 Du        
   2649 ****        99.0000 262.2500 358.7500 Du        
   2650 ****        99.0000 262.2500 359.0000 Du        
   2651 ****        99.0000 266.5000 360.5000 Du        
   2652 ****        99.0000 266.5000 360.7500 Du        
   2653 ****        99.0000 266.7500 360.2500 Du        
   2654 ****        99.0000 266.7500 360.5000 Du        
   2655 ****        99.0000 266.7500 360.7500 Du        
   2656 ****        99.0000 266.7500 361.0000 Du        
   2657 ****        99.0000 267.0000 360.2500 Du        
   2658 ****        99.0000 267.0000 360.5000 Du        
   2659 ****        99.0000 267.0000 360.7500 Du        
   2660 ****        99.0000 267.0000 361.0000 Du        
   2661 ****        99.0000 267.0000 361.2500 Du        
   2662 ****        99.0000 267.2500 360.0000 Du        
   2663 ****        99.0000 267.2500 360.2500 Du        
   2664 ****        99.0000 267.2500 360.5000 Du        
   2665 ****        99.0000 267.2500 360.7500 Du        
   2666 ****        99.0000 267.2500 361.0000 Du        
   2667 ****        99.0000 267.2500 361.2500 Du        
   2668 ****        99.0000 267.2500 361.5000 Du        
   2669 ****        99.0000 267.5000 360.0000 Du        
   2670 ****        99.0000 267.5000 360.2500 Du        
   2671 ****        99.0000 267.5000 360.5000 Du        
   2672 ****        99.0000 267.5000 360.7500 Du        
   2673 ****        99.0000 267.5000 361.0000 Du        
   2674 ****        99.0000 267.5000 361.2500 Du        
   2675 ****        99.0000 267.5000 361.5000 Du        
   2676 ****        99.0000 267.5000 361.7500 Du        
   2677 ****        99.0000 267.7500 360.0000 Du        
   2678 ****        99.0000 267.7500 360.2500 Du        
   2679 ****        99.0000 267.7500 360.5000 Du        
   2680 ****        99.0000 267.7500 360.7500 Du        
   2681 ****        99.0000 267.7500 361.0000 Du        
   2682 ****        99.0000 267.7500 361.2500 Du        
   2683 ****        99.0000 267.7500 361.5000 Du        
   2684 ****        99.0000 267.7500 361.7500 Du        
   2685 ****        99.0000 268.0000 360.0000 Du        
   2686 ****        99.0000 268.0000 360.2500 Du        
   2687 ****        99.0000 268.0000 360.5000 Du        
   2688 ****        99.0000 268.0000 360.7500 Du        
   2689 ****        99.0000 268.0000 361.0000 Du        
   2690 ****        99.0000 268.0000 361.2500 Du        
   2691 ****        99.0000 268.0000 361.5000 Du        
   2692 ****        99.0000 268.2500 360.0000 Du        
   2693 ****        99.0000 268.2500 360.2500 Du        
   2694 ****        99.0000 268.2500 360.5000 Du        
   2695 ****        99.0000 268.2500 360.7500 Du        
   2696 ****        99.0000 268.2500 361.0000 Du        
   2697 ****        99.0000 268.2500 361.2500 Du        
   2698 ****        99.0000 268.2500 361.5000 Du        
   2699 ****        99.0000 268.5000 360.0000 Du        
   2700 ****        99.0000 268.5000 360.2500 Du        
   2701 ****        99.0000 268.5000 360.5000 Du        
   2702 ****        99.0000 268.5000 360.7500 Du        
   2703 ****        99.0000 268.5000 361.0000 Du        
   2704 ****        99.0000 268.5000 361.2500 Du        
   2705 ****        99.0000 268.7500 360.0000 Du        
   2706 ****        99.0000 268.7500 360.2500 Du        
   2707 ****        99.0000 268.7500 360.5000 Du        
   2708 ****        99.0000 268.7500 360.7500 Du        
   2709 ****        99.0000 268.7500 361.0000 Du        
   2710 ****        99.0000 268.7500 361.2500 Du        
   2711 ****        99.0000 269.0000 360.2500 Du        
   2712 ****        99.0000 269.0000 360.5000 Du        
   2713 ****        99.0000 269.0000 360.7500 Du        
   2714 ****        99.0000 269.0000 361.0000 Du        
   2715 ****        99.0000 269.0000 361.2500 Du        
   2716 ****        99.0000 269.2500 360.5000 Du        
   2717 ****        99.0000 269.2500 360.7500 Du        
   2718 ****        99.0000 269.2500 361.0000 Du        
   2719 ****        99.0000 269.2500 361.2500 Du        
   2720 ****        99.0000 269.5000 360.5000 Du        
   2721 ****        99.0000 269.5000 360.7500 Du        
   2722 ****        99.0000 269.5000 361.0000 Du        
   2723 ****        99.0000 269.5000 361.2500 Du        
   2724 ****        99.0000 269.7500 360.5000 Du        
   2725 ****        99.0000 269.7500 360.7500 Du        
   2726 ****        99.0000 269.7500 361.0000 Du        
   2727 ****        99.0000 269.7500 361.2500 Du        
   2728 ****        99.2500 254.5000 366.5000 Du        
   2729 ****        99.2500 254.7500 366.5000 Du        
   2730 ****        99.2500 259.0000 360.5000 Du        
   2731 ****        99.2500 259.0000 360.7500 Du        
   2732 ****        99.2500 259.0000 361.0000 Du        
   2733 ****        99.2500 259.2500 360.5000 Du        
   2734 ****        99.2500 259.2500 360.7500 Du        
   2735 ****        99.2500 259.2500 361.0000 Du        
   2736 ****        99.2500 259.2500 361.2500 Du        
   2737 ****        99.2500 259.2500 361.5000 Du        
   2738 ****        99.2500 259.5000 360.2500 Du        
   2739 ****        99.2500 259.5000 360.5000 Du        
   2740 ****        99.2500 259.5000 360.7500 Du        
   2741 ****        99.2500 259.5000 361.0000 Du        
   2742 ****        99.2500 259.5000 361.2500 Du        
   2743 ****        99.2500 259.5000 361.5000 Du        
   2744 ****        99.2500 259.7500 360.2500 Du        
   2745 ****        99.2500 259.7500 360.5000 Du        
   2746 ****        99.2500 259.7500 360.7500 Du        
   2747 ****        99.2500 259.7500 361.0000 Du        
   2748 ****        99.2500 259.7500 361.2500 Du        
   2749 ****        99.2500 259.7500 361.5000 Du        
   2750 ****        99.2500 260.0000 360.0000 Du        
   2751 ****        99.2500 260.0000 360.2500 Du        
   2752 ****        99.2500 260.0000 360.5000 Du        
   2753 ****        99.2500 260.0000 360.7500 Du        
   2754 ****        99.2500 260.0000 361.0000 Du        
   2755 ****        99.2500 260.0000 361.2500 Du        
   2756 ****        99.2500 260.0000 361.5000 Du        
   2757 ****        99.2500 260.2500 359.7500 Du        
   2758 ****        99.2500 260.2500 360.0000 Du        
   2759 ****        99.2500 260.2500 360.2500 Du        
   2760 ****        99.2500 260.2500 360.5000 Du        
   2761 ****        99.2500 260.2500 360.7500 Du        
   2762 ****        99.2500 260.2500 361.0000 Du        
   2763 ****        99.2500 260.2500 361.2500 Du        
   2764 ****        99.2500 260.2500 361.5000 Du        
   2765 ****        99.2500 260.5000 359.7500 Du        
   2766 ****        99.2500 260.5000 360.0000 Du        
   2767 ****        99.2500 260.5000 360.2500 Du        
   2768 ****        99.2500 260.5000 360.5000 Du        
   2769 ****        99.2500 260.5000 360.7500 Du        
   2770 ****        99.2500 260.5000 361.0000 Du        
   2771 ****        99.2500 260.7500 358.2500 Du        
   2772 ****        99.2500 260.7500 358.5000 Du        
   2773 ****        99.2500 260.7500 358.7500 Du        
   2774 ****        99.2500 260.7500 359.0000 Du        
   2775 ****        99.2500 260.7500 359.2500 Du        
   2776 ****        99.2500 260.7500 359.5000 Du        
   2777 ****        99.2500 260.7500 359.7500 Du        
   2778 ****        99.2500 260.7500 360.0000 Du        
   2779 ****        99.2500 260.7500 360.2500 Du        
   2780 ****        99.2500 260.7500 360.5000 Du        
   2781 ****        99.2500 261.0000 358.2500 Du        
   2782 ****        99.2500 261.0000 358.5000 Du        
   2783 ****        99.2500 261.0000 358.7500 Du        
   2784 ****        99.2500 261.0000 359.0000 Du        
   2785 ****        99.2500 261.0000 359.2500 Du        
   2786 ****        99.2500 261.0000 359.5000 Du        
   2787 ****        99.2500 261.0000 359.7500 Du        
   2788 ****        99.2500 261.0000 360.0000 Du        
   2789 ****        99.2500 261.2500 358.0000 Du        
   2790 ****        99.2500 261.2500 358.2500 Du        
   2791 ****        99.2500 261.2500 358.5000 Du        
   2792 ****        99.2500 261.2500 358.7500 Du        
   2793 ****        99.2500 261.2500 359.0000 Du        
   2794 ****        99.2500 261.2500 359.2500 Du        
   2795 ****        99.2500 261.2500 359.5000 Du        
   2796 ****        99.2500 261.2500 359.7500 Du        
   2797 ****        99.2500 261.5000 358.0000 Du        
   2798 ****        99.2500 261.5000 358.2500 Du        
   2799 ****        99.2500 261.5000 358.5000 Du        
   2800 ****        99.2500 261.5000 358.7500 Du        
   2801 ****        99.2500 261.5000 359.0000 Du        
   2802 ****        99.2500 261.5000 359.2500 Du        
   2803 ****        99.2500 261.5000 359.5000 Du        
   2804 ****        99.2500 261.7500 358.0000 Du        
   2805 ****        99.2500 261.7500 358.2500 Du        
   2806 ****        99.2500 261.7500 358.5000 Du        
   2807 ****        99.2500 261.7500 358.7500 Du        
   2808 ****        99.2500 261.7500 359.0000 Du        
   2809 ****        99.2500 261.7500 359.2500 Du        
   2810 ****        99.2500 262.0000 358.0000 Du        
   2811 ****        99.2500 262.0000 358.2500 Du        
   2812 ****        99.2500 262.0000 358.5000 Du        
   2813 ****        99.2500 262.0000 358.7500 Du        
   2814 ****        99.2500 262.0000 359.0000 Du        
   2815 ****        99.2500 262.0000 359.2500 Du        
   2816 ****        99.2500 262.2500 358.0000 Du        
   2817 ****        99.2500 262.2500 358.2500 Du        
   2818 ****        99.2500 262.2500 358.5000 Du        
   2819 ****        99.2500 262.2500 358.7500 Du        
   2820 ****        99.2500 262.2500 359.0000 Du        
   2821 ****        99.2500 266.5000 360.2500 Du        
   2822 ****        99.2500 266.5000 360.5000 Du        
   2823 ****        99.2500 266.7500 360.2500 Du        
   2824 ****        99.2500 266.7500 360.5000 Du        
   2825 ****        99.2500 266.7500 360.7500 Du        
   2826 ****        99.2500 266.7500 361.0000 Du        
   2827 ****        99.2500 267.0000 360.0000 Du        
   2828 ****        99.2500 267.0000 360.2500 Du        
   2829 ****        99.2500 267.0000 360.5000 Du        
   2830 ****        99.2500 267.0000 360.7500 Du        
   2831 ****        99.2500 267.0000 361.0000 Du        
   2832 ****        99.2500 267.2500 360.0000 Du        
   2833 ****        99.2500 267.2500 360.2500 Du        
   2834 ****        99.2500 267.2500 360.5000 Du        
   2835 ****        99.2500 267.2500 360.7500 Du        
   2836 ****        99.2500 267.2500 361.0000 Du        
   2837 ****        99.2500 267.2500 361.2500 Du        
   2838 ****        99.2500 267.2500 361.5000 Du        
   2839 ****        99.2500 267.5000 360.0000 Du        
   2840 ****        99.2500 267.5000 360.2500 Du        
   2841 ****        99.2500 267.5000 360.5000 Du        
   2842 ****        99.2500 267.5000 360.7500 Du        
   2843 ****        99.2500 267.5000 361.0000 Du        
   2844 ****        99.2500 267.5000 361.2500 Du        
   2845 ****        99.2500 267.5000 361.5000 Du        
   2846 ****        99.2500 267.7500 360.0000 Du        
   2847 ****        99.2500 267.7500 360.2500 Du        
   2848 ****        99.2500 267.7500 360.5000 Du        
   2849 ****        99.2500 267.7500 360.7500 Du        
   2850 ****        99.2500 267.7500 361.0000 Du        
   2851 ****        99.2500 267.7500 361.2500 Du        
   2852 ****        99.2500 267.7500 361.5000 Du        
   2853 ****        99.2500 268.0000 360.0000 Du        
   2854 ****        99.2500 268.0000 360.2500 Du        
   2855 ****        99.2500 268.0000 360.5000 Du        
   2856 ****        99.2500 268.0000 360.7500 Du        
   2857 ****        99.2500 268.0000 361.0000 Du        
   2858 ****        99.2500 268.0000 361.2500 Du        
   2859 ****        99.2500 268.0000 361.5000 Du        
   2860 ****        99.2500 268.2500 360.0000 Du        
   2861 ****        99.2500 268.2500 360.2500 Du        
   2862 ****        99.2500 268.2500 360.5000 Du        
   2863 ****        99.2500 268.2500 360.7500 Du        
   2864 ****        99.2500 268.2500 361.0000 Du        
   2865 ****        99.2500 268.2500 361.2500 Du        
   2866 ****        99.2500 268.2500 361.5000 Du        
   2867 ****        99.2500 268.5000 360.0000 Du        
   2868 ****        99.2500 268.5000 360.2500 Du        
   2869 ****        99.2500 268.5000 360.5000 Du        
   2870 ****        99.2500 268.5000 360.7500 Du        
   2871 ****        99.2500 268.5000 361.0000 Du        
   2872 ****        99.2500 268.5000 361.2500 Du        
   2873 ****        99.2500 268.5000 361.5000 Du        
   2874 ****        99.2500 268.7500 360.0000 Du        
   2875 ****        99.2500 268.7500 360.2500 Du        
   2876 ****        99.2500 268.7500 360.5000 Du        
   2877 ****        99.2500 268.7500 360.7500 Du        
   2878 ****        99.2500 268.7500 361.0000 Du        
   2879 ****        99.2500 268.7500 361.2500 Du        
   2880 ****        99.2500 268.7500 361.5000 Du        
   2881 ****        99.2500 269.0000 360.2500 Du        
   2882 ****        99.2500 269.0000 360.5000 Du        
   2883 ****        99.2500 269.0000 360.7500 Du        
   2884 ****        99.2500 269.0000 361.0000 Du        
   2885 ****        99.2500 269.0000 361.2500 Du        
   2886 ****        99.2500 269.2500 360.5000 Du        
   2887 ****        99.2500 269.2500 360.7500 Du        
   2888 ****        99.2500 269.2500 361.0000 Du        
   2889 ****        99.2500 269.2500 361.2500 Du        
   2890 ****        99.2500 269.5000 360.5000 Du        
   2891 ****        99.2500 269.5000 360.7500 Du        
   2892 ****        99.2500 269.5000 361.0000 Du        
   2893 ****        99.2500 269.5000 361.2500 Du        
   2894 ****        99.2500 269.7500 360.5000 Du        
   2895 ****        99.2500 269.7500 360.7500 Du        
   2896 ****        99.2500 269.7500 361.0000 Du        
   2897 ****        99.2500 269.7500 361.2500 Du        
   2898 ****        99.5000 254.5000 366.5000 Du        
   2899 ****        99.5000 254.7500 366.5000 Du        
   2900 ****        99.5000 259.0000 360.7500 Du        
   2901 ****        99.5000 259.2500 360.5000 Du        
   2902 ****        99.5000 259.2500 360.7500 Du        
   2903 ****        99.5000 259.2500 361.0000 Du        
   2904 ****        99.5000 259.2500 361.2500 Du        
   2905 ****        99.5000 259.5000 360.5000 Du        
   2906 ****        99.5000 259.5000 360.7500 Du        
   2907 ****        99.5000 259.5000 361.0000 Du        
   2908 ****        99.5000 259.5000 361.2500 Du        
   2909 ****        99.5000 259.5000 361.5000 Du        
   2910 ****        99.5000 259.7500 360.2500 Du        
   2911 ****        99.5000 259.7500 360.5000 Du        
   2912 ****        99.5000 259.7500 360.7500 Du        
   2913 ****        99.5000 259.7500 361.0000 Du        
   2914 ****        99.5000 259.7500 361.2500 Du        
   2915 ****        99.5000 259.7500 361.5000 Du        
   2916 ****        99.5000 260.0000 360.2500 Du        
   2917 ****        99.5000 260.0000 360.5000 Du        
   2918 ****        99.5000 260.0000 360.7500 Du        
   2919 ****        99.5000 260.0000 361.0000 Du        
   2920 ****        99.5000 260.0000 361.2500 Du        
   2921 ****        99.5000 260.0000 361.5000 Du        
   2922 ****        99.5000 260.2500 360.0000 Du        
   2923 ****        99.5000 260.2500 360.2500 Du        
   2924 ****        99.5000 260.2500 360.5000 Du        
   2925 ****        99.5000 260.2500 360.7500 Du        
   2926 ****        99.5000 260.2500 361.0000 Du        
   2927 ****        99.5000 260.2500 361.2500 Du        
   2928 ****        99.5000 260.5000 359.7500 Du        
   2929 ****        99.5000 260.5000 360.0000 Du        
   2930 ****        99.5000 260.5000 360.2500 Du        
   2931 ****        99.5000 260.5000 360.5000 Du        
   2932 ****        99.5000 260.5000 360.7500 Du        
   2933 ****        99.5000 260.7500 358.7500 Du        
   2934 ****        99.5000 260.7500 359.0000 Du        
   2935 ****        99.5000 260.7500 359.2500 Du        
   2936 ****        99.5000 260.7500 359.5000 Du        
   2937 ****        99.5000 260.7500 359.7500 Du        
   2938 ****        99.5000 260.7500 360.0000 Du        
   2939 ****        99.5000 260.7500 360.2500 Du        
   2940 ****        99.5000 261.0000 358.2500 Du        
   2941 ****        99.5000 261.0000 358.5000 Du        
   2942 ****        99.5000 261.0000 358.7500 Du        
   2943 ****        99.5000 261.0000 359.0000 Du        
   2944 ****        99.5000 261.0000 359.2500 Du        
   2945 ****        99.5000 261.0000 359.5000 Du        
   2946 ****        99.5000 261.0000 359.7500 Du        
   2947 ****        99.5000 261.0000 360.0000 Du        
   2948 ****        99.5000 261.2500 358.0000 Du        
   2949 ****        99.5000 261.2500 358.2500 Du        
   2950 ****        99.5000 261.2500 358.5000 Du        
   2951 ****        99.5000 261.2500 358.7500 Du        
   2952 ****        99.5000 261.2500 359.0000 Du        
   2953 ****        99.5000 261.2500 359.2500 Du        
   2954 ****        99.5000 261.2500 359.5000 Du        
   2955 ****        99.5000 261.2500 359.7500 Du        
   2956 ****        99.5000 261.5000 358.0000 Du        
   2957 ****        99.5000 261.5000 358.2500 Du        
   2958 ****        99.5000 261.5000 358.5000 Du        
   2959 ****        99.5000 261.5000 358.7500 Du        
   2960 ****        99.5000 261.5000 359.0000 Du        
   2961 ****        99.5000 261.5000 359.2500 Du        
   2962 ****        99.5000 261.5000 359.5000 Du        
   2963 ****        99.5000 261.7500 358.0000 Du        
   2964 ****        99.5000 261.7500 358.2500 Du        
   2965 ****        99.5000 261.7500 358.5000 Du        
   2966 ****        99.5000 261.7500 358.7500 Du        
   2967 ****        99.5000 261.7500 359.0000 Du        
   2968 ****        99.5000 261.7500 359.2500 Du        
   2969 ****        99.5000 262.0000 358.0000 Du        
   2970 ****        99.5000 262.0000 358.2500 Du        
   2971 ****        99.5000 262.0000 358.5000 Du        
   2972 ****        99.5000 262.0000 358.7500 Du        
   2973 ****        99.5000 262.0000 359.0000 Du        
   2974 ****        99.5000 262.0000 359.2500 Du        
   2975 ****        99.5000 262.2500 358.0000 Du        
   2976 ****        99.5000 262.2500 358.2500 Du        
   2977 ****        99.5000 262.2500 358.5000 Du        
   2978 ****        99.5000 262.2500 358.7500 Du        
   2979 ****        99.5000 262.2500 359.0000 Du        
   2980 ****        99.5000 262.5000 358.2500 Du        
   2981 ****        99.5000 262.5000 358.5000 Du        
   2982 ****        99.5000 262.5000 358.7500 Du        
   2983 ****        99.5000 262.5000 359.0000 Du        
   2984 ****        99.5000 262.7500 358.7500 Du        
   2985 ****        99.5000 266.5000 360.2500 Du        
   2986 ****        99.5000 266.5000 360.5000 Du        
   2987 ****        99.5000 266.7500 360.0000 Du        
   2988 ****        99.5000 266.7500 360.2500 Du        
   2989 ****        99.5000 266.7500 360.5000 Du        
   2990 ****        99.5000 266.7500 360.7500 Du        
   2991 ****        99.5000 267.0000 360.0000 Du        
   2992 ****        99.5000 267.0000 360.2500 Du        
   2993 ****        99.5000 267.0000 360.5000 Du        
   2994 ****        99.5000 267.0000 360.7500 Du        
   2995 ****        99.5000 267.0000 361.0000 Du        
   2996 ****        99.5000 267.2500 360.0000 Du        
   2997 ****        99.5000 267.2500 360.2500 Du        
   2998 ****        99.5000 267.2500 360.5000 Du        
   2999 ****        99.5000 267.2500 360.7500 Du        
   3000 ****        99.5000 267.2500 361.0000 Du        
   3001 ****        99.5000 267.2500 361.2500 Du        
   3002 ****        99.5000 267.5000 360.0000 Du        
   3003 ****        99.5000 267.5000 360.2500 Du        
   3004 ****        99.5000 267.5000 360.5000 Du        
   3005 ****        99.5000 267.5000 360.7500 Du        
   3006 ****        99.5000 267.5000 361.0000 Du        
   3007 ****        99.5000 267.5000 361.2500 Du        
   3008 ****        99.5000 267.5000 361.5000 Du        
   3009 ****        99.5000 267.7500 359.7500 Du        
   3010 ****        99.5000 267.7500 360.0000 Du        
   3011 ****        99.5000 267.7500 360.2500 Du        
   3012 ****        99.5000 267.7500 360.5000 Du        
   3013 ****        99.5000 267.7500 360.7500 Du        
   3014 ****        99.5000 267.7500 361.0000 Du        
   3015 ****        99.5000 267.7500 361.2500 Du        
   3016 ****        99.5000 267.7500 361.5000 Du        
   3017 ****        99.5000 268.0000 359.7500 Du        
   3018 ****        99.5000 268.0000 360.0000 Du        
   3019 ****        99.5000 268.0000 360.2500 Du        
   3020 ****        99.5000 268.0000 360.5000 Du        
   3021 ****        99.5000 268.0000 360.7500 Du        
   3022 ****        99.5000 268.0000 361.0000 Du        
   3023 ****        99.5000 268.0000 361.2500 Du        
   3024 ****        99.5000 268.0000 361.5000 Du        
   3025 ****        99.5000 268.2500 359.7500 Du        
   3026 ****        99.5000 268.2500 360.0000 Du        
   3027 ****        99.5000 268.2500 360.2500 Du        
   3028 ****        99.5000 268.2500 360.5000 Du        
   3029 ****        99.5000 268.2500 360.7500 Du        
   3030 ****        99.5000 268.2500 361.0000 Du        
   3031 ****        99.5000 268.2500 361.2500 Du        
   3032 ****        99.5000 268.2500 361.5000 Du        
   3033 ****        99.5000 268.5000 360.0000 Du        
   3034 ****        99.5000 268.5000 360.2500 Du        
   3035 ****        99.5000 268.5000 360.5000 Du        
   3036 ****        99.5000 268.5000 360.7500 Du        
   3037 ****        99.5000 268.5000 361.0000 Du        
   3038 ****        99.5000 268.5000 361.2500 Du        
   3039 ****        99.5000 268.5000 361.5000 Du        
   3040 ****        99.5000 268.7500 360.0000 Du        
   3041 ****        99.5000 268.7500 360.2500 Du        
   3042 ****        99.5000 268.7500 360.5000 Du        
   3043 ****        99.5000 268.7500 360.7500 Du        
   3044 ****        99.5000 268.7500 361.0000 Du        
   3045 ****        99.5000 268.7500 361.2500 Du        
   3046 ****        99.5000 268.7500 361.5000 Du        
   3047 ****        99.5000 269.0000 360.0000 Du        
   3048 ****        99.5000 269.0000 360.2500 Du        
   3049 ****        99.5000 269.0000 360.5000 Du        
   3050 ****        99.5000 269.0000 360.7500 Du        
   3051 ****        99.5000 269.0000 361.0000 Du        
   3052 ****        99.5000 269.0000 361.2500 Du        
   3053 ****        99.5000 269.2500 360.2500 Du        
   3054 ****        99.5000 269.2500 360.5000 Du        
   3055 ****        99.5000 269.2500 360.7500 Du        
   3056 ****        99.5000 269.2500 361.0000 Du        
   3057 ****        99.5000 269.2500 361.2500 Du        
   3058 ****        99.5000 269.5000 360.5000 Du        
   3059 ****        99.5000 269.5000 360.7500 Du        
   3060 ****        99.5000 269.5000 361.0000 Du        
   3061 ****        99.5000 269.5000 361.2500 Du        
   3062 ****        99.5000 269.7500 360.5000 Du        
   3063 ****        99.5000 269.7500 360.7500 Du        
   3064 ****        99.5000 269.7500 361.0000 Du        
   3065 ****        99.5000 269.7500 361.2500 Du        
   3066 ****        99.7500 259.2500 360.7500 Du        
   3067 ****        99.7500 259.2500 361.0000 Du        
   3068 ****        99.7500 259.5000 360.5000 Du        
   3069 ****        99.7500 259.5000 360.7500 Du        
   3070 ****        99.7500 259.5000 361.0000 Du        
   3071 ****        99.7500 259.5000 361.2500 Du        
   3072 ****        99.7500 259.7500 360.5000 Du        
   3073 ****        99.7500 259.7500 360.7500 Du        
   3074 ****        99.7500 259.7500 361.0000 Du        
   3075 ****        99.7500 259.7500 361.2500 Du        
   3076 ****        99.7500 259.7500 361.5000 Du        
   3077 ****        99.7500 260.0000 360.2500 Du        
   3078 ****        99.7500 260.0000 360.5000 Du        
   3079 ****        99.7500 260.0000 360.7500 Du        
   3080 ****        99.7500 260.0000 361.0000 Du        
   3081 ****        99.7500 260.0000 361.2500 Du        
   3082 ****        99.7500 260.2500 360.2500 Du        
   3083 ****        99.7500 260.2500 360.5000 Du        
   3084 ****        99.7500 260.2500 360.7500 Du        
   3085 ****        99.7500 260.2500 361.0000 Du        
   3086 ****        99.7500 260.2500 361.2500 Du        
   3087 ****        99.7500 260.5000 360.0000 Du        
   3088 ****        99.7500 260.5000 360.2500 Du        
   3089 ****        99.7500 260.5000 360.5000 Du        
   3090 ****        99.7500 260.5000 360.7500 Du        
   3091 ****        99.7500 260.7500 358.7500 Du        
   3092 ****        99.7500 260.7500 359.0000 Du        
   3093 ****        99.7500 260.7500 359.2500 Du        
   3094 ****        99.7500 260.7500 359.5000 Du        
   3095 ****        99.7500 260.7500 359.7500 Du        
   3096 ****        99.7500 260.7500 360.0000 Du        
   3097 ****        99.7500 260.7500 360.2500 Du        
   3098 ****        99.7500 261.0000 358.2500 Du        
   3099 ****        99.7500 261.0000 358.5000 Du        
   3100 ****        99.7500 261.0000 358.7500 Du        
   3101 ****        99.7500 261.0000 359.0000 Du        
   3102 ****        99.7500 261.0000 359.2500 Du        
   3103 ****        99.7500 261.0000 359.5000 Du        
   3104 ****        99.7500 261.0000 359.7500 Du        
   3105 ****        99.7500 261.0000 360.0000 Du        
   3106 ****        99.7500 261.2500 358.2500 Du        
   3107 ****        99.7500 261.2500 358.5000 Du        
   3108 ****        99.7500 261.2500 358.7500 Du        
   3109 ****        99.7500 261.2500 359.0000 Du        
   3110 ****        99.7500 261.2500 359.2500 Du        
   3111 ****        99.7500 261.2500 359.5000 Du        
   3112 ****        99.7500 261.2500 359.7500 Du        
   3113 ****        99.7500 261.5000 358.2500 Du        
   3114 ****        99.7500 261.5000 358.5000 Du        
   3115 ****        99.7500 261.5000 358.7500 Du        
   3116 ****        99.7500 261.5000 359.0000 Du        
   3117 ****        99.7500 261.5000 359.2500 Du        
   3118 ****        99.7500 261.5000 359.5000 Du        
   3119 ****        99.7500 261.7500 358.0000 Du        
   3120 ****        99.7500 261.7500 358.2500 Du        
   3121 ****        99.7500 261.7500 358.5000 Du        
   3122 ****        99.7500 261.7500 358.7500 Du        
   3123 ****        99.7500 261.7500 359.0000 Du        
   3124 ****        99.7500 261.7500 359.2500 Du        
   3125 ****        99.7500 262.0000 358.0000 Du        
   3126 ****        99.7500 262.0000 358.2500 Du        
   3127 ****        99.7500 262.0000 358.5000 Du        
   3128 ****        99.7500 262.0000 358.7500 Du        
   3129 ****        99.7500 262.0000 359.0000 Du        
   3130 ****        99.7500 262.0000 359.2500 Du        
   3131 ****        99.7500 262.2500 358.0000 Du        
   3132 ****        99.7500 262.2500 358.2500 Du        
   3133 ****        99.7500 262.2500 358.5000 Du        
   3134 ****        99.7500 262.2500 358.7500 Du        
   3135 ****        99.7500 262.2500 359.0000 Du        
   3136 ****        99.7500 262.5000 358.2500 Du        
   3137 ****        99.7500 262.5000 358.5000 Du        
   3138 ****        99.7500 262.5000 358.7500 Du        
   3139 ****        99.7500 262.5000 359.0000 Du        
   3140 ****        99.7500 262.7500 358.5000 Du        
   3141 ****        99.7500 262.7500 358.7500 Du        
   3142 ****        99.7500 262.7500 359.0000 Du        
   3143 ****        99.7500 266.5000 360.0000 Du        
   3144 ****        99.7500 266.5000 360.2500 Du        
   3145 ****        99.7500 266.7500 360.0000 Du        
   3146 ****        99.7500 266.7500 360.2500 Du        
   3147 ****        99.7500 266.7500 360.5000 Du        
   3148 ****        99.7500 267.0000 360.0000 Du        
   3149 ****        99.7500 267.0000 360.2500 Du        
   3150 ****        99.7500 267.0000 360.5000 Du        
   3151 ****        99.7500 267.0000 360.7500 Du        
   3152 ****        99.7500 267.0000 361.0000 Du        
   3153 ****        99.7500 267.2500 360.0000 Du        
   3154 ****        99.7500 267.2500 360.2500 Du        
   3155 ****        99.7500 267.2500 360.5000 Du        
   3156 ****        99.7500 267.2500 360.7500 Du        
   3157 ****        99.7500 267.2500 361.0000 Du        
   3158 ****        99.7500 267.2500 361.2500 Du        
   3159 ****        99.7500 267.5000 360.0000 Du        
   3160 ****        99.7500 267.5000 360.2500 Du        
   3161 ****        99.7500 267.5000 360.5000 Du        
   3162 ****        99.7500 267.5000 360.7500 Du        
   3163 ****        99.7500 267.5000 361.0000 Du        
   3164 ****        99.7500 267.5000 361.2500 Du        
   3165 ****        99.7500 267.5000 361.5000 Du        
   3166 ****        99.7500 267.7500 359.7500 Du        
   3167 ****        99.7500 267.7500 360.0000 Du        
   3168 ****        99.7500 267.7500 360.2500 Du        
   3169 ****        99.7500 267.7500 360.5000 Du        
   3170 ****        99.7500 267.7500 360.7500 Du        
   3171 ****        99.7500 267.7500 361.0000 Du        
   3172 ****        99.7500 267.7500 361.2500 Du        
   3173 ****        99.7500 267.7500 361.5000 Du        
   3174 ****        99.7500 268.0000 359.7500 Du        
   3175 ****        99.7500 268.0000 360.0000 Du        
   3176 ****        99.7500 268.0000 360.2500 Du        
   3177 ****        99.7500 268.0000 360.5000 Du        
   3178 ****        99.7500 268.0000 360.7500 Du        
   3179 ****        99.7500 268.0000 361.0000 Du        
   3180 ****        99.7500 268.0000 361.2500 Du        
   3181 ****        99.7500 268.0000 361.5000 Du        
   3182 ****        99.7500 268.2500 359.7500 Du        
   3183 ****        99.7500 268.2500 360.0000 Du        
   3184 ****        99.7500 268.2500 360.2500 Du        
   3185 ****        99.7500 268.2500 360.5000 Du        
   3186 ****        99.7500 268.2500 360.7500 Du        
   3187 ****        99.7500 268.2500 361.0000 Du        
   3188 ****        99.7500 268.2500 361.2500 Du        
   3189 ****        99.7500 268.2500 361.5000 Du        
   3190 ****        99.7500 268.5000 360.0000 Du        
   3191 ****        99.7500 268.5000 360.2500 Du        
   3192 ****        99.7500 268.5000 360.5000 Du        
   3193 ****        99.7500 268.5000 360.7500 Du        
   3194 ****        99.7500 268.5000 361.0000 Du        
   3195 ****        99.7500 268.5000 361.2500 Du        
   3196 ****        99.7500 268.5000 361.5000 Du        
   3197 ****        99.7500 268.7500 360.0000 Du        
   3198 ****        99.7500 268.7500 360.2500 Du        
   3199 ****        99.7500 268.7500 360.5000 Du        
   3200 ****        99.7500 268.7500 360.7500 Du        
   3201 ****        99.7500 268.7500 361.0000 Du        
   3202 ****        99.7500 268.7500 361.2500 Du        
   3203 ****        99.7500 269.0000 360.0000 Du        
   3204 ****        99.7500 269.0000 360.2500 Du        
   3205 ****        99.7500 269.0000 360.5000 Du        
   3206 ****        99.7500 269.0000 360.7500 Du        
   3207 ****        99.7500 269.0000 361.0000 Du        
   3208 ****        99.7500 269.0000 361.2500 Du        
   3209 ****        99.7500 269.2500 360.2500 Du        
   3210 ****        99.7500 269.2500 360.5000 Du        
   3211 ****        99.7500 269.2500 360.7500 Du        
   3212 ****        99.7500 269.2500 361.0000 Du        
   3213 ****        99.7500 269.2500 361.2500 Du        
   3214 ****        99.7500 269.5000 360.5000 Du        
   3215 ****        99.7500 269.5000 360.7500 Du        
   3216 ****        99.7500 269.5000 361.0000 Du        
   3217 ****        99.7500 269.7500 360.5000 Du        
   3218 ****        99.7500 269.7500 360.7500 Du        
   3219 ****        99.7500 269.7500 361.0000 Du        
   3220 ****       100.0000 259.5000 360.7500 Du        
   3221 ****       100.0000 259.5000 361.0000 Du        
   3222 ****       100.0000 259.5000 361.2500 Du        
   3223 ****       100.0000 259.7500 360.7500 Du        
   3224 ****       100.0000 259.7500 361.0000 Du        
   3225 ****       100.0000 259.7500 361.2500 Du        
   3226 ****       100.0000 260.0000 360.5000 Du        
   3227 ****       100.0000 260.0000 360.7500 Du        
   3228 ****       100.0000 260.0000 361.0000 Du        
   3229 ****       100.0000 260.0000 361.2500 Du        
   3230 ****       100.0000 260.2500 360.5000 Du        
   3231 ****       100.0000 260.2500 360.7500 Du        
   3232 ****       100.0000 260.2500 361.0000 Du        
   3233 ****       100.0000 260.5000 360.5000 Du        
   3234 ****       100.0000 261.0000 358.5000 Du        
   3235 ****       100.0000 261.0000 358.7500 Du        
   3236 ****       100.0000 261.0000 359.0000 Du        
   3237 ****       100.0000 261.0000 359.2500 Du        
   3238 ****       100.0000 261.0000 359.5000 Du        
   3239 ****       100.0000 261.0000 359.7500 Du        
   3240 ****       100.0000 261.2500 358.2500 Du        
   3241 ****       100.0000 261.2500 358.5000 Du        
   3242 ****       100.0000 261.2500 358.7500 Du        
   3243 ****       100.0000 261.2500 359.0000 Du        
   3244 ****       100.0000 261.2500 359.2500 Du        
   3245 ****       100.0000 261.2500 359.5000 Du        
   3246 ****       100.0000 261.5000 358.2500 Du        
   3247 ****       100.0000 261.5000 358.5000 Du        
   3248 ****       100.0000 261.5000 358.7500 Du        
   3249 ****       100.0000 261.5000 359.0000 Du        
   3250 ****       100.0000 261.5000 359.2500 Du        
   3251 ****       100.0000 261.5000 359.5000 Du        
   3252 ****       100.0000 261.7500 358.0000 Du        
   3253 ****       100.0000 261.7500 358.2500 Du        
   3254 ****       100.0000 261.7500 358.5000 Du        
   3255 ****       100.0000 261.7500 358.7500 Du        
   3256 ****       100.0000 261.7500 359.0000 Du        
   3257 ****       100.0000 261.7500 359.2500 Du        
   3258 ****       100.0000 262.0000 358.0000 Du        
   3259 ****       100.0000 262.0000 358.2500 Du        
   3260 ****       100.0000 262.0000 358.5000 Du        
   3261 ****       100.0000 262.0000 358.7500 Du        
   3262 ****       100.0000 262.0000 359.0000 Du        
   3263 ****       100.0000 262.0000 359.2500 Du        
   3264 ****       100.0000 262.2500 358.0000 Du        
   3265 ****       100.0000 262.2500 358.2500 Du        
   3266 ****       100.0000 262.2500 358.5000 Du        
   3267 ****       100.0000 262.2500 358.7500 Du        
   3268 ****       100.0000 262.2500 359.0000 Du        
   3269 ****       100.0000 262.2500 359.2500 Du        
   3270 ****       100.0000 262.5000 358.0000 Du        
   3271 ****       100.0000 262.5000 358.2500 Du        
   3272 ****       100.0000 262.5000 358.5000 Du        
   3273 ****       100.0000 262.5000 358.7500 Du        
   3274 ****       100.0000 262.5000 359.0000 Du        
   3275 ****       100.0000 262.7500 358.2500 Du        
   3276 ****       100.0000 262.7500 358.5000 Du        
   3277 ****       100.0000 262.7500 358.7500 Du        
   3278 ****       100.0000 262.7500 359.0000 Du        
   3279 ****       100.0000 263.0000 358.5000 Du        
   3280 ****       100.0000 263.0000 358.7500 Du        
   3281 ****       100.0000 263.0000 359.0000 Du        
   3282 ****       100.0000 266.5000 360.0000 Du        
   3283 ****       100.0000 266.5000 360.2500 Du        
   3284 ****       100.0000 266.7500 360.0000 Du        
   3285 ****       100.0000 266.7500 360.2500 Du        
   3286 ****       100.0000 266.7500 360.5000 Du        
   3287 ****       100.0000 267.0000 360.0000 Du        
   3288 ****       100.0000 267.0000 360.2500 Du        
   3289 ****       100.0000 267.0000 360.5000 Du        
   3290 ****       100.0000 267.0000 360.7500 Du        
   3291 ****       100.0000 267.2500 359.7500 Du        
   3292 ****       100.0000 267.2500 360.0000 Du        
   3293 ****       100.0000 267.2500 360.2500 Du        
   3294 ****       100.0000 267.2500 360.5000 Du        
   3295 ****       100.0000 267.2500 360.7500 Du        
   3296 ****       100.0000 267.2500 361.0000 Du        
   3297 ****       100.0000 267.5000 359.7500 Du        
   3298 ****       100.0000 267.5000 360.0000 Du        
   3299 ****       100.0000 267.5000 360.2500 Du        
   3300 ****       100.0000 267.5000 360.5000 Du        
   3301 ****       100.0000 267.5000 360.7500 Du        
   3302 ****       100.0000 267.5000 361.0000 Du        
   3303 ****       100.0000 267.5000 361.2500 Du        
   3304 ****       100.0000 267.7500 359.7500 Du        
   3305 ****       100.0000 267.7500 360.0000 Du        
   3306 ****       100.0000 267.7500 360.2500 Du        
   3307 ****       100.0000 267.7500 360.5000 Du        
   3308 ****       100.0000 267.7500 360.7500 Du        
   3309 ****       100.0000 267.7500 361.0000 Du        
   3310 ****       100.0000 267.7500 361.2500 Du        
   3311 ****       100.0000 267.7500 361.5000 Du        
   3312 ****       100.0000 268.0000 359.7500 Du        
   3313 ****       100.0000 268.0000 360.0000 Du        
   3314 ****       100.0000 268.0000 360.2500 Du        
   3315 ****       100.0000 268.0000 360.5000 Du        
   3316 ****       100.0000 268.0000 360.7500 Du        
   3317 ****       100.0000 268.0000 361.0000 Du        
   3318 ****       100.0000 268.0000 361.2500 Du        
   3319 ****       100.0000 268.0000 361.5000 Du        
   3320 ****       100.0000 268.2500 359.7500 Du        
   3321 ****       100.0000 268.2500 360.0000 Du        
   3322 ****       100.0000 268.2500 360.2500 Du        
   3323 ****       100.0000 268.2500 360.5000 Du        
   3324 ****       100.0000 268.2500 360.7500 Du        
   3325 ****       100.0000 268.2500 361.0000 Du        
   3326 ****       100.0000 268.2500 361.2500 Du        
   3327 ****       100.0000 268.2500 361.5000 Du        
   3328 ****       100.0000 268.5000 359.7500 Du        
   3329 ****       100.0000 268.5000 360.0000 Du        
   3330 ****       100.0000 268.5000 360.2500 Du        
   3331 ****       100.0000 268.5000 360.5000 Du        
   3332 ****       100.0000 268.5000 360.7500 Du        
   3333 ****       100.0000 268.5000 361.0000 Du        
   3334 ****       100.0000 268.5000 361.2500 Du        
   3335 ****       100.0000 268.7500 360.0000 Du        
   3336 ****       100.0000 268.7500 360.2500 Du        
   3337 ****       100.0000 268.7500 360.5000 Du        
   3338 ****       100.0000 268.7500 360.7500 Du        
   3339 ****       100.0000 268.7500 361.0000 Du        
   3340 ****       100.0000 268.7500 361.2500 Du        
   3341 ****       100.0000 269.0000 360.5000 Du        
   3342 ****       100.0000 269.0000 360.7500 Du        
   3343 ****       100.0000 269.0000 361.0000 Du        
   3344 ****       100.2500 259.7500 361.0000 Du        
   3345 ****       100.2500 260.0000 360.7500 Du        
   3346 ****       100.2500 260.0000 361.0000 Du        
   3347 ****       100.2500 260.2500 360.7500 Du        
   3348 ****       100.2500 261.0000 359.2500 Du        
   3349 ****       100.2500 261.2500 358.5000 Du        
   3350 ****       100.2500 261.2500 358.7500 Du        
   3351 ****       100.2500 261.2500 359.0000 Du        
   3352 ****       100.2500 261.2500 359.2500 Du        
   3353 ****       100.2500 261.5000 358.2500 Du        
   3354 ****       100.2500 261.5000 358.5000 Du        
   3355 ****       100.2500 261.5000 358.7500 Du        
   3356 ****       100.2500 261.5000 359.0000 Du        
   3357 ****       100.2500 261.5000 359.2500 Du        
   3358 ****       100.2500 261.7500 358.0000 Du        
   3359 ****       100.2500 261.7500 358.2500 Du        
   3360 ****       100.2500 261.7500 358.5000 Du        
   3361 ****       100.2500 261.7500 358.7500 Du        
   3362 ****       100.2500 261.7500 359.0000 Du        
   3363 ****       100.2500 261.7500 359.2500 Du        
   3364 ****       100.2500 262.0000 358.0000 Du        
   3365 ****       100.2500 262.0000 358.2500 Du        
   3366 ****       100.2500 262.0000 358.5000 Du        
   3367 ****       100.2500 262.0000 358.7500 Du        
   3368 ****       100.2500 262.0000 359.0000 Du        
   3369 ****       100.2500 262.0000 359.2500 Du        
   3370 ****       100.2500 262.2500 358.0000 Du        
   3371 ****       100.2500 262.2500 358.2500 Du        
   3372 ****       100.2500 262.2500 358.5000 Du        
   3373 ****       100.2500 262.2500 358.7500 Du        
   3374 ****       100.2500 262.2500 359.0000 Du        
   3375 ****       100.2500 262.2500 359.2500 Du        
   3376 ****       100.2500 262.5000 358.0000 Du        
   3377 ****       100.2500 262.5000 358.2500 Du        
   3378 ****       100.2500 262.5000 358.5000 Du        
   3379 ****       100.2500 262.5000 358.7500 Du        
   3380 ****       100.2500 262.5000 359.0000 Du        
   3381 ****       100.2500 262.7500 358.2500 Du        
   3382 ****       100.2500 262.7500 358.5000 Du        
   3383 ****       100.2500 262.7500 358.7500 Du        
   3384 ****       100.2500 262.7500 359.0000 Du        
   3385 ****       100.2500 263.0000 358.5000 Du        
   3386 ****       100.2500 263.0000 358.7500 Du        
   3387 ****       100.2500 263.0000 359.0000 Du        
   3388 ****       100.2500 263.2500 358.7500 Du        
   3389 ****       100.2500 266.5000 360.0000 Du        
   3390 ****       100.2500 266.5000 360.2500 Du        
   3391 ****       100.2500 266.7500 360.0000 Du        
   3392 ****       100.2500 266.7500 360.2500 Du        
   3393 ****       100.2500 266.7500 360.5000 Du        
   3394 ****       100.2500 267.0000 359.7500 Du        
   3395 ****       100.2500 267.0000 360.0000 Du        
   3396 ****       100.2500 267.0000 360.2500 Du        
   3397 ****       100.2500 267.0000 360.5000 Du        
   3398 ****       100.2500 267.0000 360.7500 Du        
   3399 ****       100.2500 267.2500 359.7500 Du        
   3400 ****       100.2500 267.2500 360.0000 Du        
   3401 ****       100.2500 267.2500 360.2500 Du        
   3402 ****       100.2500 267.2500 360.5000 Du        
   3403 ****       100.2500 267.2500 360.7500 Du        
   3404 ****       100.2500 267.2500 361.0000 Du        
   3405 ****       100.2500 267.5000 359.7500 Du        
   3406 ****       100.2500 267.5000 360.0000 Du        
   3407 ****       100.2500 267.5000 360.2500 Du        
   3408 ****       100.2500 267.5000 360.5000 Du        
   3409 ****       100.2500 267.5000 360.7500 Du        
   3410 ****       100.2500 267.5000 361.0000 Du        
   3411 ****       100.2500 267.7500 359.7500 Du        
   3412 ****       100.2500 267.7500 360.0000 Du        
   3413 ****       100.2500 267.7500 360.2500 Du        
   3414 ****       100.2500 267.7500 360.5000 Du        
   3415 ****       100.2500 267.7500 360.7500 Du        
   3416 ****       100.2500 267.7500 361.0000 Du        
   3417 ****       100.2500 267.7500 361.2500 Du        
   3418 ****       100.2500 268.0000 359.7500 Du        
   3419 ****       100.2500 268.0000 360.0000 Du        
   3420 ****       100.2500 268.0000 360.2500 Du        
   3421 ****       100.2500 268.0000 360.5000 Du        
   3422 ****       100.2500 268.0000 360.7500 Du        
   3423 ****       100.2500 268.0000 361.0000 Du        
   3424 ****       100.2500 268.0000 361.2500 Du        
   3425 ****       100.2500 268.2500 359.7500 Du        
   3426 ****       100.2500 268.2500 360.0000 Du        
   3427 ****       100.2500 268.2500 360.2500 Du        
   3428 ****       100.2500 268.2500 360.5000 Du        
   3429 ****       100.2500 268.2500 360.7500 Du        
   3430 ****       100.2500 268.2500 361.0000 Du        
   3431 ****       100.5000 261.2500 358.5000 Du        
   3432 ****       100.5000 261.2500 358.7500 Du        
   3433 ****       100.5000 261.2500 359.0000 Du        
   3434 ****       100.5000 261.2500 359.2500 Du        
   3435 ****       100.5000 261.5000 358.2500 Du        
   3436 ****       100.5000 261.5000 358.5000 Du        
   3437 ****       100.5000 261.5000 358.7500 Du        
   3438 ****       100.5000 261.5000 359.0000 Du        
   3439 ****       100.5000 261.5000 359.2500 Du        
   3440 ****       100.5000 261.7500 358.0000 Du        
   3441 ****       100.5000 261.7500 358.2500 Du        
   3442 ****       100.5000 261.7500 358.5000 Du        
   3443 ****       100.5000 261.7500 358.7500 Du        
   3444 ****       100.5000 261.7500 359.0000 Du        
   3445 ****       100.5000 261.7500 359.2500 Du        
   3446 ****       100.5000 262.0000 358.0000 Du        
   3447 ****       100.5000 262.0000 358.2500 Du        
   3448 ****       100.5000 262.0000 358.5000 Du        
   3449 ****       100.5000 262.0000 358.7500 Du        
   3450 ****       100.5000 262.0000 359.0000 Du        
   3451 ****       100.5000 262.0000 359.2500 Du        
   3452 ****       100.5000 262.2500 357.7500 Du        
   3453 ****       100.5000 262.2500 358.0000 Du        
   3454 ****       100.5000 262.2500 358.2500 Du        
   3455 ****       100.5000 262.2500 358.5000 Du        
   3456 ****       100.5000 262.2500 358.7500 Du        
   3457 ****       100.5000 262.2500 359.0000 Du        
   3458 ****       100.5000 262.2500 359.2500 Du        
   3459 ****       100.5000 262.5000 358.0000 Du        
   3460 ****       100.5000 262.5000 358.2500 Du        
   3461 ****       100.5000 262.5000 358.5000 Du        
   3462 ****       100.5000 262.5000 358.7500 Du        
   3463 ****       100.5000 262.5000 359.0000 Du        
   3464 ****       100.5000 262.7500 358.0000 Du        
   3465 ****       100.5000 262.7500 358.2500 Du        
   3466 ****       100.5000 262.7500 358.5000 Du        
   3467 ****       100.5000 262.7500 358.7500 Du        
   3468 ****       100.5000 262.7500 359.0000 Du        
   3469 ****       100.5000 263.0000 358.2500 Du        
   3470 ****       100.5000 263.0000 358.5000 Du        
   3471 ****       100.5000 263.0000 358.7500 Du        
   3472 ****       100.5000 263.0000 359.0000 Du        
   3473 ****       100.5000 263.2500 358.5000 Du        
   3474 ****       100.5000 263.2500 358.7500 Du        
   3475 ****       100.5000 263.2500 359.0000 Du        
   3476 ****       100.5000 266.2500 360.0000 Du        
   3477 ****       100.5000 266.5000 360.0000 Du        
   3478 ****       100.5000 266.5000 360.2500 Du        
   3479 ****       100.5000 266.7500 360.0000 Du        
   3480 ****       100.5000 266.7500 360.2500 Du        
   3481 ****       100.5000 266.7500 360.5000 Du        
   3482 ****       100.5000 267.0000 359.7500 Du        
   3483 ****       100.5000 267.0000 360.0000 Du        
   3484 ****       100.5000 267.0000 360.2500 Du        
   3485 ****       100.5000 267.0000 360.5000 Du        
   3486 ****       100.5000 267.0000 360.7500 Du        
   3487 ****       100.5000 267.2500 359.7500 Du        
   3488 ****       100.5000 267.2500 360.0000 Du        
   3489 ****       100.5000 267.2500 360.2500 Du        
   3490 ****       100.5000 267.2500 360.5000 Du        
   3491 ****       100.5000 267.2500 360.7500 Du        
   3492 ****       100.5000 267.5000 359.7500 Du        
   3493 ****       100.5000 267.5000 360.0000 Du        
   3494 ****       100.5000 267.5000 360.2500 Du        
   3495 ****       100.5000 267.5000 360.5000 Du        
   3496 ****       100.5000 267.5000 360.7500 Du        
   3497 ****       100.5000 267.5000 361.0000 Du        
   3498 ****       100.5000 267.7500 359.7500 Du        
   3499 ****       100.5000 267.7500 360.0000 Du        
   3500 ****       100.5000 267.7500 360.2500 Du        
   3501 ****       100.5000 267.7500 360.5000 Du        
   3502 ****       100.5000 267.7500 360.7500 Du        
   3503 ****       100.5000 267.7500 361.0000 Du        
   3504 ****       100.5000 268.0000 359.7500 Du        
   3505 ****       100.5000 268.0000 360.0000 Du        
   3506 ****       100.5000 268.0000 360.2500 Du        
   3507 ****       100.5000 268.0000 360.5000 Du        
   3508 ****       100.7500 261.2500 358.7500 Du        
   3509 ****       100.7500 261.2500 359.0000 Du        
   3510 ****       100.7500 261.5000 358.2500 Du        
   3511 ****       100.7500 261.5000 358.5000 Du        
   3512 ****       100.7500 261.5000 358.7500 Du        
   3513 ****       100.7500 261.5000 359.0000 Du        
   3514 ****       100.7500 261.5000 359.2500 Du        
   3515 ****       100.7500 261.7500 358.0000 Du        
   3516 ****       100.7500 261.7500 358.2500 Du        
   3517 ****       100.7500 261.7500 358.5000 Du        
   3518 ****       100.7500 261.7500 358.7500 Du        
   3519 ****       100.7500 261.7500 359.0000 Du        
   3520 ****       100.7500 261.7500 359.2500 Du        
   3521 ****       100.7500 262.0000 358.0000 Du        
   3522 ****       100.7500 262.0000 358.2500 Du        
   3523 ****       100.7500 262.0000 358.5000 Du        
   3524 ****       100.7500 262.0000 358.7500 Du        
   3525 ****       100.7500 262.0000 359.0000 Du        
   3526 ****       100.7500 262.0000 359.2500 Du        
   3527 ****       100.7500 262.2500 357.7500 Du        
   3528 ****       100.7500 262.2500 358.0000 Du        
   3529 ****       100.7500 262.2500 358.2500 Du        
   3530 ****       100.7500 262.2500 358.5000 Du        
   3531 ****       100.7500 262.2500 358.7500 Du        
   3532 ****       100.7500 262.2500 359.0000 Du        
   3533 ****       100.7500 262.2500 359.2500 Du        
   3534 ****       100.7500 262.5000 357.7500 Du        
   3535 ****       100.7500 262.5000 358.0000 Du        
   3536 ****       100.7500 262.5000 358.2500 Du        
   3537 ****       100.7500 262.5000 358.5000 Du        
   3538 ****       100.7500 262.5000 358.7500 Du        
   3539 ****       100.7500 262.5000 359.0000 Du        
   3540 ****       100.7500 262.5000 359.2500 Du        
   3541 ****       100.7500 262.7500 358.0000 Du        
   3542 ****       100.7500 262.7500 358.2500 Du        
   3543 ****       100.7500 262.7500 358.5000 Du        
   3544 ****       100.7500 262.7500 358.7500 Du        
   3545 ****       100.7500 262.7500 359.0000 Du        
   3546 ****       100.7500 263.0000 358.2500 Du        
   3547 ****       100.7500 263.0000 358.5000 Du        
   3548 ****       100.7500 263.0000 358.7500 Du        
   3549 ****       100.7500 263.0000 359.0000 Du        
   3550 ****       100.7500 263.2500 358.2500 Du        
   3551 ****       100.7500 263.2500 358.5000 Du        
   3552 ****       100.7500 263.2500 358.7500 Du        
   3553 ****       100.7500 263.2500 359.0000 Du        
   3554 ****       100.7500 263.5000 358.7500 Du        
   3555 ****       100.7500 263.5000 359.0000 Du        
   3556 ****       100.7500 266.2500 360.0000 Du        
   3557 ****       100.7500 266.5000 360.0000 Du        
   3558 ****       100.7500 266.7500 359.7500 Du        
   3559 ****       100.7500 266.7500 360.0000 Du        
   3560 ****       100.7500 266.7500 360.2500 Du        
   3561 ****       100.7500 267.0000 359.7500 Du        
   3562 ****       100.7500 267.0000 360.0000 Du        
   3563 ****       100.7500 267.0000 360.2500 Du        
   3564 ****       100.7500 267.0000 360.5000 Du        
   3565 ****       100.7500 267.2500 359.7500 Du        
   3566 ****       100.7500 267.2500 360.0000 Du        
   3567 ****       100.7500 267.2500 360.2500 Du        
   3568 ****       100.7500 267.2500 360.5000 Du        
   3569 ****       100.7500 267.2500 360.7500 Du        
   3570 ****       100.7500 267.5000 359.7500 Du        
   3571 ****       100.7500 267.5000 360.0000 Du        
   3572 ****       100.7500 267.5000 360.2500 Du        
   3573 ****       100.7500 267.5000 360.5000 Du        
   3574 ****       100.7500 267.7500 359.7500 Du        
   3575 ****       100.7500 267.7500 360.0000 Du        
   3576 ****       100.7500 267.7500 360.2500 Du        
   3577 ****       101.0000 261.5000 358.2500 Du        
   3578 ****       101.0000 261.5000 358.5000 Du        
   3579 ****       101.0000 261.5000 358.7500 Du        
   3580 ****       101.0000 261.5000 359.0000 Du        
   3581 ****       101.0000 261.5000 359.2500 Du        
   3582 ****       101.0000 261.7500 358.0000 Du        
   3583 ****       101.0000 261.7500 358.2500 Du        
   3584 ****       101.0000 261.7500 358.5000 Du        
   3585 ****       101.0000 261.7500 358.7500 Du        
   3586 ****       101.0000 261.7500 359.0000 Du        
   3587 ****       101.0000 261.7500 359.2500 Du        
   3588 ****       101.0000 262.0000 358.0000 Du        
   3589 ****       101.0000 262.0000 358.2500 Du        
   3590 ****       101.0000 262.0000 358.5000 Du        
   3591 ****       101.0000 262.0000 358.7500 Du        
   3592 ****       101.0000 262.0000 359.0000 Du        
   3593 ****       101.0000 262.0000 359.2500 Du        
   3594 ****       101.0000 262.2500 357.7500 Du        
   3595 ****       101.0000 262.2500 358.0000 Du        
   3596 ****       101.0000 262.2500 358.2500 Du        
   3597 ****       101.0000 262.2500 358.5000 Du        
   3598 ****       101.0000 262.2500 358.7500 Du        
   3599 ****       101.0000 262.2500 359.0000 Du        
   3600 ****       101.0000 262.2500 359.2500 Du        
   3601 ****       101.0000 262.5000 357.7500 Du        
   3602 ****       101.0000 262.5000 358.0000 Du        
   3603 ****       101.0000 262.5000 358.2500 Du        
   3604 ****       101.0000 262.5000 358.5000 Du        
   3605 ****       101.0000 262.5000 358.7500 Du        
   3606 ****       101.0000 262.5000 359.0000 Du        
   3607 ****       101.0000 262.5000 359.2500 Du        
   3608 ****       101.0000 262.7500 358.0000 Du        
   3609 ****       101.0000 262.7500 358.2500 Du        
   3610 ****       101.0000 262.7500 358.5000 Du        
   3611 ****       101.0000 262.7500 358.7500 Du        
   3612 ****       101.0000 262.7500 359.0000 Du        
   3613 ****       101.0000 262.7500 359.2500 Du        
   3614 ****       101.0000 263.0000 358.0000 Du        
   3615 ****       101.0000 263.0000 358.2500 Du        
   3616 ****       101.0000 263.0000 358.5000 Du        
   3617 ****       101.0000 263.0000 358.7500 Du        
   3618 ****       101.0000 263.0000 359.0000 Du        
   3619 ****       101.0000 263.2500 358.2500 Du        
   3620 ****       101.0000 263.2500 358.5000 Du        
   3621 ****       101.0000 263.2500 358.7500 Du        
   3622 ****       101.0000 263.2500 359.0000 Du        
   3623 ****       101.0000 263.5000 358.7500 Du        
   3624 ****       101.0000 263.5000 359.0000 Du        
   3625 ****       101.0000 263.7500 359.0000 Du        
   3626 ****       101.0000 266.5000 360.0000 Du        
   3627 ****       101.0000 266.7500 359.7500 Du        
   3628 ****       101.0000 266.7500 360.0000 Du        
   3629 ****       101.0000 266.7500 360.2500 Du        
   3630 ****       101.0000 267.0000 359.7500 Du        
   3631 ****       101.0000 267.0000 360.0000 Du        
   3632 ****       101.0000 267.0000 360.2500 Du        
   3633 ****       101.0000 267.0000 360.5000 Du        
   3634 ****       101.0000 267.2500 359.7500 Du        
   3635 ****       101.0000 267.2500 360.0000 Du        
   3636 ****       101.0000 267.2500 360.2500 Du        
   3637 ****       101.0000 267.5000 359.7500 Du        
   3638 ****       101.0000 267.5000 360.0000 Du        
   3639 ****       101.2500 261.5000 358.2500 Du        
   3640 ****       101.2500 261.5000 358.5000 Du        
   3641 ****       101.2500 261.5000 358.7500 Du        
   3642 ****       101.2500 261.5000 359.0000 Du        
   3643 ****       101.2500 261.5000 359.2500 Du        
   3644 ****       101.2500 261.7500 358.0000 Du        
   3645 ****       101.2500 261.7500 358.2500 Du        
   3646 ****       101.2500 261.7500 358.5000 Du        
   3647 ****       101.2500 261.7500 358.7500 Du        
   3648 ****       101.2500 261.7500 359.0000 Du        
   3649 ****       101.2500 261.7500 359.2500 Du        
   3650 ****       101.2500 262.0000 357.7500 Du        
   3651 ****       101.2500 262.0000 358.0000 Du        
   3652 ****       101.2500 262.0000 358.2500 Du        
   3653 ****       101.2500 262.0000 358.5000 Du        
   3654 ****       101.2500 262.0000 358.7500 Du        
   3655 ****       101.2500 262.0000 359.0000 Du        
   3656 ****       101.2500 262.0000 359.2500 Du        
   3657 ****       101.2500 262.2500 357.7500 Du        
   3658 ****       101.2500 262.2500 358.0000 Du        
   3659 ****       101.2500 262.2500 358.2500 Du        
   3660 ****       101.2500 262.2500 358.5000 Du        
   3661 ****       101.2500 262.2500 358.7500 Du        
   3662 ****       101.2500 262.2500 359.0000 Du        
   3663 ****       101.2500 262.2500 359.2500 Du        
   3664 ****       101.2500 262.5000 357.7500 Du        
   3665 ****       101.2500 262.5000 358.0000 Du        
   3666 ****       101.2500 262.5000 358.2500 Du        
   3667 ****       101.2500 262.5000 358.5000 Du        
   3668 ****       101.2500 262.5000 358.7500 Du        
   3669 ****       101.2500 262.5000 359.0000 Du        
   3670 ****       101.2500 262.5000 359.2500 Du        
   3671 ****       101.2500 262.7500 357.7500 Du        
   3672 ****       101.2500 262.7500 358.0000 Du        
   3673 ****       101.2500 262.7500 358.2500 Du        
   3674 ****       101.2500 262.7500 358.5000 Du        
   3675 ****       101.2500 262.7500 358.7500 Du        
   3676 ****       101.2500 262.7500 359.0000 Du        
   3677 ****       101.2500 262.7500 359.2500 Du        
   3678 ****       101.2500 263.0000 358.0000 Du        
   3679 ****       101.2500 263.0000 358.2500 Du        
   3680 ****       101.2500 263.0000 358.5000 Du        
   3681 ****       101.2500 263.0000 358.7500 Du        
   3682 ****       101.2500 263.0000 359.0000 Du        
   3683 ****       101.2500 263.2500 358.2500 Du        
   3684 ****       101.2500 263.2500 358.5000 Du        
   3685 ****       101.2500 263.2500 358.7500 Du        
   3686 ****       101.2500 263.2500 359.0000 Du        
   3687 ****       101.2500 263.5000 358.5000 Du        
   3688 ****       101.2500 263.5000 358.7500 Du        
   3689 ****       101.2500 263.5000 359.0000 Du        
   3690 ****       101.2500 263.7500 358.7500 Du        
   3691 ****       101.2500 263.7500 359.0000 Du        
   3692 ****       101.2500 266.5000 359.7500 Du        
   3693 ****       101.2500 266.5000 360.0000 Du        
   3694 ****       101.2500 266.7500 359.7500 Du        
   3695 ****       101.2500 266.7500 360.0000 Du        
   3696 ****       101.2500 267.0000 359.7500 Du        
   3697 ****       101.2500 267.0000 360.0000 Du        
   3698 ****       101.2500 267.2500 359.7500 Du        
   3699 ****       101.2500 267.2500 360.0000 Du        
   3700 ****       101.5000 261.5000 358.2500 Du        
   3701 ****       101.5000 261.5000 358.5000 Du        
   3702 ****       101.5000 261.5000 358.7500 Du        
   3703 ****       101.5000 261.5000 359.0000 Du        
   3704 ****       101.5000 261.7500 358.0000 Du        
   3705 ****       101.5000 261.7500 358.2500 Du        
   3706 ****       101.5000 261.7500 358.5000 Du        
   3707 ****       101.5000 261.7500 358.7500 Du        
   3708 ****       101.5000 261.7500 359.0000 Du        
   3709 ****       101.5000 261.7500 359.2500 Du        
   3710 ****       101.5000 261.7500 359.5000 Du        
   3711 ****       101.5000 262.0000 357.7500 Du        
   3712 ****       101.5000 262.0000 358.0000 Du        
   3713 ****       101.5000 262.0000 358.2500 Du        
   3714 ****       101.5000 262.0000 358.5000 Du        
   3715 ****       101.5000 262.0000 358.7500 Du        
   3716 ****       101.5000 262.0000 359.0000 Du        
   3717 ****       101.5000 262.0000 359.2500 Du        
   3718 ****       101.5000 262.2500 357.7500 Du        
   3719 ****       101.5000 262.2500 358.0000 Du        
   3720 ****       101.5000 262.2500 358.2500 Du        
   3721 ****       101.5000 262.2500 358.5000 Du        
   3722 ****       101.5000 262.2500 358.7500 Du        
   3723 ****       101.5000 262.2500 359.0000 Du        
   3724 ****       101.5000 262.2500 359.2500 Du        
   3725 ****       101.5000 262.5000 357.7500 Du        
   3726 ****       101.5000 262.5000 358.0000 Du        
   3727 ****       101.5000 262.5000 358.2500 Du        
   3728 ****       101.5000 262.5000 358.5000 Du        
   3729 ****       101.5000 262.5000 358.7500 Du        
   3730 ****       101.5000 262.5000 359.0000 Du        
   3731 ****       101.5000 262.5000 359.2500 Du        
   3732 ****       101.5000 262.7500 357.7500 Du        
   3733 ****       101.5000 262.7500 358.0000 Du        
   3734 ****       101.5000 262.7500 358.2500 Du        
   3735 ****       101.5000 262.7500 358.5000 Du        
   3736 ****       101.5000 262.7500 358.7500 Du        
   3737 ****       101.5000 262.7500 359.0000 Du        
   3738 ****       101.5000 262.7500 359.2500 Du        
   3739 ****       101.5000 263.0000 358.0000 Du        
   3740 ****       101.5000 263.0000 358.2500 Du        
   3741 ****       101.5000 263.0000 358.5000 Du        
   3742 ****       101.5000 263.0000 358.7500 Du        
   3743 ****       101.5000 263.0000 359.0000 Du        
   3744 ****       101.5000 263.0000 359.2500 Du        
   3745 ****       101.5000 263.2500 358.2500 Du        
   3746 ****       101.5000 263.2500 358.5000 Du        
   3747 ****       101.5000 263.2500 358.7500 Du        
   3748 ****       101.5000 263.2500 359.0000 Du        
   3749 ****       101.5000 263.5000 358.5000 Du        
   3750 ****       101.5000 263.5000 358.7500 Du        
   3751 ****       101.5000 263.5000 359.0000 Du        
   3752 ****       101.5000 263.7500 358.5000 Du        
   3753 ****       101.5000 263.7500 358.7500 Du        
   3754 ****       101.5000 263.7500 359.0000 Du        
   3755 ****       101.5000 264.0000 358.7500 Du        
   3756 ****       101.5000 264.0000 359.0000 Du        
   3757 ****       101.5000 266.2500 359.7500 Du        
   3758 ****       101.5000 266.5000 359.5000 Du        
   3759 ****       101.5000 266.5000 359.7500 Du        
   3760 ****       101.5000 266.5000 360.0000 Du        
   3761 ****       101.5000 266.7500 359.5000 Du        
   3762 ****       101.5000 266.7500 359.7500 Du        
   3763 ****       101.5000 266.7500 360.0000 Du        
   3764 ****       101.5000 267.0000 359.5000 Du        
   3765 ****       101.5000 267.0000 359.7500 Du        
   3766 ****       101.5000 267.0000 360.0000 Du        
   3767 ****       101.5000 267.2500 359.5000 Du        
   3768 ****       101.7500 261.5000 358.2500 Du        
   3769 ****       101.7500 261.5000 358.5000 Du        
   3770 ****       101.7500 261.5000 358.7500 Du        
   3771 ****       101.7500 261.7500 358.0000 Du        
   3772 ****       101.7500 261.7500 358.2500 Du        
   3773 ****       101.7500 261.7500 358.5000 Du        
   3774 ****       101.7500 261.7500 358.7500 Du        
   3775 ****       101.7500 261.7500 359.0000 Du        
   3776 ****       101.7500 261.7500 359.2500 Du        
   3777 ****       101.7500 261.7500 359.5000 Du        
   3778 ****       101.7500 262.0000 357.7500 Du        
   3779 ****       101.7500 262.0000 358.0000 Du        
   3780 ****       101.7500 262.0000 358.2500 Du        
   3781 ****       101.7500 262.0000 358.5000 Du        
   3782 ****       101.7500 262.0000 358.7500 Du        
   3783 ****       101.7500 262.0000 359.0000 Du        
   3784 ****       101.7500 262.0000 359.2500 Du        
   3785 ****       101.7500 262.0000 359.5000 Du        
   3786 ****       101.7500 262.2500 357.7500 Du        
   3787 ****       101.7500 262.2500 358.0000 Du        
   3788 ****       101.7500 262.2500 358.2500 Du        
   3789 ****       101.7500 262.2500 358.5000 Du        
   3790 ****       101.7500 262.2500 358.7500 Du        
   3791 ****       101.7500 262.2500 359.0000 Du        
   3792 ****       101.7500 262.2500 359.2500 Du        
   3793 ****       101.7500 262.5000 357.7500 Du        
   3794 ****       101.7500 262.5000 358.0000 Du        
   3795 ****       101.7500 262.5000 358.2500 Du        
   3796 ****       101.7500 262.5000 358.5000 Du        
   3797 ****       101.7500 262.5000 358.7500 Du        
   3798 ****       101.7500 262.5000 359.0000 Du        
   3799 ****       101.7500 262.5000 359.2500 Du        
   3800 ****       101.7500 262.7500 357.7500 Du        
   3801 ****       101.7500 262.7500 358.0000 Du        
   3802 ****       101.7500 262.7500 358.2500 Du        
   3803 ****       101.7500 262.7500 358.5000 Du        
   3804 ****       101.7500 262.7500 358.7500 Du        
   3805 ****       101.7500 262.7500 359.0000 Du        
   3806 ****       101.7500 262.7500 359.2500 Du        
   3807 ****       101.7500 263.0000 358.0000 Du        
   3808 ****       101.7500 263.0000 358.2500 Du        
   3809 ****       101.7500 263.0000 358.5000 Du        
   3810 ****       101.7500 263.0000 358.7500 Du        
   3811 ****       101.7500 263.0000 359.0000 Du        
   3812 ****       101.7500 263.0000 359.2500 Du        
   3813 ****       101.7500 263.2500 358.0000 Du        
   3814 ****       101.7500 263.2500 358.2500 Du        
   3815 ****       101.7500 263.2500 358.5000 Du        
   3816 ****       101.7500 263.2500 358.7500 Du        
   3817 ****       101.7500 263.2500 359.0000 Du        
   3818 ****       101.7500 263.5000 358.2500 Du        
   3819 ****       101.7500 263.5000 358.5000 Du        
   3820 ****       101.7500 263.5000 358.7500 Du        
   3821 ****       101.7500 263.5000 359.0000 Du        
   3822 ****       101.7500 263.7500 358.5000 Du        
   3823 ****       101.7500 263.7500 358.7500 Du        
   3824 ****       101.7500 263.7500 359.0000 Du        
   3825 ****       101.7500 264.0000 358.7500 Du        
   3826 ****       101.7500 264.0000 359.0000 Du        
   3827 ****       101.7500 264.2500 358.7500 Du        
   3828 ****       101.7500 264.2500 359.0000 Du        
   3829 ****       101.7500 266.2500 359.5000 Du        
   3830 ****       101.7500 266.2500 359.7500 Du        
   3831 ****       101.7500 266.5000 359.5000 Du        
   3832 ****       101.7500 266.5000 359.7500 Du        
   3833 ****       101.7500 266.7500 359.5000 Du        
   3834 ****       101.7500 266.7500 359.7500 Du        
   3835 ****       101.7500 267.0000 359.5000 Du        
   3836 ****       102.0000 261.5000 358.2500 Du        
   3837 ****       102.0000 261.5000 358.5000 Du        
   3838 ****       102.0000 261.7500 357.7500 Du        
   3839 ****       102.0000 261.7500 358.0000 Du        
   3840 ****       102.0000 261.7500 358.2500 Du        
   3841 ****       102.0000 261.7500 358.5000 Du        
   3842 ****       102.0000 261.7500 358.7500 Du        
   3843 ****       102.0000 261.7500 359.0000 Du        
   3844 ****       102.0000 261.7500 359.2500 Du        
   3845 ****       102.0000 261.7500 359.5000 Du        
   3846 ****       102.0000 262.0000 357.7500 Du        
   3847 ****       102.0000 262.0000 358.0000 Du        
   3848 ****       102.0000 262.0000 358.2500 Du        
   3849 ****       102.0000 262.0000 358.5000 Du        
   3850 ****       102.0000 262.0000 358.7500 Du        
   3851 ****       102.0000 262.0000 359.0000 Du        
   3852 ****       102.0000 262.0000 359.2500 Du        
   3853 ****       102.0000 262.0000 359.5000 Du        
   3854 ****       102.0000 262.2500 357.7500 Du        
   3855 ****       102.0000 262.2500 358.0000 Du        
   3856 ****       102.0000 262.2500 358.2500 Du        
   3857 ****       102.0000 262.2500 358.5000 Du        
   3858 ****       102.0000 262.2500 358.7500 Du        
   3859 ****       102.0000 262.2500 359.0000 Du        
   3860 ****       102.0000 262.2500 359.2500 Du        
   3861 ****       102.0000 262.5000 357.7500 Du        
   3862 ****       102.0000 262.5000 358.0000 Du        
   3863 ****       102.0000 262.5000 358.2500 Du        
   3864 ****       102.0000 262.5000 358.5000 Du        
   3865 ****       102.0000 262.5000 358.7500 Du        
   3866 ****       102.0000 262.5000 359.0000 Du        
   3867 ****       102.0000 262.5000 359.2500 Du        
   3868 ****       102.0000 262.7500 357.7500 Du        
   3869 ****       102.0000 262.7500 358.0000 Du        
   3870 ****       102.0000 262.7500 358.2500 Du        
   3871 ****       102.0000 262.7500 358.5000 Du        
   3872 ****       102.0000 262.7500 358.7500 Du        
   3873 ****       102.0000 262.7500 359.0000 Du        
   3874 ****       102.0000 262.7500 359.2500 Du        
   3875 ****       102.0000 263.0000 358.0000 Du        
   3876 ****       102.0000 263.0000 358.2500 Du        
   3877 ****       102.0000 263.0000 358.5000 Du        
   3878 ****       102.0000 263.0000 358.7500 Du        
   3879 ****       102.0000 263.0000 359.0000 Du        
   3880 ****       102.0000 263.0000 359.2500 Du        
   3881 ****       102.0000 263.2500 358.0000 Du        
   3882 ****       102.0000 263.2500 358.2500 Du        
   3883 ****       102.0000 263.2500 358.5000 Du        
   3884 ****       102.0000 263.2500 358.7500 Du        
   3885 ****       102.0000 263.2500 359.0000 Du        
   3886 ****       102.0000 263.5000 358.2500 Du        
   3887 ****       102.0000 263.5000 358.5000 Du        
   3888 ****       102.0000 263.5000 358.7500 Du        
   3889 ****       102.0000 263.5000 359.0000 Du        
   3890 ****       102.0000 263.7500 358.5000 Du        
   3891 ****       102.0000 263.7500 358.7500 Du        
   3892 ****       102.0000 263.7500 359.0000 Du        
   3893 ****       102.0000 264.0000 358.5000 Du        
   3894 ****       102.0000 264.0000 358.7500 Du        
   3895 ****       102.0000 264.0000 359.0000 Du        
   3896 ****       102.0000 264.2500 358.7500 Du        
   3897 ****       102.0000 264.2500 359.0000 Du        
   3898 ****       102.0000 264.5000 359.0000 Du        
   3899 ****       102.0000 266.0000 359.5000 Du        
   3900 ****       102.0000 266.2500 359.2500 Du        
   3901 ****       102.0000 266.2500 359.5000 Du        
   3902 ****       102.0000 266.5000 359.2500 Du        
   3903 ****       102.0000 266.5000 359.5000 Du        
   3904 ****       102.0000 266.5000 359.7500 Du        
   3905 ****       102.0000 266.7500 359.2500 Du        
   3906 ****       102.0000 266.7500 359.5000 Du        
   3907 ****       102.0000 266.7500 359.7500 Du        
   3908 ****       102.2500 261.5000 358.2500 Du        
   3909 ****       102.2500 261.5000 358.5000 Du        
   3910 ****       102.2500 261.5000 358.7500 Du        
   3911 ****       102.2500 261.5000 359.0000 Du        
   3912 ****       102.2500 261.7500 358.0000 Du        
   3913 ****       102.2500 261.7500 358.2500 Du        
   3914 ****       102.2500 261.7500 358.5000 Du        
   3915 ****       102.2500 261.7500 358.7500 Du        
   3916 ****       102.2500 261.7500 359.0000 Du        
   3917 ****       102.2500 261.7500 359.2500 Du        
   3918 ****       102.2500 261.7500 359.5000 Du        
   3919 ****       102.2500 262.0000 357.7500 Du        
   3920 ****       102.2500 262.0000 358.0000 Du        
   3921 ****       102.2500 262.0000 358.2500 Du        
   3922 ****       102.2500 262.0000 358.5000 Du        
   3923 ****       102.2500 262.0000 358.7500 Du        
   3924 ****       102.2500 262.0000 359.0000 Du        
   3925 ****       102.2500 262.0000 359.2500 Du        
   3926 ****       102.2500 262.0000 359.5000 Du        
   3927 ****       102.2500 262.2500 357.7500 Du        
   3928 ****       102.2500 262.2500 358.0000 Du        
   3929 ****       102.2500 262.2500 358.2500 Du        
   3930 ****       102.2500 262.2500 358.5000 Du        
   3931 ****       102.2500 262.2500 358.7500 Du        
   3932 ****       102.2500 262.2500 359.0000 Du        
   3933 ****       102.2500 262.2500 359.2500 Du        
   3934 ****       102.2500 262.5000 358.0000 Du        
   3935 ****       102.2500 262.5000 358.2500 Du        
   3936 ****       102.2500 262.5000 358.5000 Du        
   3937 ****       102.2500 262.5000 358.7500 Du        
   3938 ****       102.2500 262.5000 359.0000 Du        
   3939 ****       102.2500 262.5000 359.2500 Du        
   3940 ****       102.2500 262.7500 358.0000 Du        
   3941 ****       102.2500 262.7500 358.2500 Du        
   3942 ****       102.2500 262.7500 358.5000 Du        
   3943 ****       102.2500 262.7500 358.7500 Du        
   3944 ****       102.2500 262.7500 359.0000 Du        
   3945 ****       102.2500 262.7500 359.2500 Du        
   3946 ****       102.2500 263.0000 358.0000 Du        
   3947 ****       102.2500 263.0000 358.2500 Du        
   3948 ****       102.2500 263.0000 358.5000 Du        
   3949 ****       102.2500 263.0000 358.7500 Du        
   3950 ****       102.2500 263.0000 359.0000 Du        
   3951 ****       102.2500 263.0000 359.2500 Du        
   3952 ****       102.2500 263.2500 358.0000 Du        
   3953 ****       102.2500 263.2500 358.2500 Du        
   3954 ****       102.2500 263.2500 358.5000 Du        
   3955 ****       102.2500 263.2500 358.7500 Du        
   3956 ****       102.2500 263.2500 359.0000 Du        
   3957 ****       102.2500 263.5000 358.2500 Du        
   3958 ****       102.2500 263.5000 358.5000 Du        
   3959 ****       102.2500 263.5000 358.7500 Du        
   3960 ****       102.2500 263.5000 359.0000 Du        
   3961 ****       102.2500 263.7500 358.2500 Du        
   3962 ****       102.2500 263.7500 358.5000 Du        
   3963 ****       102.2500 263.7500 358.7500 Du        
   3964 ****       102.2500 263.7500 359.0000 Du        
   3965 ****       102.2500 264.0000 358.5000 Du        
   3966 ****       102.2500 264.0000 358.7500 Du        
   3967 ****       102.2500 264.0000 359.0000 Du        
   3968 ****       102.2500 264.2500 358.5000 Du        
   3969 ****       102.2500 264.2500 358.7500 Du        
   3970 ****       102.2500 264.2500 359.0000 Du        
   3971 ****       102.2500 264.5000 358.7500 Du        
   3972 ****       102.2500 264.5000 359.0000 Du        
   3973 ****       102.2500 264.7500 359.0000 Du        
   3974 ****       102.2500 265.0000 359.0000 Du        
   3975 ****       102.2500 265.2500 359.0000 Du        
   3976 ****       102.2500 265.7500 359.2500 Du        
   3977 ****       102.2500 266.0000 359.2500 Du        
   3978 ****       102.2500 266.0000 359.5000 Du        
   3979 ****       102.2500 266.2500 359.0000 Du        
   3980 ****       102.2500 266.2500 359.2500 Du        
   3981 ****       102.2500 266.2500 359.5000 Du        
   3982 ****       102.2500 266.5000 359.0000 Du        
   3983 ****       102.2500 266.5000 359.2500 Du        
   3984 ****       102.2500 266.5000 359.5000 Du        
   3985 ****       102.2500 266.7500 359.0000 Du        
   3986 ****       102.2500 266.7500 359.2500 Du        
   3987 ****       102.2500 266.7500 359.5000 Du        
   3988 ****       102.5000 261.5000 358.5000 Du        
   3989 ****       102.5000 261.5000 358.7500 Du        
   3990 ****       102.5000 261.5000 359.0000 Du        
   3991 ****       102.5000 261.5000 359.2500 Du        
   3992 ****       102.5000 261.7500 358.2500 Du        
   3993 ****       102.5000 261.7500 358.5000 Du        
   3994 ****       102.5000 261.7500 358.7500 Du        
   3995 ****       102.5000 261.7500 359.0000 Du        
   3996 ****       102.5000 261.7500 359.2500 Du        
   3997 ****       102.5000 261.7500 359.5000 Du        
   3998 ****       102.5000 262.0000 358.0000 Du        
   3999 ****       102.5000 262.0000 358.2500 Du        
   4000 ****       102.5000 262.0000 358.5000 Du        
   4001 ****       102.5000 262.0000 358.7500 Du        
   4002 ****       102.5000 262.0000 359.0000 Du        
   4003 ****       102.5000 262.0000 359.2500 Du        
   4004 ****       102.5000 262.0000 359.5000 Du        
   4005 ****       102.5000 262.2500 358.0000 Du        
   4006 ****       102.5000 262.2500 358.2500 Du        
   4007 ****       102.5000 262.2500 358.5000 Du        
   4008 ****       102.5000 262.2500 358.7500 Du        
   4009 ****       102.5000 262.2500 359.0000 Du        
   4010 ****       102.5000 262.2500 359.2500 Du        
   4011 ****       102.5000 262.5000 358.0000 Du        
   4012 ****       102.5000 262.5000 358.2500 Du        
   4013 ****       102.5000 262.5000 358.5000 Du        
   4014 ****       102.5000 262.5000 358.7500 Du        
   4015 ****       102.5000 262.5000 359.0000 Du        
   4016 ****       102.5000 262.5000 359.2500 Du        
   4017 ****       102.5000 262.7500 358.0000 Du        
   4018 ****       102.5000 262.7500 358.2500 Du        
   4019 ****       102.5000 262.7500 358.5000 Du        
   4020 ****       102.5000 262.7500 358.7500 Du        
   4021 ****       102.5000 262.7500 359.0000 Du        
   4022 ****       102.5000 262.7500 359.2500 Du        
   4023 ****       102.5000 263.0000 358.0000 Du        
   4024 ****       102.5000 263.0000 358.2500 Du        
   4025 ****       102.5000 263.0000 358.5000 Du        
   4026 ****       102.5000 263.0000 358.7500 Du        
   4027 ****       102.5000 263.0000 359.0000 Du        
   4028 ****       102.5000 263.0000 359.2500 Du        
   4029 ****       102.5000 263.2500 358.0000 Du        
   4030 ****       102.5000 263.2500 358.2500 Du        
   4031 ****       102.5000 263.2500 358.5000 Du        
   4032 ****       102.5000 263.2500 358.7500 Du        
   4033 ****       102.5000 263.2500 359.0000 Du        
   4034 ****       102.5000 263.5000 358.2500 Du        
   4035 ****       102.5000 263.5000 358.5000 Du        
   4036 ****       102.5000 263.5000 358.7500 Du        
   4037 ****       102.5000 263.5000 359.0000 Du        
   4038 ****       102.5000 263.7500 358.2500 Du        
   4039 ****       102.5000 263.7500 358.5000 Du        
   4040 ****       102.5000 263.7500 358.7500 Du        
   4041 ****       102.5000 263.7500 359.0000 Du        
   4042 ****       102.5000 264.0000 358.5000 Du        
   4043 ****       102.5000 264.0000 358.7500 Du        
   4044 ****       102.5000 264.0000 359.0000 Du        
   4045 ****       102.5000 264.2500 358.5000 Du        
   4046 ****       102.5000 264.2500 358.7500 Du        
   4047 ****       102.5000 264.2500 359.0000 Du        
   4048 ****       102.5000 264.5000 358.5000 Du        
   4049 ****       102.5000 264.5000 358.7500 Du        
   4050 ****       102.5000 264.5000 359.0000 Du        
   4051 ****       102.5000 264.7500 358.7500 Du        
   4052 ****       102.5000 264.7500 359.0000 Du        
   4053 ****       102.5000 265.0000 358.7500 Du        
   4054 ****       102.5000 265.0000 359.0000 Du        
   4055 ****       102.5000 265.2500 358.7500 Du        
   4056 ****       102.5000 265.2500 359.0000 Du        
   4057 ****       102.5000 265.2500 359.2500 Du        
   4058 ****       102.5000 265.5000 358.7500 Du        
   4059 ****       102.5000 265.5000 359.0000 Du        
   4060 ****       102.5000 265.5000 359.2500 Du        
   4061 ****       102.5000 265.7500 358.7500 Du        
   4062 ****       102.5000 265.7500 359.0000 Du        
   4063 ****       102.5000 265.7500 359.2500 Du        
   4064 ****       102.5000 266.0000 358.7500 Du        
   4065 ****       102.5000 266.0000 359.0000 Du        
   4066 ****       102.5000 266.0000 359.2500 Du        
   4067 ****       102.5000 266.0000 359.5000 Du        
   4068 ****       102.5000 266.2500 358.7500 Du        
   4069 ****       102.5000 266.2500 359.0000 Du        
   4070 ****       102.5000 266.2500 359.2500 Du        
   4071 ****       102.5000 266.2500 359.5000 Du        
   4072 ****       102.5000 266.5000 358.7500 Du        
   4073 ****       102.5000 266.5000 359.0000 Du        
   4074 ****       102.5000 266.5000 359.2500 Du        
   4075 ****       102.5000 266.5000 359.5000 Du        
   4076 ****       102.5000 266.7500 358.7500 Du        
   4077 ****       102.5000 266.7500 359.0000 Du        
   4078 ****       102.5000 268.7500 357.2500 Du        
   4079 ****       102.5000 269.0000 356.7500 Du        
   4080 ****       102.5000 269.0000 357.0000 Du        
   4081 ****       102.5000 269.0000 357.2500 Du        
   4082 ****       102.5000 269.2500 356.5000 Du        
   4083 ****       102.5000 269.2500 356.7500 Du        
   4084 ****       102.5000 269.2500 357.0000 Du        
   4085 ****       102.5000 269.2500 357.2500 Du        
   4086 ****       102.7500 261.5000 358.5000 Du        
   4087 ****       102.7500 261.5000 358.7500 Du        
   4088 ****       102.7500 261.5000 359.0000 Du        
   4089 ****       102.7500 261.5000 359.2500 Du        
   4090 ****       102.7500 261.5000 359.5000 Du        
   4091 ****       102.7500 261.7500 358.2500 Du        
   4092 ****       102.7500 261.7500 358.5000 Du        
   4093 ****       102.7500 261.7500 358.7500 Du        
   4094 ****       102.7500 261.7500 359.0000 Du        
   4095 ****       102.7500 261.7500 359.2500 Du        
   4096 ****       102.7500 261.7500 359.5000 Du        
   4097 ****       102.7500 262.0000 358.2500 Du        
   4098 ****       102.7500 262.0000 358.5000 Du        
   4099 ****       102.7500 262.0000 358.7500 Du        
   4100 ****       102.7500 262.0000 359.0000 Du        
   4101 ****       102.7500 262.0000 359.2500 Du        
   4102 ****       102.7500 262.0000 359.5000 Du        
   4103 ****       102.7500 262.2500 358.2500 Du        
   4104 ****       102.7500 262.2500 358.5000 Du        
   4105 ****       102.7500 262.2500 358.7500 Du        
   4106 ****       102.7500 262.2500 359.0000 Du        
   4107 ****       102.7500 262.2500 359.2500 Du        
   4108 ****       102.7500 262.5000 358.2500 Du        
   4109 ****       102.7500 262.5000 358.5000 Du        
   4110 ****       102.7500 262.5000 358.7500 Du        
   4111 ****       102.7500 262.5000 359.0000 Du        
   4112 ****       102.7500 262.5000 359.2500 Du        
   4113 ****       102.7500 262.7500 358.0000 Du        
   4114 ****       102.7500 262.7500 358.2500 Du        
   4115 ****       102.7500 262.7500 358.5000 Du        
   4116 ****       102.7500 262.7500 358.7500 Du        
   4117 ****       102.7500 262.7500 359.0000 Du        
   4118 ****       102.7500 262.7500 359.2500 Du        
   4119 ****       102.7500 263.0000 358.0000 Du        
   4120 ****       102.7500 263.0000 358.2500 Du        
   4121 ****       102.7500 263.0000 358.5000 Du        
   4122 ****       102.7500 263.0000 358.7500 Du        
   4123 ****       102.7500 263.0000 359.0000 Du        
   4124 ****       102.7500 263.0000 359.2500 Du        
   4125 ****       102.7500 263.2500 358.2500 Du        
   4126 ****       102.7500 263.2500 358.5000 Du        
   4127 ****       102.7500 263.2500 358.7500 Du        
   4128 ****       102.7500 263.2500 359.0000 Du        
   4129 ****       102.7500 263.5000 358.2500 Du        
   4130 ****       102.7500 263.5000 358.5000 Du        
   4131 ****       102.7500 263.5000 358.7500 Du        
   4132 ****       102.7500 263.5000 359.0000 Du        
   4133 ****       102.7500 263.7500 358.2500 Du        
   4134 ****       102.7500 263.7500 358.5000 Du        
   4135 ****       102.7500 263.7500 358.7500 Du        
   4136 ****       102.7500 263.7500 359.0000 Du        
   4137 ****       102.7500 264.0000 358.2500 Du        
   4138 ****       102.7500 264.0000 358.5000 Du        
   4139 ****       102.7500 264.0000 358.7500 Du        
   4140 ****       102.7500 264.0000 359.0000 Du        
   4141 ****       102.7500 264.2500 358.5000 Du        
   4142 ****       102.7500 264.2500 358.7500 Du        
   4143 ****       102.7500 264.2500 359.0000 Du        
   4144 ****       102.7500 264.5000 358.5000 Du        
   4145 ****       102.7500 264.5000 358.7500 Du        
   4146 ****       102.7500 264.5000 359.0000 Du        
   4147 ****       102.7500 264.7500 358.5000 Du        
   4148 ****       102.7500 264.7500 358.7500 Du        
   4149 ****       102.7500 264.7500 359.0000 Du        
   4150 ****       102.7500 265.0000 358.5000 Du        
   4151 ****       102.7500 265.0000 358.7500 Du        
   4152 ****       102.7500 265.0000 359.0000 Du        
   4153 ****       102.7500 265.0000 359.2500 Du        
   4154 ****       102.7500 265.2500 358.5000 Du        
   4155 ****       102.7500 265.2500 358.7500 Du        
   4156 ****       102.7500 265.2500 359.0000 Du        
   4157 ****       102.7500 265.2500 359.2500 Du        
   4158 ****       102.7500 265.5000 358.5000 Du        
   4159 ****       102.7500 265.5000 358.7500 Du        
   4160 ****       102.7500 265.5000 359.0000 Du        
   4161 ****       102.7500 265.5000 359.2500 Du        
   4162 ****       102.7500 265.7500 358.5000 Du        
   4163 ****       102.7500 265.7500 358.7500 Du        
   4164 ****       102.7500 265.7500 359.0000 Du        
   4165 ****       102.7500 265.7500 359.2500 Du        
   4166 ****       102.7500 266.0000 358.5000 Du        
   4167 ****       102.7500 266.0000 358.7500 Du        
   4168 ****       102.7500 266.0000 359.0000 Du        
   4169 ****       102.7500 266.0000 359.2500 Du        
   4170 ****       102.7500 266.0000 359.5000 Du        
   4171 ****       102.7500 266.2500 358.5000 Du        
   4172 ****       102.7500 266.2500 358.7500 Du        
   4173 ****       102.7500 266.2500 359.0000 Du        
   4174 ****       102.7500 266.2500 359.2500 Du        
   4175 ****       102.7500 266.2500 359.5000 Du        
   4176 ****       102.7500 266.5000 358.5000 Du        
   4177 ****       102.7500 266.5000 358.7500 Du        
   4178 ****       102.7500 266.5000 359.0000 Du        
   4179 ****       102.7500 266.5000 359.2500 Du        
   4180 ****       102.7500 266.7500 358.5000 Du        
   4181 ****       102.7500 266.7500 358.7500 Du        
   4182 ****       102.7500 266.7500 359.0000 Du        
   4183 ****       102.7500 268.2500 357.2500 Du        
   4184 ****       102.7500 268.2500 357.5000 Du        
   4185 ****       102.7500 268.5000 357.0000 Du        
   4186 ****       102.7500 268.5000 357.2500 Du        
   4187 ****       102.7500 268.7500 356.7500 Du        
   4188 ****       102.7500 268.7500 357.0000 Du        
   4189 ****       102.7500 268.7500 357.2500 Du        
   4190 ****       102.7500 269.0000 356.2500 Du        
   4191 ****       102.7500 269.0000 356.5000 Du        
   4192 ****       102.7500 269.0000 356.7500 Du        
   4193 ****       102.7500 269.0000 357.0000 Du        
   4194 ****       102.7500 269.0000 357.2500 Du        
   4195 ****       102.7500 269.2500 355.7500 Du        
   4196 ****       102.7500 269.2500 356.0000 Du        
   4197 ****       102.7500 269.2500 356.2500 Du        
   4198 ****       102.7500 269.2500 356.5000 Du        
   4199 ****       102.7500 269.2500 356.7500 Du        
   4200 ****       102.7500 269.2500 357.0000 Du        
   4201 ****       102.7500 269.2500 357.2500 Du        
   4202 ****       103.0000 261.5000 358.7500 Du        
   4203 ****       103.0000 261.5000 359.0000 Du        
   4204 ****       103.0000 261.5000 359.2500 Du        
   4205 ****       103.0000 261.5000 359.5000 Du        
   4206 ****       103.0000 261.7500 358.5000 Du        
   4207 ****       103.0000 261.7500 358.7500 Du        
   4208 ****       103.0000 261.7500 359.0000 Du        
   4209 ****       103.0000 261.7500 359.2500 Du        
   4210 ****       103.0000 261.7500 359.5000 Du        
   4211 ****       103.0000 262.0000 358.5000 Du        
   4212 ****       103.0000 262.0000 358.7500 Du        
   4213 ****       103.0000 262.0000 359.0000 Du        
   4214 ****       103.0000 262.0000 359.2500 Du        
   4215 ****       103.0000 262.0000 359.5000 Du        
   4216 ****       103.0000 262.2500 358.2500 Du        
   4217 ****       103.0000 262.2500 358.5000 Du        
   4218 ****       103.0000 262.2500 358.7500 Du        
   4219 ****       103.0000 262.2500 359.0000 Du        
   4220 ****       103.0000 262.2500 359.2500 Du        
   4221 ****       103.0000 262.5000 358.2500 Du        
   4222 ****       103.0000 262.5000 358.5000 Du        
   4223 ****       103.0000 262.5000 358.7500 Du        
   4224 ****       103.0000 262.5000 359.0000 Du        
   4225 ****       103.0000 262.5000 359.2500 Du        
   4226 ****       103.0000 262.7500 358.2500 Du        
   4227 ****       103.0000 262.7500 358.5000 Du        
   4228 ****       103.0000 262.7500 358.7500 Du        
   4229 ****       103.0000 262.7500 359.0000 Du        
   4230 ****       103.0000 262.7500 359.2500 Du        
   4231 ****       103.0000 263.0000 358.2500 Du        
   4232 ****       103.0000 263.0000 358.5000 Du        
   4233 ****       103.0000 263.0000 358.7500 Du        
   4234 ****       103.0000 263.0000 359.0000 Du        
   4235 ****       103.0000 263.0000 359.2500 Du        
   4236 ****       103.0000 263.2500 358.2500 Du        
   4237 ****       103.0000 263.2500 358.5000 Du        
   4238 ****       103.0000 263.2500 358.7500 Du        
   4239 ****       103.0000 263.2500 359.0000 Du        
   4240 ****       103.0000 263.5000 358.2500 Du        
   4241 ****       103.0000 263.5000 358.5000 Du        
   4242 ****       103.0000 263.5000 358.7500 Du        
   4243 ****       103.0000 263.5000 359.0000 Du        
   4244 ****       103.0000 263.7500 358.2500 Du        
   4245 ****       103.0000 263.7500 358.5000 Du        
   4246 ****       103.0000 263.7500 358.7500 Du        
   4247 ****       103.0000 263.7500 359.0000 Du        
   4248 ****       103.0000 264.0000 358.2500 Du        
   4249 ****       103.0000 264.0000 358.5000 Du        
   4250 ****       103.0000 264.0000 358.7500 Du        
   4251 ****       103.0000 264.0000 359.0000 Du        
   4252 ****       103.0000 264.2500 358.2500 Du        
   4253 ****       103.0000 264.2500 358.5000 Du        
   4254 ****       103.0000 264.2500 358.7500 Du        
   4255 ****       103.0000 264.2500 359.0000 Du        
   4256 ****       103.0000 264.5000 358.2500 Du        
   4257 ****       103.0000 264.5000 358.5000 Du        
   4258 ****       103.0000 264.5000 358.7500 Du        
   4259 ****       103.0000 264.5000 359.0000 Du        
   4260 ****       103.0000 264.7500 358.5000 Du        
   4261 ****       103.0000 264.7500 358.7500 Du        
   4262 ****       103.0000 264.7500 359.0000 Du        
   4263 ****       103.0000 265.0000 358.5000 Du        
   4264 ****       103.0000 265.0000 358.7500 Du        
   4265 ****       103.0000 265.0000 359.0000 Du        
   4266 ****       103.0000 265.0000 359.2500 Du        
   4267 ****       103.0000 265.2500 358.5000 Du        
   4268 ****       103.0000 265.2500 358.7500 Du        
   4269 ****       103.0000 265.2500 359.0000 Du        
   4270 ****       103.0000 265.2500 359.2500 Du        
   4271 ****       103.0000 265.5000 358.5000 Du        
   4272 ****       103.0000 265.5000 358.7500 Du        
   4273 ****       103.0000 265.5000 359.0000 Du        
   4274 ****       103.0000 265.5000 359.2500 Du        
   4275 ****       103.0000 265.7500 358.2500 Du        
   4276 ****       103.0000 265.7500 358.5000 Du        
   4277 ****       103.0000 265.7500 358.7500 Du        
   4278 ****       103.0000 265.7500 359.0000 Du        
   4279 ****       103.0000 265.7500 359.2500 Du        
   4280 ****       103.0000 265.7500 359.5000 Du        
   4281 ****       103.0000 266.0000 358.2500 Du        
   4282 ****       103.0000 266.0000 358.5000 Du        
   4283 ****       103.0000 266.0000 358.7500 Du        
   4284 ****       103.0000 266.0000 359.0000 Du        
   4285 ****       103.0000 266.0000 359.2500 Du        
   4286 ****       103.0000 266.0000 359.5000 Du        
   4287 ****       103.0000 266.2500 358.2500 Du        
   4288 ****       103.0000 266.2500 358.5000 Du        
   4289 ****       103.0000 266.2500 358.7500 Du        
   4290 ****       103.0000 266.2500 359.0000 Du        
   4291 ****       103.0000 266.2500 359.2500 Du        
   4292 ****       103.0000 266.2500 359.5000 Du        
   4293 ****       103.0000 266.5000 358.2500 Du        
   4294 ****       103.0000 266.5000 358.5000 Du        
   4295 ****       103.0000 266.5000 358.7500 Du        
   4296 ****       103.0000 266.5000 359.0000 Du        
   4297 ****       103.0000 266.7500 358.2500 Du        
   4298 ****       103.0000 266.7500 358.5000 Du        
   4299 ****       103.0000 267.0000 358.0000 Du        
   4300 ****       103.0000 267.0000 358.2500 Du        
   4301 ****       103.0000 267.7500 357.5000 Du        
   4302 ****       103.0000 268.0000 357.0000 Du        
   4303 ****       103.0000 268.0000 357.2500 Du        
   4304 ****       103.0000 268.0000 357.5000 Du        
   4305 ****       103.0000 268.2500 356.7500 Du        
   4306 ****       103.0000 268.2500 357.0000 Du        
   4307 ****       103.0000 268.2500 357.2500 Du        
   4308 ****       103.0000 268.2500 357.5000 Du        
   4309 ****       103.0000 268.5000 356.5000 Du        
   4310 ****       103.0000 268.5000 356.7500 Du        
   4311 ****       103.0000 268.5000 357.0000 Du        
   4312 ****       103.0000 268.5000 357.2500 Du        
   4313 ****       103.0000 268.7500 356.2500 Du        
   4314 ****       103.0000 268.7500 356.5000 Du        
   4315 ****       103.0000 268.7500 356.7500 Du        
   4316 ****       103.0000 268.7500 357.0000 Du        
   4317 ****       103.0000 268.7500 357.2500 Du        
   4318 ****       103.0000 269.0000 355.7500 Du        
   4319 ****       103.0000 269.0000 356.0000 Du        
   4320 ****       103.0000 269.0000 356.2500 Du        
   4321 ****       103.0000 269.0000 356.5000 Du        
   4322 ****       103.0000 269.0000 356.7500 Du        
   4323 ****       103.0000 269.0000 357.0000 Du        
   4324 ****       103.0000 269.0000 357.2500 Du        
   4325 ****       103.0000 269.2500 355.5000 Du        
   4326 ****       103.0000 269.2500 355.7500 Du        
   4327 ****       103.0000 269.2500 356.0000 Du        
   4328 ****       103.0000 269.2500 356.2500 Du        
   4329 ****       103.0000 269.2500 356.5000 Du        
   4330 ****       103.0000 269.2500 356.7500 Du        
   4331 ****       103.0000 269.2500 357.0000 Du        
   4332 ****       103.0000 269.5000 356.7500 Du        
   4333 ****       103.2500 261.5000 359.0000 Du        
   4334 ****       103.2500 261.5000 359.2500 Du        
   4335 ****       103.2500 261.5000 359.5000 Du        
   4336 ****       103.2500 261.7500 358.7500 Du        
   4337 ****       103.2500 261.7500 359.0000 Du        
   4338 ****       103.2500 261.7500 359.2500 Du        
   4339 ****       103.2500 261.7500 359.5000 Du        
   4340 ****       103.2500 262.0000 358.5000 Du        
   4341 ****       103.2500 262.0000 358.7500 Du        
   4342 ****       103.2500 262.0000 359.0000 Du        
   4343 ****       103.2500 262.0000 359.2500 Du        
   4344 ****       103.2500 262.0000 359.5000 Du        
   4345 ****       103.2500 262.2500 358.5000 Du        
   4346 ****       103.2500 262.2500 358.7500 Du        
   4347 ****       103.2500 262.2500 359.0000 Du        
   4348 ****       103.2500 262.2500 359.2500 Du        
   4349 ****       103.2500 262.5000 358.5000 Du        
   4350 ****       103.2500 262.5000 358.7500 Du        
   4351 ****       103.2500 262.5000 359.0000 Du        
   4352 ****       103.2500 262.5000 359.2500 Du        
   4353 ****       103.2500 262.7500 358.5000 Du        
   4354 ****       103.2500 262.7500 358.7500 Du        
   4355 ****       103.2500 262.7500 359.0000 Du        
   4356 ****       103.2500 262.7500 359.2500 Du        
   4357 ****       103.2500 263.0000 358.2500 Du        
   4358 ****       103.2500 263.0000 358.5000 Du        
   4359 ****       103.2500 263.0000 358.7500 Du        
   4360 ****       103.2500 263.0000 359.0000 Du        
   4361 ****       103.2500 263.0000 359.2500 Du        
   4362 ****       103.2500 263.2500 358.2500 Du        
   4363 ****       103.2500 263.2500 358.5000 Du        
   4364 ****       103.2500 263.2500 358.7500 Du        
   4365 ****       103.2500 263.2500 359.0000 Du        
   4366 ****       103.2500 263.5000 358.2500 Du        
   4367 ****       103.2500 263.5000 358.5000 Du        
   4368 ****       103.2500 263.5000 358.7500 Du        
   4369 ****       103.2500 263.5000 359.0000 Du        
   4370 ****       103.2500 263.7500 358.2500 Du        
   4371 ****       103.2500 263.7500 358.5000 Du        
   4372 ****       103.2500 263.7500 358.7500 Du        
   4373 ****       103.2500 263.7500 359.0000 Du        
   4374 ****       103.2500 264.0000 358.2500 Du        
   4375 ****       103.2500 264.0000 358.5000 Du        
   4376 ****       103.2500 264.0000 358.7500 Du        
   4377 ****       103.2500 264.0000 359.0000 Du        
   4378 ****       103.2500 264.2500 358.2500 Du        
   4379 ****       103.2500 264.2500 358.5000 Du        
   4380 ****       103.2500 264.2500 358.7500 Du        
   4381 ****       103.2500 264.2500 359.0000 Du        
   4382 ****       103.2500 264.5000 358.2500 Du        
   4383 ****       103.2500 264.5000 358.5000 Du        
   4384 ****       103.2500 264.5000 358.7500 Du        
   4385 ****       103.2500 264.5000 359.0000 Du        
   4386 ****       103.2500 264.7500 358.2500 Du        
   4387 ****       103.2500 264.7500 358.5000 Du        
   4388 ****       103.2500 264.7500 358.7500 Du        
   4389 ****       103.2500 264.7500 359.0000 Du        
   4390 ****       103.2500 264.7500 359.2500 Du        
   4391 ****       103.2500 265.0000 358.2500 Du        
   4392 ****       103.2500 265.0000 358.5000 Du        
   4393 ****       103.2500 265.0000 358.7500 Du        
   4394 ****       103.2500 265.0000 359.0000 Du        
   4395 ****       103.2500 265.0000 359.2500 Du        
   4396 ****       103.2500 265.2500 358.2500 Du        
   4397 ****       103.2500 265.2500 358.5000 Du        
   4398 ****       103.2500 265.2500 358.7500 Du        
   4399 ****       103.2500 265.2500 359.0000 Du        
   4400 ****       103.2500 265.2500 359.2500 Du        
   4401 ****       103.2500 265.5000 358.2500 Du        
   4402 ****       103.2500 265.5000 358.5000 Du        
   4403 ****       103.2500 265.5000 358.7500 Du        
   4404 ****       103.2500 265.5000 359.0000 Du        
   4405 ****       103.2500 265.5000 359.2500 Du        
   4406 ****       103.2500 265.7500 358.2500 Du        
   4407 ****       103.2500 265.7500 358.5000 Du        
   4408 ****       103.2500 265.7500 358.7500 Du        
   4409 ****       103.2500 265.7500 359.0000 Du        
   4410 ****       103.2500 265.7500 359.2500 Du        
   4411 ****       103.2500 265.7500 359.5000 Du        
   4412 ****       103.2500 266.0000 358.0000 Du        
   4413 ****       103.2500 266.0000 358.2500 Du        
   4414 ****       103.2500 266.0000 358.5000 Du        
   4415 ****       103.2500 266.0000 358.7500 Du        
   4416 ****       103.2500 266.0000 359.0000 Du        
   4417 ****       103.2500 266.0000 359.2500 Du        
   4418 ****       103.2500 266.0000 359.5000 Du        
   4419 ****       103.2500 266.2500 358.0000 Du        
   4420 ****       103.2500 266.2500 358.2500 Du        
   4421 ****       103.2500 266.2500 358.5000 Du        
   4422 ****       103.2500 266.2500 358.7500 Du        
   4423 ****       103.2500 266.2500 359.0000 Du        
   4424 ****       103.2500 266.2500 359.2500 Du        
   4425 ****       103.2500 266.5000 358.0000 Du        
   4426 ****       103.2500 266.5000 358.2500 Du        
   4427 ****       103.2500 266.5000 358.5000 Du        
   4428 ****       103.2500 266.7500 358.0000 Du        
   4429 ****       103.2500 266.7500 358.2500 Du        
   4430 ****       103.2500 268.0000 357.0000 Du        
   4431 ****       103.2500 268.0000 357.2500 Du        
   4432 ****       103.2500 268.2500 356.7500 Du        
   4433 ****       103.2500 268.2500 357.0000 Du        
   4434 ****       103.2500 268.2500 357.2500 Du        
   4435 ****       103.2500 268.5000 356.5000 Du        
   4436 ****       103.2500 268.5000 356.7500 Du        
   4437 ****       103.2500 268.5000 357.0000 Du        
   4438 ****       103.2500 268.5000 357.2500 Du        
   4439 ****       103.2500 268.7500 356.0000 Du        
   4440 ****       103.2500 268.7500 356.2500 Du        
   4441 ****       103.2500 268.7500 356.5000 Du        
   4442 ****       103.2500 268.7500 356.7500 Du        
   4443 ****       103.2500 268.7500 357.0000 Du        
   4444 ****       103.2500 268.7500 357.2500 Du        
   4445 ****       103.2500 269.0000 355.5000 Du        
   4446 ****       103.2500 269.0000 355.7500 Du        
   4447 ****       103.2500 269.0000 356.0000 Du        
   4448 ****       103.2500 269.0000 356.2500 Du        
   4449 ****       103.2500 269.0000 356.5000 Du        
   4450 ****       103.2500 269.0000 356.7500 Du        
   4451 ****       103.2500 269.0000 357.0000 Du        
   4452 ****       103.2500 269.2500 355.2500 Du        
   4453 ****       103.2500 269.2500 355.5000 Du        
   4454 ****       103.2500 269.2500 355.7500 Du        
   4455 ****       103.2500 269.2500 356.0000 Du        
   4456 ****       103.2500 269.2500 356.2500 Du        
   4457 ****       103.2500 269.2500 356.5000 Du        
   4458 ****       103.2500 269.2500 356.7500 Du        
   4459 ****       103.2500 269.2500 357.0000 Du        
   4460 ****       103.2500 269.5000 356.7500 Du        
   4461 ****       103.5000 261.5000 359.2500 Du        
   4462 ****       103.5000 261.7500 359.0000 Du        
   4463 ****       103.5000 261.7500 359.2500 Du        
   4464 ****       103.5000 262.0000 358.7500 Du        
   4465 ****       103.5000 262.0000 359.0000 Du        
   4466 ****       103.5000 262.0000 359.2500 Du        
   4467 ****       103.5000 262.2500 358.7500 Du        
   4468 ****       103.5000 262.2500 359.0000 Du        
   4469 ****       103.5000 262.2500 359.2500 Du        
   4470 ****       103.5000 262.5000 358.7500 Du        
   4471 ****       103.5000 262.5000 359.0000 Du        
   4472 ****       103.5000 262.5000 359.2500 Du        
   4473 ****       103.5000 262.7500 358.5000 Du        
   4474 ****       103.5000 262.7500 358.7500 Du        
   4475 ****       103.5000 262.7500 359.0000 Du        
   4476 ****       103.5000 263.0000 358.5000 Du        
   4477 ****       103.5000 263.0000 358.7500 Du        
   4478 ****       103.5000 263.0000 359.0000 Du        
   4479 ****       103.5000 263.2500 358.2500 Du        
   4480 ****       103.5000 263.2500 358.5000 Du        
   4481 ****       103.5000 263.2500 358.7500 Du        
   4482 ****       103.5000 263.2500 359.0000 Du        
   4483 ****       103.5000 263.5000 358.2500 Du        
   4484 ****       103.5000 263.5000 358.5000 Du        
   4485 ****       103.5000 263.5000 358.7500 Du        
   4486 ****       103.5000 263.5000 359.0000 Du        
   4487 ****       103.5000 263.7500 358.2500 Du        
   4488 ****       103.5000 263.7500 358.5000 Du        
   4489 ****       103.5000 263.7500 358.7500 Du        
   4490 ****       103.5000 263.7500 359.0000 Du        
   4491 ****       103.5000 264.0000 358.0000 Du        
   4492 ****       103.5000 264.0000 358.2500 Du        
   4493 ****       103.5000 264.0000 358.5000 Du        
   4494 ****       103.5000 264.0000 358.7500 Du        
   4495 ****       103.5000 264.0000 359.0000 Du        
   4496 ****       103.5000 264.2500 358.0000 Du        
   4497 ****       103.5000 264.2500 358.2500 Du        
   4498 ****       103.5000 264.2500 358.5000 Du        
   4499 ****       103.5000 264.2500 358.7500 Du        
   4500 ****       103.5000 264.2500 359.0000 Du        
   4501 ****       103.5000 264.5000 358.2500 Du        
   4502 ****       103.5000 264.5000 358.5000 Du        
   4503 ****       103.5000 264.5000 358.7500 Du        
   4504 ****       103.5000 264.5000 359.0000 Du        
   4505 ****       103.5000 264.5000 359.2500 Du        
   4506 ****       103.5000 264.7500 358.2500 Du        
   4507 ****       103.5000 264.7500 358.5000 Du        
   4508 ****       103.5000 264.7500 358.7500 Du        
   4509 ****       103.5000 264.7500 359.0000 Du        
   4510 ****       103.5000 264.7500 359.2500 Du        
   4511 ****       103.5000 265.0000 358.2500 Du        
   4512 ****       103.5000 265.0000 358.5000 Du        
   4513 ****       103.5000 265.0000 358.7500 Du        
   4514 ****       103.5000 265.0000 359.0000 Du        
   4515 ****       103.5000 265.0000 359.2500 Du        
   4516 ****       103.5000 265.2500 358.2500 Du        
   4517 ****       103.5000 265.2500 358.5000 Du        
   4518 ****       103.5000 265.2500 358.7500 Du        
   4519 ****       103.5000 265.2500 359.0000 Du        
   4520 ****       103.5000 265.2500 359.2500 Du        
   4521 ****       103.5000 265.5000 358.2500 Du        
   4522 ****       103.5000 265.5000 358.5000 Du        
   4523 ****       103.5000 265.5000 358.7500 Du        
   4524 ****       103.5000 265.5000 359.0000 Du        
   4525 ****       103.5000 265.5000 359.2500 Du        
   4526 ****       103.5000 265.5000 359.5000 Du        
   4527 ****       103.5000 265.7500 358.0000 Du        
   4528 ****       103.5000 265.7500 358.2500 Du        
   4529 ****       103.5000 265.7500 358.5000 Du        
   4530 ****       103.5000 265.7500 358.7500 Du        
   4531 ****       103.5000 265.7500 359.0000 Du        
   4532 ****       103.5000 265.7500 359.2500 Du        
   4533 ****       103.5000 265.7500 359.5000 Du        
   4534 ****       103.5000 266.0000 358.0000 Du        
   4535 ****       103.5000 266.0000 358.2500 Du        
   4536 ****       103.5000 266.0000 358.5000 Du        
   4537 ****       103.5000 266.0000 358.7500 Du        
   4538 ****       103.5000 266.0000 359.0000 Du        
   4539 ****       103.5000 266.0000 359.2500 Du        
   4540 ****       103.5000 266.2500 358.0000 Du        
   4541 ****       103.5000 266.2500 358.2500 Du        
   4542 ****       103.5000 266.2500 358.5000 Du        
   4543 ****       103.5000 266.2500 358.7500 Du        
   4544 ****       103.5000 266.2500 359.0000 Du        
   4545 ****       103.5000 266.5000 358.0000 Du        
   4546 ****       103.5000 266.5000 358.2500 Du        
   4547 ****       103.5000 266.5000 358.5000 Du        
   4548 ****       103.5000 268.2500 356.7500 Du        
   4549 ****       103.5000 268.2500 357.0000 Du        
   4550 ****       103.5000 268.5000 356.2500 Du        
   4551 ****       103.5000 268.5000 356.5000 Du        
   4552 ****       103.5000 268.5000 356.7500 Du        
   4553 ****       103.5000 268.5000 357.0000 Du        
   4554 ****       103.5000 268.7500 355.7500 Du        
   4555 ****       103.5000 268.7500 356.0000 Du        
   4556 ****       103.5000 268.7500 356.2500 Du        
   4557 ****       103.5000 268.7500 356.5000 Du        
   4558 ****       103.5000 268.7500 356.7500 Du        
   4559 ****       103.5000 268.7500 357.0000 Du        
   4560 ****       103.5000 269.0000 355.2500 Du        
   4561 ****       103.5000 269.0000 355.5000 Du        
   4562 ****       103.5000 269.0000 355.7500 Du        
   4563 ****       103.5000 269.0000 356.0000 Du        
   4564 ****       103.5000 269.0000 356.2500 Du        
   4565 ****       103.5000 269.0000 356.5000 Du        
   4566 ****       103.5000 269.0000 356.7500 Du        
   4567 ****       103.5000 269.0000 357.0000 Du        
   4568 ****       103.5000 269.2500 355.2500 Du        
   4569 ****       103.5000 269.2500 355.5000 Du        
   4570 ****       103.5000 269.2500 355.7500 Du        
   4571 ****       103.5000 269.2500 356.0000 Du        
   4572 ****       103.5000 269.2500 356.2500 Du        
   4573 ****       103.5000 269.2500 356.5000 Du        
   4574 ****       103.5000 269.2500 356.7500 Du        
   4575 ****       103.5000 269.2500 357.0000 Du        
   4576 ****       103.7500 262.7500 358.7500 Du        
   4577 ****       103.7500 263.0000 358.7500 Du        
   4578 ****       103.7500 263.0000 359.0000 Du        
   4579 ****       103.7500 263.2500 358.5000 Du        
   4580 ****       103.7500 263.2500 358.7500 Du        
   4581 ****       103.7500 263.2500 359.0000 Du        
   4582 ****       103.7500 263.5000 358.2500 Du        
   4583 ****       103.7500 263.5000 358.5000 Du        
   4584 ****       103.7500 263.5000 358.7500 Du        
   4585 ****       103.7500 263.5000 359.0000 Du        
   4586 ****       103.7500 263.7500 358.2500 Du        
   4587 ****       103.7500 263.7500 358.5000 Du        
   4588 ****       103.7500 263.7500 358.7500 Du        
   4589 ****       103.7500 263.7500 359.0000 Du        
   4590 ****       103.7500 264.0000 358.0000 Du        
   4591 ****       103.7500 264.0000 358.2500 Du        
   4592 ****       103.7500 264.0000 358.5000 Du        
   4593 ****       103.7500 264.0000 358.7500 Du        
   4594 ****       103.7500 264.0000 359.0000 Du        
   4595 ****       103.7500 264.2500 358.0000 Du        
   4596 ****       103.7500 264.2500 358.2500 Du        
   4597 ****       103.7500 264.2500 358.5000 Du        
   4598 ****       103.7500 264.2500 358.7500 Du        
   4599 ****       103.7500 264.2500 359.0000 Du        
   4600 ****       103.7500 264.5000 358.0000 Du        
   4601 ****       103.7500 264.5000 358.2500 Du        
   4602 ****       103.7500 264.5000 358.5000 Du        
   4603 ****       103.7500 264.5000 358.7500 Du        
   4604 ****       103.7500 264.5000 359.0000 Du        
   4605 ****       103.7500 264.5000 359.2500 Du        
   4606 ****       103.7500 264.7500 358.0000 Du        
   4607 ****       103.7500 264.7500 358.2500 Du        
   4608 ****       103.7500 264.7500 358.5000 Du        
   4609 ****       103.7500 264.7500 358.7500 Du        
   4610 ****       103.7500 264.7500 359.0000 Du        
   4611 ****       103.7500 264.7500 359.2500 Du        
   4612 ****       103.7500 265.0000 358.0000 Du        
   4613 ****       103.7500 265.0000 358.2500 Du        
   4614 ****       103.7500 265.0000 358.5000 Du        
   4615 ****       103.7500 265.0000 358.7500 Du        
   4616 ****       103.7500 265.0000 359.0000 Du        
   4617 ****       103.7500 265.0000 359.2500 Du        
   4618 ****       103.7500 265.2500 358.0000 Du        
   4619 ****       103.7500 265.2500 358.2500 Du        
   4620 ****       103.7500 265.2500 358.5000 Du        
   4621 ****       103.7500 265.2500 358.7500 Du        
   4622 ****       103.7500 265.2500 359.0000 Du        
   4623 ****       103.7500 265.2500 359.2500 Du        
   4624 ****       103.7500 265.2500 359.5000 Du        
   4625 ****       103.7500 265.5000 358.0000 Du        
   4626 ****       103.7500 265.5000 358.2500 Du        
   4627 ****       103.7500 265.5000 358.5000 Du        
   4628 ****       103.7500 265.5000 358.7500 Du        
   4629 ****       103.7500 265.5000 359.0000 Du        
   4630 ****       103.7500 265.5000 359.2500 Du        
   4631 ****       103.7500 265.5000 359.5000 Du        
   4632 ****       103.7500 265.7500 358.0000 Du        
   4633 ****       103.7500 265.7500 358.2500 Du        
   4634 ****       103.7500 265.7500 358.5000 Du        
   4635 ****       103.7500 265.7500 358.7500 Du        
   4636 ****       103.7500 265.7500 359.0000 Du        
   4637 ****       103.7500 265.7500 359.2500 Du        
   4638 ****       103.7500 265.7500 359.5000 Du        
   4639 ****       103.7500 266.0000 358.0000 Du        
   4640 ****       103.7500 266.0000 358.2500 Du        
   4641 ****       103.7500 266.0000 358.5000 Du        
   4642 ****       103.7500 266.0000 358.7500 Du        
   4643 ****       103.7500 266.0000 359.0000 Du        
   4644 ****       103.7500 266.0000 359.2500 Du        
   4645 ****       103.7500 266.2500 358.0000 Du        
   4646 ****       103.7500 266.2500 358.2500 Du        
   4647 ****       103.7500 266.2500 358.5000 Du        
   4648 ****       103.7500 266.2500 358.7500 Du        
   4649 ****       103.7500 268.7500 355.7500 Du        
   4650 ****       103.7500 268.7500 356.0000 Du        
   4651 ****       103.7500 268.7500 356.2500 Du        
   4652 ****       103.7500 268.7500 356.5000 Du        
   4653 ****       103.7500 268.7500 356.7500 Du        
   4654 ****       103.7500 269.0000 355.5000 Du        
   4655 ****       103.7500 269.0000 355.7500 Du        
   4656 ****       103.7500 269.0000 356.0000 Du        
   4657 ****       103.7500 269.0000 356.2500 Du        
   4658 ****       103.7500 269.0000 356.5000 Du        
   4659 ****       103.7500 269.0000 356.7500 Du        
   4660 ****       103.7500 269.2500 355.2500 Du        
   4661 ****       103.7500 269.2500 355.5000 Du        
   4662 ****       103.7500 269.2500 355.7500 Du        
   4663 ****       103.7500 269.2500 356.0000 Du        
   4664 ****       103.7500 269.2500 356.2500 Du        
   4665 ****       103.7500 269.2500 356.5000 Du        
   4666 ****       103.7500 269.2500 356.7500 Du        
   4667 ****       104.0000 263.5000 358.5000 Du        
   4668 ****       104.0000 263.5000 358.7500 Du        
   4669 ****       104.0000 263.7500 358.2500 Du        
   4670 ****       104.0000 263.7500 358.5000 Du        
   4671 ****       104.0000 263.7500 358.7500 Du        
   4672 ****       104.0000 263.7500 359.0000 Du        
   4673 ****       104.0000 264.0000 358.0000 Du        
   4674 ****       104.0000 264.0000 358.2500 Du        
   4675 ****       104.0000 264.0000 358.5000 Du        
   4676 ****       104.0000 264.0000 358.7500 Du        
   4677 ****       104.0000 264.0000 359.0000 Du        
   4678 ****       104.0000 264.2500 358.0000 Du        
   4679 ****       104.0000 264.2500 358.2500 Du        
   4680 ****       104.0000 264.2500 358.5000 Du        
   4681 ****       104.0000 264.2500 358.7500 Du        
   4682 ****       104.0000 264.2500 359.0000 Du        
   4683 ****       104.0000 264.5000 358.0000 Du        
   4684 ****       104.0000 264.5000 358.2500 Du        
   4685 ****       104.0000 264.5000 358.5000 Du        
   4686 ****       104.0000 264.5000 358.7500 Du        
   4687 ****       104.0000 264.5000 359.0000 Du        
   4688 ****       104.0000 264.5000 359.2500 Du        
   4689 ****       104.0000 264.7500 358.0000 Du        
   4690 ****       104.0000 264.7500 358.2500 Du        
   4691 ****       104.0000 264.7500 358.5000 Du        
   4692 ****       104.0000 264.7500 358.7500 Du        
   4693 ****       104.0000 264.7500 359.0000 Du        
   4694 ****       104.0000 264.7500 359.2500 Du        
   4695 ****       104.0000 265.0000 358.0000 Du        
   4696 ****       104.0000 265.0000 358.2500 Du        
   4697 ****       104.0000 265.0000 358.5000 Du        
   4698 ****       104.0000 265.0000 358.7500 Du        
   4699 ****       104.0000 265.0000 359.0000 Du        
   4700 ****       104.0000 265.0000 359.2500 Du        
   4701 ****       104.0000 265.2500 358.0000 Du        
   4702 ****       104.0000 265.2500 358.2500 Du        
   4703 ****       104.0000 265.2500 358.5000 Du        
   4704 ****       104.0000 265.2500 358.7500 Du        
   4705 ****       104.0000 265.2500 359.0000 Du        
   4706 ****       104.0000 265.2500 359.2500 Du        
   4707 ****       104.0000 265.2500 359.5000 Du        
   4708 ****       104.0000 265.5000 358.2500 Du        
   4709 ****       104.0000 265.5000 358.5000 Du        
   4710 ****       104.0000 265.5000 358.7500 Du        
   4711 ****       104.0000 265.5000 359.0000 Du        
   4712 ****       104.0000 265.5000 359.2500 Du        
   4713 ****       104.0000 265.5000 359.5000 Du        
   4714 ****       104.0000 265.7500 358.2500 Du        
   4715 ****       104.0000 265.7500 358.5000 Du        
   4716 ****       104.0000 265.7500 358.7500 Du        
   4717 ****       104.0000 265.7500 359.0000 Du        
   4718 ****       104.0000 265.7500 359.2500 Du        
   4719 ****       104.0000 265.7500 359.5000 Du        
   4720 ****       104.0000 266.0000 358.2500 Du        
   4721 ****       104.0000 266.0000 358.5000 Du        
   4722 ****       104.0000 266.0000 358.7500 Du        
   4723 ****       104.0000 266.0000 359.0000 Du        
   4724 ****       104.0000 268.7500 356.0000 Du        
   4725 ****       104.0000 269.0000 355.7500 Du        
   4726 ****       104.0000 269.0000 356.0000 Du        
   4727 ****       104.0000 269.0000 356.2500 Du        
   4728 ****       104.0000 269.0000 356.5000 Du        
   4729 ****       104.0000 269.2500 355.7500 Du        
   4730 ****       104.0000 269.2500 356.0000 Du        
   4731 ****       104.0000 269.2500 356.2500 Du        
   4732 ****       104.0000 269.2500 356.5000 Du        
   4733 ****       104.2500 263.7500 358.2500 Du        
   4734 ****       104.2500 263.7500 358.5000 Du        
   4735 ****       104.2500 264.0000 358.0000 Du        
   4736 ****       104.2500 264.0000 358.2500 Du        
   4737 ****       104.2500 264.0000 358.5000 Du        
   4738 ****       104.2500 264.0000 358.7500 Du        
   4739 ****       104.2500 264.2500 358.0000 Du        
   4740 ****       104.2500 264.2500 358.2500 Du        
   4741 ****       104.2500 264.2500 358.5000 Du        
   4742 ****       104.2500 264.2500 358.7500 Du        
   4743 ****       104.2500 264.2500 359.0000 Du        
   4744 ****       104.2500 264.5000 358.0000 Du        
   4745 ****       104.2500 264.5000 358.2500 Du        
   4746 ****       104.2500 264.5000 358.5000 Du        
   4747 ****       104.2500 264.5000 358.7500 Du        
   4748 ****       104.2500 264.5000 359.0000 Du        
   4749 ****       104.2500 264.7500 358.0000 Du        
   4750 ****       104.2500 264.7500 358.2500 Du        
   4751 ****       104.2500 264.7500 358.5000 Du        
   4752 ****       104.2500 264.7500 358.7500 Du        
   4753 ****       104.2500 264.7500 359.0000 Du        
   4754 ****       104.2500 264.7500 359.2500 Du        
   4755 ****       104.2500 265.0000 358.0000 Du        
   4756 ****       104.2500 265.0000 358.2500 Du        
   4757 ****       104.2500 265.0000 358.5000 Du        
   4758 ****       104.2500 265.0000 358.7500 Du        
   4759 ****       104.2500 265.0000 359.0000 Du        
   4760 ****       104.2500 265.0000 359.2500 Du        
   4761 ****       104.2500 265.2500 358.2500 Du        
   4762 ****       104.2500 265.2500 358.5000 Du        
   4763 ****       104.2500 265.2500 358.7500 Du        
   4764 ****       104.2500 265.2500 359.0000 Du        
   4765 ****       104.2500 265.2500 359.2500 Du        
   4766 ****       104.2500 265.5000 358.5000 Du        
   4767 ****       104.2500 265.5000 358.7500 Du        
   4768 ****       104.2500 265.5000 359.0000 Du        
   4769 ****       104.2500 265.5000 359.2500 Du        
   4770 ****       104.2500 265.7500 358.7500 Du        
   4771 ****       104.2500 269.2500 355.7500 Du        
   4772 ****       104.2500 269.2500 356.0000 Du        
   4773 ****       104.2500 269.2500 356.2500 Du        
   4774 ****       104.5000 264.2500 358.2500 Du        
   4775 ****       104.5000 264.5000 358.2500 Du        
   4776 ****       104.5000 264.5000 358.5000 Du        
   4777 ****       104.5000 264.5000 358.7500 Du        
   4778 ****       104.5000 264.7500 358.2500 Du        
   4779 ****       104.5000 264.7500 358.5000 Du        
   4780 ****       104.5000 264.7500 358.7500 Du        
   4781 ****       104.5000 265.0000 358.2500 Du        
   4782 ****       104.5000 265.0000 358.5000 Du        
   4783 ****       104.5000 265.0000 358.7500 Du        
