#       Name:                CT1002167954
#       Creating user name   hitesit
#       Creation time:       Sun Apr 16 02:23:20 2023


#       File generated by GOLD software.
#

@<TRIPOS>MOLECULE
CT1002167954|ligand_prepared|mol2|1|dock10
    29    30     1
SMALL
NO_CHARGES


@<TRIPOS>ATOM
      1 C1          98.1287 261.9487 359.7501 C.3            1 RES1               0.0000
      2 C2          98.8574 263.3079 359.7744 C.ar           1 RES1               0.0000
      3 C3          96.8300 262.1725 358.9809 C.2            1 RES1               0.0000
      4 C4          99.0841 260.9643 359.0846 C.2            1 RES1               0.0000
      5 C5          97.7802 261.4015 361.1538 C.3            1 RES1               0.0000
      6 C6         100.0272 263.4979 359.0449 C.ar           1 RES1               0.0000
      7 C7          98.3713 264.3799 360.5180 C.ar           1 RES1               0.0000
      8 N8          96.7500 261.6688 357.7161 N.am           1 RES1               0.0000
      9 O9          95.9051 262.8153 359.4621 O.2            1 RES1               0.0000
     10 N10         98.7200 260.4345 357.8745 N.am           1 RES1               0.0000
     11 O11        100.1565 260.6554 359.5894 O.2            1 RES1               0.0000
     12 C12         97.1079 260.0377 361.1307 C.3            1 RES1               0.0000
     13 C13        100.6857 264.7163 359.0561 C.ar           1 RES1               0.0000
     14 C14         99.0315 265.5975 360.5280 C.ar           1 RES1               0.0000
     15 C15         97.6104 260.7656 357.1455 C.2            1 RES1               0.0000
     16 C16        100.1882 265.7669 359.7972 C.ar           1 RES1               0.0000
     17 O17         97.3790 260.2861 356.0393 O.2            1 RES1               0.0000
     18 H18         98.7021 261.3307 361.7441 H              1 RES1               0.0000
     19 H19         97.1146 262.1147 361.6556 H              1 RES1               0.0000
     20 H20        100.4351 262.6818 358.4578 H              1 RES1               0.0000
     21 H21         97.4636 264.2692 361.1015 H              1 RES1               0.0000
     22 H22         95.9790 261.9937 357.1413 H              1 RES1               0.0000
     23 H23         99.3329 259.7277 357.4806 H              1 RES1               0.0000
     24 H24         96.8850 259.7004 362.1408 H              1 RES1               0.0000
     25 H25         96.1746 260.0772 360.5729 H              1 RES1               0.0000
     26 H26         97.7526 259.2978 360.6609 H              1 RES1               0.0000
     27 H27        101.5964 264.8441 358.4803 H              1 RES1               0.0000
     28 H28         98.6367 266.4214 361.1132 H              1 RES1               0.0000
     29 H29        100.7040 266.7214 359.8054 H              1 RES1               0.0000
@<TRIPOS>BOND
    1    1    2 1     
    2    1    3 1     
    3    1    4 1     
    4    1    5 1     
    5    2    6 ar    
    6    2    7 ar    
    7    3    8 1     
    8    3    9 2     
    9    4   10 1     
   10    4   11 2     
   11    5   12 1     
   12    5   18 1     
   13    5   19 1     
   14    6   13 ar    
   15    6   20 1     
   16    7   14 ar    
   17    7   21 1     
   18    8   15 1     
   19    8   22 1     
   20   10   15 1     
   21   10   23 1     
   22   12   24 1     
   23   12   25 1     
   24   12   26 1     
   25   13   16 ar    
   26   13   27 1     
   27   14   16 ar    
   28   14   28 1     
   29   15   17 2     
   30   16   29 1     
@<TRIPOS>SUBSTRUCTURE
      1 RES1           1
@<TRIPOS>SET
DONOR_HYDROGENS      STATIC     ATOMS    <user>   **** ""
2 22 23
ATOM$RED        STATIC     ATOMS    COLORGROUP SYSTEM
2 22 23
@<TRIPOS>COMMENT
> <Gold.Version>
2022.3.0

> <Gold.Id.Protein>
unknown|5uo4_clean|pdb

> <Gold.Protein.RotatedTorsions>
[  757  738  737  736 ] final  -21.99 input   60.01 | X-H torsion
[ 3212 3191 3190 3188 ] final   31.80 input   60.02 | X-H torsion
[ 2025 2009 2008 2005 ] final -158.87 input   60.00 | X-H torsion
[ 2041 2031 2030 2027 ] final  129.05 input   59.98 | X-H torsion

> <Gold.Protein.ActiveResidues>
 LEU321  LEU323  LYS324  SER325  THR326  GLU365  PHE366  GLN369  TYR370  SER372 
 SER373  TYR408  HIS412  ARG415  ASN416  TRP426  GLU670  CYS673  ARG674  GLY675 
 PRO678  TYR703  ARG704  LEU705  THR706  PRO707 

> <Gold.Protein.RotatedAtoms>
   98.2137  264.6542  356.7805 H   0  0  0  0  0  0  0  0  0  0  0  0  # atno 757  bound_to 738 
   97.6603  265.7134  357.9285 H   0  0  0  0  0  0  0  0  0  0  0  0  # atno 758  bound_to 738 
   96.8267  265.5199  356.5099 H   0  0  0  0  0  0  0  0  0  0  0  0  # atno 759  bound_to 738 
   94.2032  263.8571  361.8149 H   0  0  0  0  0  0  0  0  0  0  0  0  # atno 2025 bound_to 2009
   97.5953  258.6240  367.2845 H   0  0  0  0  0  0  0  0  0  0  0  0  # atno 2041 bound_to 2031
   99.5230  260.1660  364.2244 H   0  0  0  0  0  0  0  0  0  0  0  0  # atno 3212 bound_to 3191
  101.0071  259.9388  363.5970 LP  0  0  0  0  0  0  0  0  0  0  0  0  # atno 13532 bound_to 3191
  100.6293  261.3559  364.3152 LP  0  0  0  0  0  0  0  0  0  0  0  0  # atno 13533 bound_to 3191
   93.1161  264.6033  362.7688 LP  0  0  0  0  0  0  0  0  0  0  0  0  # atno 13548 bound_to 2009
   93.2789  262.9795  362.8267 LP  0  0  0  0  0  0  0  0  0  0  0  0  # atno 13549 bound_to 2009
   96.3736  259.6696  367.5337 LP  0  0  0  0  0  0  0  0  0  0  0  0  # atno 13551 bound_to 2031
   97.8562  260.2227  367.1304 LP  0  0  0  0  0  0  0  0  0  0  0  0  # atno 13552 bound_to 2031

> <Gold.Score>
     Fitness  S(hb_ext) S(vdw_ext)  S(hb_int)    S(int)      intcor
     29.40       3.75      20.47       0.00      -2.49      -0.76

> <Gold.Goldscore.Fitness>
29.3993

> <Gold.Goldscore.Internal.Vdw>
-2.8768

> <Gold.Goldscore.Internal.Torsion>
-0.3742

> <Gold.Goldscore.External.Vdw>
20.4678

> <Gold.Goldscore.Internal.HBond>
0.0000

> <Gold.Goldscore.External.HBond>
3.7486

> <Gold.Goldscore.Internal.Correction>
-0.7585

> <Gold.Goldscore.Hbonds>
donor molecule, donor type, donor heavy atom, donor atom, acceptor molecule, acceptor atom, score
      P1  H 11754 11790       L1    11  0.03
      P1  H 11757 11794       L1    11  0.57
      P1  H  2009  2025       L1     9  0.08

> <Gold.Goldscore.Internal.Vdw.Weighted>
-2.8768

> <Gold.Goldscore.Internal.Torsion.Weighted>
-0.3742

> <Gold.Goldscore.External.Vdw.Weighted>
28.1432

> <Gold.Goldscore.Internal.HBond.Weighted>
0.0000

> <Gold.Goldscore.External.HBond.Weighted>
3.7486

> <Gold.Goldscore.Internal.Correction.Weighted>
-0.7585

> <Gold.Rescore>
     Score     S(PLP)   S(hbond)     S(cho)   S(metal)  DE(clash)   DE(tors)     intcor
     30.33     -29.65       1.00       0.00       0.00       2.11       0.11       ----

> <Gold.PLP.Fitness>
30.3274

> <Gold.PLP.PLP>
-29.6523

> <Gold.PLP.part.hbond>
-1.0000

> <Gold.PLP.part.metal>
0.0000

> <Gold.PLP.part.buried>
-4.1118

> <Gold.PLP.part.nonpolar>
-24.1576

> <Gold.PLP.part.repulsive>
0.1895

> <Gold.PLP.ligand.clash>
2.1141

> <Gold.PLP.ligand.torsion>
0.1054

> <Gold.PLP.Chemscore.Hbond>
1.0000

> <Gold.PLP.Chemscore.CHOScore>
0.0000

> <Gold.PLP.Chemscore.Metal>
0.0000

> <Gold.PLP.Chemscore.Internal.Correction>
   9.000000E+99

