#       Name:                CT1002167954
#       Creating user name   hitesit
#       Creation time:       Sun Apr 16 02:23:17 2023


#       File generated by GOLD software.
#

@<TRIPOS>MOLECULE
CT1002167954|ligand_prepared|mol2|1|dock5
    29    30     1
SMALL
NO_CHARGES


@<TRIPOS>ATOM
      1 C1          97.6150 262.8648 359.6201 C.3            1 RES1               0.0000
      2 C2          98.5750 264.0460 359.8690 C.ar           1 RES1               0.0000
      3 C3          98.0068 262.2716 358.2700 C.2            1 RES1               0.0000
      4 C4          97.7982 261.9111 360.7955 C.2            1 RES1               0.0000
      5 C5          96.1243 263.2725 359.5635 C.3            1 RES1               0.0000
      6 C6          99.8380 264.0678 359.2850 C.ar           1 RES1               0.0000
      7 C7          98.2115 265.1203 360.6767 C.ar           1 RES1               0.0000
      8 N8          98.6679 261.0787 358.2719 N.am           1 RES1               0.0000
      9 O9          97.7742 262.8605 357.2215 O.2            1 RES1               0.0000
     10 N10         98.3294 260.6738 360.5415 N.am           1 RES1               0.0000
     11 O11         97.5029 262.2261 361.9417 O.2            1 RES1               0.0000
     12 C12         95.2045 262.1666 359.0704 C.3            1 RES1               0.0000
     13 C13        100.7051 265.1267 359.4982 C.ar           1 RES1               0.0000
     14 C14         99.0802 266.1781 360.8888 C.ar           1 RES1               0.0000
     15 C15         98.8011 260.2256 359.3378 C.2            1 RES1               0.0000
     16 C16        100.3267 266.1826 360.2997 C.ar           1 RES1               0.0000
     17 O17         99.3153 259.1195 359.1998 O.2            1 RES1               0.0000
     18 H18         95.8033 263.5775 360.5672 H              1 RES1               0.0000
     19 H19         96.0204 264.1401 358.9002 H              1 RES1               0.0000
     20 H20        100.1542 263.2446 358.6531 H              1 RES1               0.0000
     21 H21         97.2362 265.1376 361.1512 H              1 RES1               0.0000
     22 H22         99.1036 260.7948 357.4002 H              1 RES1               0.0000
     23 H23         98.3776 260.0267 361.3221 H              1 RES1               0.0000
     24 H24         94.1708 262.5052 359.0500 H              1 RES1               0.0000
     25 H25         95.4793 261.8562 358.0645 H              1 RES1               0.0000
     26 H26         95.2635 261.2969 359.7215 H              1 RES1               0.0000
     27 H27        101.6855 265.1248 359.0334 H              1 RES1               0.0000
     28 H28         98.7784 267.0067 361.5209 H              1 RES1               0.0000
     29 H29        101.0059 267.0121 360.4663 H              1 RES1               0.0000
@<TRIPOS>BOND
    1    1    2 1     
    2    1    3 1     
    3    1    4 1     
    4    1    5 1     
    5    2    6 ar    
    6    2    7 ar    
    7    3    8 1     
    8    3    9 2     
    9    4   10 1     
   10    4   11 2     
   11    5   12 1     
   12    5   18 1     
   13    5   19 1     
   14    6   13 ar    
   15    6   20 1     
   16    7   14 ar    
   17    7   21 1     
   18    8   15 1     
   19    8   22 1     
   20   10   15 1     
   21   10   23 1     
   22   12   24 1     
   23   12   25 1     
   24   12   26 1     
   25   13   16 ar    
   26   13   27 1     
   27   14   16 ar    
   28   14   28 1     
   29   15   17 2     
   30   16   29 1     
@<TRIPOS>SUBSTRUCTURE
      1 RES1           1
@<TRIPOS>SET
DONOR_HYDROGENS      STATIC     ATOMS    <user>   **** ""
2 22 23
ATOM$RED        STATIC     ATOMS    COLORGROUP SYSTEM
2 22 23
@<TRIPOS>COMMENT
> <Gold.Version>
2022.3.0

> <Gold.Id.Protein>
unknown|5uo4_clean|pdb

> <Gold.Protein.RotatedTorsions>
[  757  738  737  736 ] final  128.14 input   60.01 | X-H torsion
[ 3212 3191 3190 3188 ] final  -30.81 input   60.02 | X-H torsion
[ 2025 2009 2008 2005 ] final -126.95 input   60.00 | X-H torsion
[ 2041 2031 2030 2027 ] final  -56.06 input   59.98 | X-H torsion

> <Gold.Protein.ActiveResidues>
 LEU321  LEU323  LYS324  SER325  THR326  GLU365  PHE366  GLN369  TYR370  SER372 
 SER373  TYR408  HIS412  ARG415  ASN416  TRP426  GLU670  CYS673  ARG674  GLY675 
 PRO678  TYR703  ARG704  LEU705  THR706  PRO707 

> <Gold.Protein.RotatedAtoms>
   97.2449  265.9075  357.7348 H   0  0  0  0  0  0  0  0  0  0  0  0  # atno 757  bound_to 738 
   97.0873  265.1833  356.2527 H   0  0  0  0  0  0  0  0  0  0  0  0  # atno 758  bound_to 738 
   98.3674  264.7972  357.2309 H   0  0  0  0  0  0  0  0  0  0  0  0  # atno 759  bound_to 738 
   94.1516  263.3582  361.9315 H   0  0  0  0  0  0  0  0  0  0  0  0  # atno 2025 bound_to 2009
   97.0327  260.4071  367.3245 H   0  0  0  0  0  0  0  0  0  0  0  0  # atno 2041 bound_to 2031
  100.1807  259.6173  363.7631 H   0  0  0  0  0  0  0  0  0  0  0  0  # atno 3212 bound_to 3191
  101.2412  260.8454  363.8860 LP  0  0  0  0  0  0  0  0  0  0  0  0  # atno 13532 bound_to 3191
   99.7326  261.0019  364.4910 LP  0  0  0  0  0  0  0  0  0  0  0  0  # atno 13533 bound_to 3191
   93.4623  264.7518  362.4125 LP  0  0  0  0  0  0  0  0  0  0  0  0  # atno 13548 bound_to 2009
   92.9847  263.3333  363.0656 LP  0  0  0  0  0  0  0  0  0  0  0  0  # atno 13549 bound_to 2009
   98.1614  259.2551  367.1086 LP  0  0  0  0  0  0  0  0  0  0  0  0  # atno 13551 bound_to 2031
   96.6351  258.8408  367.5151 LP  0  0  0  0  0  0  0  0  0  0  0  0  # atno 13552 bound_to 2031

> <Gold.Score>
     Fitness  S(hb_ext) S(vdw_ext)  S(hb_int)    S(int)      intcor
     34.10       6.00      21.04       0.00      -0.83      -0.76

> <Gold.Goldscore.Fitness>
34.0997

> <Gold.Goldscore.Internal.Vdw>
-1.0447

> <Gold.Goldscore.Internal.Torsion>
-0.5458

> <Gold.Goldscore.External.Vdw>
21.0413

> <Gold.Goldscore.Internal.HBond>
0.0000

> <Gold.Goldscore.External.HBond>
6.0000

> <Gold.Goldscore.Internal.Correction>
-0.7585

> <Gold.Goldscore.Hbonds>
donor molecule, donor type, donor heavy atom, donor atom, acceptor molecule, acceptor atom, score
      P1  H 11754 11790       L1    17  1.00

> <Gold.Goldscore.Internal.Vdw.Weighted>
-1.0447

> <Gold.Goldscore.Internal.Torsion.Weighted>
-0.5458

> <Gold.Goldscore.External.Vdw.Weighted>
28.9318

> <Gold.Goldscore.Internal.HBond.Weighted>
0.0000

> <Gold.Goldscore.External.HBond.Weighted>
6.0000

> <Gold.Goldscore.Internal.Correction.Weighted>
-0.7585

> <Gold.Rescore>
     Score     S(PLP)   S(hbond)     S(cho)   S(metal)  DE(clash)   DE(tors)     intcor
     37.66     -31.34       2.82       0.00       0.00       0.03       1.06       ----

> <Gold.PLP.Fitness>
37.6604

> <Gold.PLP.PLP>
-31.3417

> <Gold.PLP.part.hbond>
-3.0000

> <Gold.PLP.part.metal>
0.0000

> <Gold.PLP.part.buried>
-4.0703

> <Gold.PLP.part.nonpolar>
-23.9179

> <Gold.PLP.part.repulsive>
0.1879

> <Gold.PLP.ligand.clash>
0.0328

> <Gold.PLP.ligand.torsion>
1.0609

> <Gold.PLP.Chemscore.Hbond>
2.8244

> <Gold.PLP.Chemscore.CHOScore>
0.0000

> <Gold.PLP.Chemscore.Metal>
0.0000

> <Gold.Chemscore.Hbonds>
donor molecule, donor type, donor heavy atom, donor atom, acceptor molecule, acceptor atom, score
      P1  H   738   759       L1     9  0.43
      P1  H 11754 11790       L1    17  1.00

> <Gold.PLP.Chemscore.Internal.Correction>
   9.000000E+99

