#       Name:                CT1002167954
#       Creating user name   hitesit
#       Creation time:       Sun Apr 16 02:23:18 2023


#       File generated by GOLD software.
#

@<TRIPOS>MOLECULE
CT1002167954|ligand_prepared|mol2|1|dock7
    29    30     1
SMALL
NO_CHARGES


@<TRIPOS>ATOM
      1 C1         100.1317 262.3113 359.1318 C.3            1 RES1               0.0000
      2 C2          99.9419 263.7705 359.5939 C.ar           1 RES1               0.0000
      3 C3         101.4798 262.2595 358.4189 C.2            1 RES1               0.0000
      4 C4         100.0597 261.4527 360.3897 C.2            1 RES1               0.0000
      5 C5          99.0396 261.8186 358.1540 C.3            1 RES1               0.0000
      6 C6          98.7198 264.1994 360.1030 C.ar           1 RES1               0.0000
      7 C7         100.9787 264.6970 359.5197 C.ar           1 RES1               0.0000
      8 N8         102.5161 261.6578 359.0700 N.am           1 RES1               0.0000
      9 O9         101.6411 262.7736 357.3189 O.2            1 RES1               0.0000
     10 N10        101.1910 260.7823 360.7751 N.am           1 RES1               0.0000
     11 O11         99.0383 261.3639 361.0599 O.2            1 RES1               0.0000
     12 C12         99.1167 260.3311 357.8477 C.3            1 RES1               0.0000
     13 C13         98.5413 265.5062 360.5256 C.ar           1 RES1               0.0000
     14 C14        100.7980 266.0035 359.9426 C.ar           1 RES1               0.0000
     15 C15        102.4245 260.8704 360.1894 C.2            1 RES1               0.0000
     16 C16         99.5802 266.4090 360.4461 C.ar           1 RES1               0.0000
     17 O17        103.4075 260.2791 360.6267 O.2            1 RES1               0.0000
     18 H18         98.0549 262.0400 358.5837 H              1 RES1               0.0000
     19 H19         99.1288 262.3775 357.2143 H              1 RES1               0.0000
     20 H20         97.8900 263.5038 360.1710 H              1 RES1               0.0000
     21 H21        101.9450 264.4006 359.1261 H              1 RES1               0.0000
     22 H22        103.4451 261.8073 358.6894 H              1 RES1               0.0000
     23 H23        101.1057 260.1599 361.5724 H              1 RES1               0.0000
     24 H24         98.3286 260.0381 357.1574 H              1 RES1               0.0000
     25 H25        100.0739 260.0794 357.3958 H              1 RES1               0.0000
     26 H26         99.0064 259.7439 358.7571 H              1 RES1               0.0000
     27 H27         97.5806 265.8207 360.9198 H              1 RES1               0.0000
     28 H28        101.6182 266.7108 359.8776 H              1 RES1               0.0000
     29 H29         99.4403 267.4326 360.7775 H              1 RES1               0.0000
@<TRIPOS>BOND
    1    1    2 1     
    2    1    3 1     
    3    1    4 1     
    4    1    5 1     
    5    2    6 ar    
    6    2    7 ar    
    7    3    8 1     
    8    3    9 2     
    9    4   10 1     
   10    4   11 2     
   11    5   12 1     
   12    5   18 1     
   13    5   19 1     
   14    6   13 ar    
   15    6   20 1     
   16    7   14 ar    
   17    7   21 1     
   18    8   15 1     
   19    8   22 1     
   20   10   15 1     
   21   10   23 1     
   22   12   24 1     
   23   12   25 1     
   24   12   26 1     
   25   13   16 ar    
   26   13   27 1     
   27   14   16 ar    
   28   14   28 1     
   29   15   17 2     
   30   16   29 1     
@<TRIPOS>SUBSTRUCTURE
      1 RES1           1
@<TRIPOS>SET
DONOR_HYDROGENS      STATIC     ATOMS    <user>   **** ""
2 22 23
ATOM$RED        STATIC     ATOMS    COLORGROUP SYSTEM
2 22 23
@<TRIPOS>COMMENT
> <Gold.Version>
2022.3.0

> <Gold.Id.Protein>
unknown|5uo4_clean|pdb

> <Gold.Protein.RotatedTorsions>
[  757  738  737  736 ] final -122.38 input   60.01 | X-H torsion
[ 3212 3191 3190 3188 ] final   18.53 input   60.02 | X-H torsion
[ 2025 2009 2008 2005 ] final  172.65 input   60.00 | X-H torsion
[ 2041 2031 2030 2027 ] final  -70.63 input   59.98 | X-H torsion

> <Gold.Protein.ActiveResidues>
 LEU321  LEU323  LYS324  SER325  THR326  GLU365  PHE366  GLN369  TYR370  SER372 
 SER373  TYR408  HIS412  ARG415  ASN416  TRP426  GLU670  CYS673  ARG674  GLY675 
 PRO678  TYR703  ARG704  LEU705  THR706  PRO707 

> <Gold.Protein.RotatedAtoms>
   96.9765  265.3014  356.3195 H   0  0  0  0  0  0  0  0  0  0  0  0  # atno 757  bound_to 738 
   98.3378  264.7296  357.0719 H   0  0  0  0  0  0  0  0  0  0  0  0  # atno 758  bound_to 738 
   97.3860  265.8562  357.8265 H   0  0  0  0  0  0  0  0  0  0  0  0  # atno 759  bound_to 738 
   94.0779  264.2958  361.8783 H   0  0  0  0  0  0  0  0  0  0  0  0  # atno 2025 bound_to 2009
   97.2607  260.4378  367.2656 H   0  0  0  0  0  0  0  0  0  0  0  0  # atno 2041 bound_to 2031
   99.5957  259.9880  364.1252 H   0  0  0  0  0  0  0  0  0  0  0  0  # atno 3212 bound_to 3191
  101.1380  260.1113  363.6211 LP  0  0  0  0  0  0  0  0  0  0  0  0  # atno 13532 bound_to 3191
  100.4251  261.3625  364.3911 LP  0  0  0  0  0  0  0  0  0  0  0  0  # atno 13533 bound_to 3191
   92.9114  264.2662  363.0127 LP  0  0  0  0  0  0  0  0  0  0  0  0  # atno 13548 bound_to 2009
   93.6097  262.8750  362.5190 LP  0  0  0  0  0  0  0  0  0  0  0  0  # atno 13549 bound_to 2009
   98.0754  259.0347  367.1428 LP  0  0  0  0  0  0  0  0  0  0  0  0  # atno 13551 bound_to 2031
   96.4916  259.0304  367.5404 LP  0  0  0  0  0  0  0  0  0  0  0  0  # atno 13552 bound_to 2031

> <Gold.Score>
     Fitness  S(hb_ext) S(vdw_ext)  S(hb_int)    S(int)      intcor
     37.00       2.20      27.20       0.00      -2.61      -0.76

> <Gold.Goldscore.Fitness>
36.9985

> <Gold.Goldscore.Internal.Vdw>
-2.9002

> <Gold.Goldscore.Internal.Torsion>
-0.4639

> <Gold.Goldscore.External.Vdw>
27.2005

> <Gold.Goldscore.Internal.HBond>
0.0000

> <Gold.Goldscore.External.HBond>
2.2034

> <Gold.Goldscore.Internal.Correction>
-0.7585

> <Gold.Goldscore.Hbonds>
donor molecule, donor type, donor heavy atom, donor atom, acceptor molecule, acceptor atom, score
      P1  H  3307  3333       L1    17  0.10
      P1  H  3456  3476       L1    17  1.00

> <Gold.Goldscore.Internal.Vdw.Weighted>
-2.9002

> <Gold.Goldscore.Internal.Torsion.Weighted>
-0.4639

> <Gold.Goldscore.External.Vdw.Weighted>
37.4007

> <Gold.Goldscore.Internal.HBond.Weighted>
0.0000

> <Gold.Goldscore.External.HBond.Weighted>
2.2034

> <Gold.Goldscore.Internal.Correction.Weighted>
-0.7585

> <Gold.Rescore>
     Score     S(PLP)   S(hbond)     S(cho)   S(metal)  DE(clash)   DE(tors)     intcor
     26.09     -25.53       0.91       0.00       0.00       0.92       0.63       ----

> <Gold.PLP.Fitness>
26.0852

> <Gold.PLP.PLP>
-25.5317

> <Gold.PLP.part.hbond>
-2.7964

> <Gold.PLP.part.metal>
0.0000

> <Gold.PLP.part.buried>
4.5886

> <Gold.PLP.part.nonpolar>
-29.2327

> <Gold.PLP.part.repulsive>
0.8838

> <Gold.PLP.ligand.clash>
0.9221

> <Gold.PLP.ligand.torsion>
0.6272

> <Gold.PLP.Chemscore.Hbond>
0.9100

> <Gold.PLP.Chemscore.CHOScore>
0.0000

> <Gold.PLP.Chemscore.Metal>
0.0000

> <Gold.Chemscore.Hbonds>
donor molecule, donor type, donor heavy atom, donor atom, acceptor molecule, acceptor atom, score
      P1  H  3456  3476       L1    17  0.75

> <Gold.PLP.Chemscore.Internal.Correction>
   9.000000E+99

