#       Name:                CT1002167954
#       Creating user name   hitesit
#       Creation time:       Sun Apr 16 02:23:17 2023


#       File generated by GOLD software.
#

@<TRIPOS>MOLECULE
CT1002167954|ligand_prepared|mol2|1|dock6
    29    30     1
SMALL
NO_CHARGES


@<TRIPOS>ATOM
      1 C1          99.7553 262.0764 359.1261 C.3            1 RES1               0.0000
      2 C2          99.5224 263.5342 359.5728 C.ar           1 RES1               0.0000
      3 C3         100.9816 262.0972 358.2183 C.2            1 RES1               0.0000
      4 C4          99.9398 261.2633 360.4026 C.2            1 RES1               0.0000
      5 C5          98.5716 261.4676 358.3387 C.3            1 RES1               0.0000
      6 C6         100.5131 264.4958 359.3977 C.ar           1 RES1               0.0000
      7 C7          98.3234 263.9323 360.1580 C.ar           1 RES1               0.0000
      8 N8         102.1476 261.5988 358.7202 N.am           1 RES1               0.0000
      9 O9         100.9358 262.5796 357.0934 O.2            1 RES1               0.0000
     10 N10        101.1652 260.6934 360.6293 N.am           1 RES1               0.0000
     11 O11         99.0402 261.1249 361.2222 O.2            1 RES1               0.0000
     12 C12         98.8223 260.0478 357.8555 C.3            1 RES1               0.0000
     13 C13        100.3114 265.8085 359.7907 C.ar           1 RES1               0.0000
     14 C14         98.1239 265.2455 360.5505 C.ar           1 RES1               0.0000
     15 C15        102.2866 260.8499 359.8610 C.2            1 RES1               0.0000
     16 C16         99.1166 266.1843 360.3668 C.ar           1 RES1               0.0000
     17 O17        103.3673 260.3499 360.1594 O.2            1 RES1               0.0000
     18 H18         97.6820 261.4702 358.9806 H              1 RES1               0.0000
     19 H19         98.3605 262.1040 357.4705 H              1 RES1               0.0000
     20 H20        101.4607 264.2181 358.9483 H              1 RES1               0.0000
     21 H21         97.5287 263.2105 360.3133 H              1 RES1               0.0000
     22 H22        102.9947 261.8019 358.1991 H              1 RES1               0.0000
     23 H23        101.2492 260.0971 361.4465 H              1 RES1               0.0000
     24 H24         97.9611 259.6686 357.3094 H              1 RES1               0.0000
     25 H25         99.6855 260.0122 357.1941 H              1 RES1               0.0000
     26 H26         99.0110 259.3822 358.6952 H              1 RES1               0.0000
     27 H27        101.0964 266.5432 359.6452 H              1 RES1               0.0000
     28 H28         97.1822 265.5367 361.0041 H              1 RES1               0.0000
     29 H29         98.9587 267.2128 360.6742 H              1 RES1               0.0000
@<TRIPOS>BOND
    1    1    2 1     
    2    1    3 1     
    3    1    4 1     
    4    1    5 1     
    5    2    6 ar    
    6    2    7 ar    
    7    3    8 1     
    8    3    9 2     
    9    4   10 1     
   10    4   11 2     
   11    5   12 1     
   12    5   18 1     
   13    5   19 1     
   14    6   13 ar    
   15    6   20 1     
   16    7   14 ar    
   17    7   21 1     
   18    8   15 1     
   19    8   22 1     
   20   10   15 1     
   21   10   23 1     
   22   12   24 1     
   23   12   25 1     
   24   12   26 1     
   25   13   16 ar    
   26   13   27 1     
   27   14   16 ar    
   28   14   28 1     
   29   15   17 2     
   30   16   29 1     
@<TRIPOS>SUBSTRUCTURE
      1 RES1           1
@<TRIPOS>SET
DONOR_HYDROGENS      STATIC     ATOMS    <user>   **** ""
2 22 23
ATOM$RED        STATIC     ATOMS    COLORGROUP SYSTEM
2 22 23
@<TRIPOS>COMMENT
> <Gold.Version>
2022.3.0

> <Gold.Id.Protein>
unknown|5uo4_clean|pdb

> <Gold.Protein.RotatedTorsions>
[  757  738  737  736 ] final  -72.23 input   60.01 | X-H torsion
[ 3212 3191 3190 3188 ] final   14.93 input   60.02 | X-H torsion
[ 2025 2009 2008 2005 ] final  130.24 input   60.00 | X-H torsion
[ 2041 2031 2030 2027 ] final  137.54 input   59.98 | X-H torsion

> <Gold.Protein.ActiveResidues>
 LEU321  LEU323  LYS324  SER325  THR326  GLU365  PHE366  GLN369  TYR370  SER372 
 SER373  TYR408  HIS412  ARG415  ASN416  TRP426  GLU670  CYS673  ARG674  GLY675 
 PRO678  TYR703  ARG704  LEU705  THR706  PRO707 

> <Gold.Protein.RotatedAtoms>
   97.6106  264.7995  356.2558 H   0  0  0  0  0  0  0  0  0  0  0  0  # atno 757  bound_to 738 
   98.2422  265.1790  357.7401 H   0  0  0  0  0  0  0  0  0  0  0  0  # atno 758  bound_to 738 
   96.8478  265.9087  357.2225 H   0  0  0  0  0  0  0  0  0  0  0  0  # atno 759  bound_to 738 
   93.6659  264.7076  362.2241 H   0  0  0  0  0  0  0  0  0  0  0  0  # atno 2025 bound_to 2009
   97.7172  258.6804  367.2508 H   0  0  0  0  0  0  0  0  0  0  0  0  # atno 2041 bound_to 2031
   99.6230  259.9440  364.0973 H   0  0  0  0  0  0  0  0  0  0  0  0  # atno 3212 bound_to 3191
  101.1668  260.1620  363.6316 LP  0  0  0  0  0  0  0  0  0  0  0  0  # atno 13532 bound_to 3191
  100.3689  261.3562  364.4087 LP  0  0  0  0  0  0  0  0  0  0  0  0  # atno 13533 bound_to 3191
   92.8912  263.5932  363.1219 LP  0  0  0  0  0  0  0  0  0  0  0  0  # atno 13548 bound_to 2009
   94.0448  263.1333  362.0616 LP  0  0  0  0  0  0  0  0  0  0  0  0  # atno 13549 bound_to 2009
   96.3615  259.5311  367.5446 LP  0  0  0  0  0  0  0  0  0  0  0  0  # atno 13551 bound_to 2031
   97.7455  260.3044  367.1535 LP  0  0  0  0  0  0  0  0  0  0  0  0  # atno 13552 bound_to 2031

> <Gold.Score>
     Fitness  S(hb_ext) S(vdw_ext)  S(hb_int)    S(int)      intcor
     35.24       1.74      25.66       0.00      -1.78      -0.76

> <Gold.Goldscore.Fitness>
35.2397

> <Gold.Goldscore.Internal.Vdw>
-2.1609

> <Gold.Goldscore.Internal.Torsion>
-0.3744

> <Gold.Goldscore.External.Vdw>
25.6561

> <Gold.Goldscore.Internal.HBond>
0.0000

> <Gold.Goldscore.External.HBond>
1.7393

> <Gold.Goldscore.Internal.Correction>
-0.7585

> <Gold.Goldscore.Hbonds>
donor molecule, donor type, donor heavy atom, donor atom, acceptor molecule, acceptor atom, score
      P1  H  3307  3333       L1    17  0.17
      P1  H  3456  3476       L1    17  0.69
      L1  H    10    23       P1  3191  0.01

> <Gold.Goldscore.Internal.Vdw.Weighted>
-2.1609

> <Gold.Goldscore.Internal.Torsion.Weighted>
-0.3744

> <Gold.Goldscore.External.Vdw.Weighted>
35.2771

> <Gold.Goldscore.Internal.HBond.Weighted>
0.0000

> <Gold.Goldscore.External.HBond.Weighted>
1.7393

> <Gold.Goldscore.Internal.Correction.Weighted>
-0.7585

> <Gold.Rescore>
     Score     S(PLP)   S(hbond)     S(cho)   S(metal)  DE(clash)   DE(tors)     intcor
     32.82     -32.74       0.77       0.00       0.00       1.92       0.15       ----

> <Gold.PLP.Fitness>
32.8180

> <Gold.PLP.PLP>
-32.7378

> <Gold.PLP.part.hbond>
-1.4380

> <Gold.PLP.part.metal>
0.0000

> <Gold.PLP.part.buried>
-2.7257

> <Gold.PLP.part.nonpolar>
-27.5423

> <Gold.PLP.part.repulsive>
0.3255

> <Gold.PLP.ligand.clash>
1.9211

> <Gold.PLP.ligand.torsion>
0.1519

> <Gold.PLP.Chemscore.Hbond>
0.7684

> <Gold.PLP.Chemscore.CHOScore>
0.0000

> <Gold.PLP.Chemscore.Metal>
0.0000

> <Gold.Chemscore.Hbonds>
donor molecule, donor type, donor heavy atom, donor atom, acceptor molecule, acceptor atom, score
      P1  H  3456  3476       L1    17  0.73

> <Gold.PLP.Chemscore.Internal.Correction>
   9.000000E+99

