#       Name:                CT1002167954
#       Creating user name   hitesit
#       Creation time:       Sun Apr 16 02:23:18 2023


#       File generated by GOLD software.
#

@<TRIPOS>MOLECULE
CT1002167954|ligand_prepared|mol2|1|dock8
    29    30     1
SMALL
NO_CHARGES


@<TRIPOS>ATOM
      1 C1          97.7003 262.4216 360.1912 C.3            1 RES1               0.0000
      2 C2          98.0074 263.9186 360.3995 C.ar           1 RES1               0.0000
      3 C3          98.3797 262.0226 358.8845 C.2            1 RES1               0.0000
      4 C4          98.2424 261.6998 361.4199 C.2            1 RES1               0.0000
      5 C5          96.1912 262.1034 360.0772 C.3            1 RES1               0.0000
      6 C6          99.1906 264.4726 359.9201 C.ar           1 RES1               0.0000
      7 C7          97.1178 264.7572 361.0657 C.ar           1 RES1               0.0000
      8 N8          99.5092 261.2626 358.9660 N.am           1 RES1               0.0000
      9 O9          97.9534 262.4021 357.8007 O.2            1 RES1               0.0000
     10 N10         99.2881 260.8316 361.2453 N.am           1 RES1               0.0000
     11 O11         97.7842 261.8876 362.5402 O.2            1 RES1               0.0000
     12 C12         95.8970 260.6916 359.5951 C.3            1 RES1               0.0000
     13 C13         99.4729 265.8169 360.0975 C.ar           1 RES1               0.0000
     14 C14         97.4021 266.1013 361.2423 C.ar           1 RES1               0.0000
     15 C15         99.9661 260.6035 360.0789 C.2            1 RES1               0.0000
     16 C16         98.5788 266.6322 360.7582 C.ar           1 RES1               0.0000
     17 O17        100.9320 259.8486 360.0126 O.2            1 RES1               0.0000
     18 H18         95.7252 262.2451 361.0601 H              1 RES1               0.0000
     19 H19         95.7314 262.8168 359.3821 H              1 RES1               0.0000
     20 H20         99.9074 263.8461 359.3997 H              1 RES1               0.0000
     21 H21         96.1864 264.3611 361.4560 H              1 RES1               0.0000
     22 H22        100.0656 261.1765 358.1215 H              1 RES1               0.0000
     23 H23         99.5889 260.3067 362.0603 H              1 RES1               0.0000
     24 H24         94.8243 260.5209 359.5330 H              1 RES1               0.0000
     25 H25         96.3245 260.5238 358.6087 H              1 RES1               0.0000
     26 H26         96.3183 259.9556 360.2767 H              1 RES1               0.0000
     27 H27        100.4009 266.2296 359.7158 H              1 RES1               0.0000
     28 H28         96.6958 266.7390 361.7634 H              1 RES1               0.0000
     29 H29         98.8000 267.6853 360.8967 H              1 RES1               0.0000
@<TRIPOS>BOND
    1    1    2 1     
    2    1    3 1     
    3    1    4 1     
    4    1    5 1     
    5    2    6 ar    
    6    2    7 ar    
    7    3    8 1     
    8    3    9 2     
    9    4   10 1     
   10    4   11 2     
   11    5   12 1     
   12    5   18 1     
   13    5   19 1     
   14    6   13 ar    
   15    6   20 1     
   16    7   14 ar    
   17    7   21 1     
   18    8   15 1     
   19    8   22 1     
   20   10   15 1     
   21   10   23 1     
   22   12   24 1     
   23   12   25 1     
   24   12   26 1     
   25   13   16 ar    
   26   13   27 1     
   27   14   16 ar    
   28   14   28 1     
   29   15   17 2     
   30   16   29 1     
@<TRIPOS>SUBSTRUCTURE
      1 RES1           1
@<TRIPOS>SET
DONOR_HYDROGENS      STATIC     ATOMS    <user>   **** ""
2 22 23
ATOM$RED        STATIC     ATOMS    COLORGROUP SYSTEM
2 22 23
@<TRIPOS>COMMENT
> <Gold.Version>
2022.3.0

> <Gold.Id.Protein>
unknown|5uo4_clean|pdb

> <Gold.Protein.RotatedTorsions>
[  757  738  737  736 ] final  117.09 input   60.01 | X-H torsion
[ 3212 3191 3190 3188 ] final -175.60 input   60.02 | X-H torsion
[ 2025 2009 2008 2005 ] final -177.30 input   60.00 | X-H torsion
[ 2041 2031 2030 2027 ] final  113.17 input   59.98 | X-H torsion

> <Gold.Protein.ActiveResidues>
 LEU321  LEU323  LYS324  SER325  THR326  GLU365  PHE366  GLN369  TYR370  SER372 
 SER373  TYR408  HIS412  ARG415  ASN416  TRP426  GLU670  CYS673  ARG674  GLY675 
 PRO678  TYR703  ARG704  LEU705  THR706  PRO707 

> <Gold.Protein.RotatedAtoms>
   97.3926  265.8534  357.8309 H   0  0  0  0  0  0  0  0  0  0  0  0  # atno 757  bound_to 738 
   96.9720  265.3083  356.3236 H   0  0  0  0  0  0  0  0  0  0  0  0  # atno 758  bound_to 738 
   98.3350  264.7263  357.0640 H   0  0  0  0  0  0  0  0  0  0  0  0  # atno 759  bound_to 738 
   94.1395  264.1492  361.8380 H   0  0  0  0  0  0  0  0  0  0  0  0  # atno 2025 bound_to 2009
   97.3505  258.5708  367.3490 H   0  0  0  0  0  0  0  0  0  0  0  0  # atno 2041 bound_to 2031
  101.0501  261.1433  364.0791 H   0  0  0  0  0  0  0  0  0  0  0  0  # atno 3212 bound_to 3191
   99.5354  260.6558  364.4193 LP  0  0  0  0  0  0  0  0  0  0  0  0  # atno 13532 bound_to 3191
  100.5627  259.6543  363.6393 LP  0  0  0  0  0  0  0  0  0  0  0  0  # atno 13533 bound_to 3191
   92.9684  264.4027  362.9392 LP  0  0  0  0  0  0  0  0  0  0  0  0  # atno 13548 bound_to 2009
   93.4908  262.8861  362.6331 LP  0  0  0  0  0  0  0  0  0  0  0  0  # atno 13549 bound_to 2009
   96.4489  259.9168  367.5008 LP  0  0  0  0  0  0  0  0  0  0  0  0  # atno 13551 bound_to 2031
   98.0275  260.0291  367.0983 LP  0  0  0  0  0  0  0  0  0  0  0  0  # atno 13552 bound_to 2031

> <Gold.Score>
     Fitness  S(hb_ext) S(vdw_ext)  S(hb_int)    S(int)      intcor
     34.51       6.07      21.11       0.00      -0.58      -0.76

> <Gold.Goldscore.Fitness>
34.5121

> <Gold.Goldscore.Internal.Vdw>
-0.7551

> <Gold.Goldscore.Internal.Torsion>
-0.5859

> <Gold.Goldscore.External.Vdw>
21.1108

> <Gold.Goldscore.Internal.HBond>
0.0000

> <Gold.Goldscore.External.HBond>
6.0673

> <Gold.Goldscore.Internal.Correction>
-0.7585

> <Gold.Goldscore.Hbonds>
donor molecule, donor type, donor heavy atom, donor atom, acceptor molecule, acceptor atom, score
      P1  H 11757 11794       L1    17  1.00
      L1  H    10    23       P1  3191  0.03

> <Gold.Goldscore.Internal.Vdw.Weighted>
-0.7551

> <Gold.Goldscore.Internal.Torsion.Weighted>
-0.5859

> <Gold.Goldscore.External.Vdw.Weighted>
29.0273

> <Gold.Goldscore.Internal.HBond.Weighted>
0.0000

> <Gold.Goldscore.External.HBond.Weighted>
6.0673

> <Gold.Goldscore.Internal.Correction.Weighted>
-0.7585

> <Gold.Rescore>
     Score     S(PLP)   S(hbond)     S(cho)   S(metal)  DE(clash)   DE(tors)     intcor
     30.13     -26.96       1.90       0.00       0.00       0.59       0.98       ----

> <Gold.PLP.Fitness>
30.1294

> <Gold.PLP.PLP>
-26.9631

> <Gold.PLP.part.hbond>
-3.0943

> <Gold.PLP.part.metal>
0.0000

> <Gold.PLP.part.buried>
-5.2337

> <Gold.PLP.part.nonpolar>
-21.6469

> <Gold.PLP.part.repulsive>
1.9313

> <Gold.PLP.ligand.clash>
0.5860

> <Gold.PLP.ligand.torsion>
0.9773

> <Gold.PLP.Chemscore.Hbond>
1.9023

> <Gold.PLP.Chemscore.CHOScore>
0.0000

> <Gold.PLP.Chemscore.Metal>
0.0000

> <Gold.Chemscore.Hbonds>
donor molecule, donor type, donor heavy atom, donor atom, acceptor molecule, acceptor atom, score
      L1  H    10    23       P1  3191  0.06
      P1  H   738   759       L1     9  0.06
      P1  H 11757 11794       L1    17  1.00

> <Gold.PLP.Chemscore.Internal.Correction>
   9.000000E+99

