#       Name:                CT1002167954
#       Creating user name   hitesit
#       Creation time:       Sun Apr 16 02:23:16 2023


#       File generated by GOLD software.
#

@<TRIPOS>MOLECULE
CT1002167954|ligand_prepared|mol2|1|dock4
    29    30     1
SMALL
NO_CHARGES


@<TRIPOS>ATOM
      1 C1          98.8708 261.0869 359.9592 C.3            1 RES1               0.0000
      2 C2         100.2983 261.6271 359.7376 C.ar           1 RES1               0.0000
      3 C3          97.9300 262.2738 359.7735 C.2            1 RES1               0.0000
      4 C4          98.6736 259.9712 358.9389 C.2            1 RES1               0.0000
      5 C5          98.6393 260.4924 361.3679 C.3            1 RES1               0.0000
      6 C6         101.3997 260.9519 360.2551 C.ar           1 RES1               0.0000
      7 C7         100.5295 262.7957 359.0169 C.ar           1 RES1               0.0000
      8 N8          97.1920 262.3218 358.6277 N.am           1 RES1               0.0000
      9 O9          97.8659 263.1741 360.6016 O.2            1 RES1               0.0000
     10 N10         97.7389 260.1591 357.9546 N.am           1 RES1               0.0000
     11 O11         99.3310 258.9382 358.9686 O.2            1 RES1               0.0000
     12 C12         97.1822 260.1797 361.6697 C.3            1 RES1               0.0000
     13 C13        102.6858 261.4261 360.0568 C.ar           1 RES1               0.0000
     14 C14        101.8165 263.2683 358.8199 C.ar           1 RES1               0.0000
     15 C15         97.0109 261.2965 357.7346 C.2            1 RES1               0.0000
     16 C16        102.8952 262.5842 359.3388 C.ar           1 RES1               0.0000
     17 O17         96.2289 261.4093 356.7950 O.2            1 RES1               0.0000
     18 H18         99.2253 259.5699 361.4625 H              1 RES1               0.0000
     19 H19         99.0102 261.2034 362.1166 H              1 RES1               0.0000
     20 H20        101.2544 260.0401 360.8249 H              1 RES1               0.0000
     21 H21         99.6960 263.3510 358.6004 H              1 RES1               0.0000
     22 H22         96.7322 263.2015 358.4152 H              1 RES1               0.0000
     23 H23         97.5701 259.3786 357.3280 H              1 RES1               0.0000
     24 H24         97.0757 259.7652 362.6700 H              1 RES1               0.0000
     25 H25         96.5740 261.0799 361.6094 H              1 RES1               0.0000
     26 H26         96.7879 259.4561 360.9592 H              1 RES1               0.0000
     27 H27        103.5313 260.8847 360.4684 H              1 RES1               0.0000
     28 H28        101.9765 264.1805 358.2547 H              1 RES1               0.0000
     29 H29        103.9028 262.9552 359.1833 H              1 RES1               0.0000
@<TRIPOS>BOND
    1    1    2 1     
    2    1    3 1     
    3    1    4 1     
    4    1    5 1     
    5    2    6 ar    
    6    2    7 ar    
    7    3    8 1     
    8    3    9 2     
    9    4   10 1     
   10    4   11 2     
   11    5   12 1     
   12    5   18 1     
   13    5   19 1     
   14    6   13 ar    
   15    6   20 1     
   16    7   14 ar    
   17    7   21 1     
   18    8   15 1     
   19    8   22 1     
   20   10   15 1     
   21   10   23 1     
   22   12   24 1     
   23   12   25 1     
   24   12   26 1     
   25   13   16 ar    
   26   13   27 1     
   27   14   16 ar    
   28   14   28 1     
   29   15   17 2     
   30   16   29 1     
@<TRIPOS>SUBSTRUCTURE
      1 RES1           1
@<TRIPOS>SET
DONOR_HYDROGENS      STATIC     ATOMS    <user>   **** ""
2 22 23
ATOM$RED        STATIC     ATOMS    COLORGROUP SYSTEM
2 22 23
@<TRIPOS>COMMENT
> <Gold.Version>
2022.3.0

> <Gold.Id.Protein>
unknown|5uo4_clean|pdb

> <Gold.Protein.RotatedTorsions>
[  757  738  737  736 ] final -153.66 input   60.01 | X-H torsion
[ 3212 3191 3190 3188 ] final -152.54 input   60.02 | X-H torsion
[ 2025 2009 2008 2005 ] final  -46.67 input   60.00 | X-H torsion
[ 2041 2031 2030 2027 ] final    9.05 input   59.98 | X-H torsion

> <Gold.Protein.ActiveResidues>
 LEU321  LEU323  LYS324  SER325  THR326  GLU365  PHE366  GLN369  TYR370  SER372 
 SER373  TYR408  HIS412  ARG415  ASN416  TRP426  GLU670  CYS673  ARG674  GLY675 
 PRO678  TYR703  ARG704  LEU705  THR706  PRO707 

> <Gold.Protein.RotatedAtoms>
   96.7768  265.6386  356.6551 H   0  0  0  0  0  0  0  0  0  0  0  0  # atno 757  bound_to 738 
   98.1031  264.6457  356.6203 H   0  0  0  0  0  0  0  0  0  0  0  0  # atno 758  bound_to 738 
   97.8200  265.6031  357.9424 H   0  0  0  0  0  0  0  0  0  0  0  0  # atno 759  bound_to 738 
   93.3695  262.9350  362.7481 H   0  0  0  0  0  0  0  0  0  0  0  0  # atno 2025 bound_to 2009
   96.3797  259.6682  367.5303 H   0  0  0  0  0  0  0  0  0  0  0  0  # atno 2041 bound_to 2031
  101.2276  260.8660  363.9014 H   0  0  0  0  0  0  0  0  0  0  0  0  # atno 3212 bound_to 3191
   99.7143  260.9801  364.4886 LP  0  0  0  0  0  0  0  0  0  0  0  0  # atno 13532 bound_to 3191
  100.2050  259.6094  363.7490 LP  0  0  0  0  0  0  0  0  0  0  0  0  # atno 13533 bound_to 3191
   94.1870  263.9840  361.8101 LP  0  0  0  0  0  0  0  0  0  0  0  0  # atno 13548 bound_to 2009
   93.0474  264.5272  362.8458 LP  0  0  0  0  0  0  0  0  0  0  0  0  # atno 13549 bound_to 2009
   97.8563  260.2227  367.1303 LP  0  0  0  0  0  0  0  0  0  0  0  0  # atno 13551 bound_to 2031
   97.5981  258.6177  367.2861 LP  0  0  0  0  0  0  0  0  0  0  0  0  # atno 13552 bound_to 2031

> <Gold.Score>
     Fitness  S(hb_ext) S(vdw_ext)  S(hb_int)    S(int)      intcor
     36.12       6.00      22.63       0.00      -1.00      -0.76

> <Gold.Goldscore.Fitness>
36.1223

> <Gold.Goldscore.Internal.Vdw>
-1.2308

> <Gold.Goldscore.Internal.Torsion>
-0.5275

> <Gold.Goldscore.External.Vdw>
22.6343

> <Gold.Goldscore.Internal.HBond>
0.0000

> <Gold.Goldscore.External.HBond>
6.0000

> <Gold.Goldscore.Internal.Correction>
-0.7585

> <Gold.Goldscore.Hbonds>
donor molecule, donor type, donor heavy atom, donor atom, acceptor molecule, acceptor atom, score
      P1  H 11754 11790       L1    11  1.00

> <Gold.Goldscore.Internal.Vdw.Weighted>
-1.2308

> <Gold.Goldscore.Internal.Torsion.Weighted>
-0.5275

> <Gold.Goldscore.External.Vdw.Weighted>
31.1221

> <Gold.Goldscore.Internal.HBond.Weighted>
0.0000

> <Gold.Goldscore.External.HBond.Weighted>
6.0000

> <Gold.Goldscore.Internal.Correction.Weighted>
-0.7585

> <Gold.Rescore>
     Score     S(PLP)   S(hbond)     S(cho)   S(metal)  DE(clash)   DE(tors)     intcor
     32.12     -29.58       1.43       0.00       0.00       0.45       0.65       ----

> <Gold.PLP.Fitness>
32.1198

> <Gold.PLP.PLP>
-29.5815

> <Gold.PLP.part.hbond>
-2.0000

> <Gold.PLP.part.metal>
0.0000

> <Gold.PLP.part.buried>
-4.1807

> <Gold.PLP.part.nonpolar>
-23.8372

> <Gold.PLP.part.repulsive>
0.2220

> <Gold.PLP.ligand.clash>
0.4477

> <Gold.PLP.ligand.torsion>
0.6550

> <Gold.PLP.Chemscore.Hbond>
1.4320

> <Gold.PLP.Chemscore.CHOScore>
0.0000

> <Gold.PLP.Chemscore.Metal>
0.0000

> <Gold.Chemscore.Hbonds>
donor molecule, donor type, donor heavy atom, donor atom, acceptor molecule, acceptor atom, score
      P1  H 11754 11790       L1    11  0.86

> <Gold.PLP.Chemscore.Internal.Correction>
   9.000000E+99

