#       Name:                CT1002167954
#       Creating user name   hitesit
#       Creation time:       Sun Apr 16 20:27:16 2023


#       File generated by GOLD software.
#

@<TRIPOS>MOLECULE
CT1002167954|ligand_prepared|mol2|1|dock2
    29    30     1
SMALL
NO_CHARGES


@<TRIPOS>ATOM
      1 C1         224.7184  51.6117  13.0913 C.3            1 RES1               0.0000
      2 C2         226.0537  50.8447  13.0042 C.ar           1 RES1               0.0000
      3 C3         224.0322  51.4319  11.7403 C.2            1 RES1               0.0000
      4 C4         223.9539  51.0057  14.2630 C.2            1 RES1               0.0000
      5 C5         224.8839  53.1256  13.3606 C.3            1 RES1               0.0000
      6 C6         226.0697  49.4767  12.7491 C.ar           1 RES1               0.0000
      7 C7         227.2753  51.4907  13.1739 C.ar           1 RES1               0.0000
      8 N8         222.9634  50.5868  11.6821 N.am           1 RES1               0.0000
      9 O9         224.4469  51.9925  10.7333 O.2            1 RES1               0.0000
     10 N10        222.7905  50.3342  13.9921 N.am           1 RES1               0.0000
     11 O11        224.3571  51.0893  15.4165 O.2            1 RES1               0.0000
     12 C12        223.5686  53.8871  13.4090 C.3            1 RES1               0.0000
     13 C13        227.2638  48.7802  12.6636 C.ar           1 RES1               0.0000
     14 C14        228.4684  50.7922  13.0883 C.ar           1 RES1               0.0000
     15 C15        222.2766  50.0709  12.7516 C.2            1 RES1               0.0000
     16 C16        228.4638  49.4375  12.8327 C.ar           1 RES1               0.0000
     17 O17        221.2534  49.4131  12.5860 O.2            1 RES1               0.0000
     18 H18        225.4047  53.2593  14.3167 H              1 RES1               0.0000
     19 H19        225.5132  53.5576  12.5727 H              1 RES1               0.0000
     20 H20        225.1351  48.9421  12.6156 H              1 RES1               0.0000
     21 H21        227.3031  52.5559  13.3769 H              1 RES1               0.0000
     22 H22        222.6455  50.3130  10.7578 H              1 RES1               0.0000
     23 H23        222.2581  49.9998  14.7890 H              1 RES1               0.0000
     24 H24        223.7417  54.9440  13.6006 H              1 RES1               0.0000
     25 H25        223.0355  53.7966  12.4648 H              1 RES1               0.0000
     26 H26        222.9277  53.5000  14.1985 H              1 RES1               0.0000
     27 H27        227.2548  47.7139  12.4637 H              1 RES1               0.0000
     28 H28        229.4104  51.3135  13.2227 H              1 RES1               0.0000
     29 H29        229.3992  48.8917  12.7654 H              1 RES1               0.0000
@<TRIPOS>BOND
    1    1    2 1     
    2    1    3 1     
    3    1    4 1     
    4    1    5 1     
    5    2    6 ar    
    6    2    7 ar    
    7    3    8 1     
    8    3    9 2     
    9    4   10 1     
   10    4   11 2     
   11    5   12 1     
   12    5   18 1     
   13    5   19 1     
   14    6   13 ar    
   15    6   20 1     
   16    7   14 ar    
   17    7   21 1     
   18    8   15 1     
   19    8   22 1     
   20   10   15 1     
   21   10   23 1     
   22   12   24 1     
   23   12   25 1     
   24   12   26 1     
   25   13   16 ar    
   26   13   27 1     
   27   14   16 ar    
   28   14   28 1     
   29   15   17 2     
   30   16   29 1     
@<TRIPOS>SUBSTRUCTURE
      1 RES1           1
@<TRIPOS>SET
DONOR_HYDROGENS      STATIC     ATOMS    <user>   **** ""
2 22 23
ATOM$RED        STATIC     ATOMS    COLORGROUP SYSTEM
2 22 23
@<TRIPOS>COMMENT
> <Gold.Version>
2022.3.0

> <Gold.Id.Protein>
unknown|4d1n_clean|pdb

> <Gold.Protein.RotatedTorsions>
[ 6581 6565 6566 6567 ] final   73.50 input  113.40 | X-H torsion
[ 6673 6649 6650 6651 ] final  -14.78 input  128.31 | X-H torsion
[ 8033 8017 8018 8019 ] final   71.29 input   38.97 | X-H torsion
[ 8113 8095 8096 8097 ] final   55.27 input   94.22 | X-H torsion
[ 8173 8159 8160 8161 ] final   78.23 input   69.09 | X-H torsion
[ 8253 8231 8232 8233 ] final  -95.14 input   84.65 | X-H torsion
[ 9561 9532 9531 9529 ] final -173.21 input   60.02 | X-H torsion
[ 8321 8305 8306 8307 ] final   27.33 input   94.69 | X-H torsion
[ 10203 10177 10178 10179 ] final  135.74 input   41.54 | X-H torsion
[ 7949 7931 7932 7933 ] final   57.32 input   80.35 | X-H torsion
[ 7893 7881 7882 7883 ] final   95.04 input   97.23 | X-H torsion
[ 7897 7886 7885 7882 ] final   -9.25 input   59.98 | X-H torsion
[ 6813 6795 6796 6797 ] final  138.26 input  114.70 | X-H torsion
[ 27193 6328 6327 6326 ] final  104.81 input    0.00 | X-H torsion
[ 27196 6568 6567 6566 ] final -107.23 input   -0.00 | X-H torsion
[ 27199 7884 7883 7882 ] final  126.97 input   -0.00 | X-H torsion
[ 27202 8020 8019 8018 ] final  117.16 input   -0.00 | X-H torsion
[ 27205 8098 8097 8096 ] final -122.75 input   -0.00 | X-H torsion
[ 27208 8162 8161 8160 ] final  -89.14 input    0.00 | X-H torsion
[ 27213 10092 10091 10090 ] final   79.50 input    0.00 | X-H torsion
[ 27217 10180 10179 10178 ] final  -54.38 input    0.00 | X-H torsion
[ 27220 7934 7933 7932 ] final  120.66 input    0.00 | X-H torsion
[ 27222 7726 7725 7724 ] final  169.07 input    0.00 | X-H torsion
[ 27224 7804 7803 7802 ] final   15.52 input    0.00 | X-H torsion

> <Gold.Protein.ActiveResidues>
 ASP403  THR404  LEU406  ILE407  TYR408  ALA410  LYS411  TRP414  GLN425  TRP426 
 SER427  LYS428  LEU429  GLN430  VAL431  PHE432  ASP433  TYR453  SER462  ALA463 
 ILE464 

> <Gold.Protein.RotatedAtoms>
  217.0323   48.7528   18.8852 H   0  0  0  0  0  0  0  0  0  0  0  0  # atno 6581 bound_to 6565
  219.0951   47.6415   19.7044 H   0  0  0  0  0  0  0  0  0  0  0  0  # atno 6673 bound_to 6649
  221.5210   44.9505   19.3393 H   0  0  0  0  0  0  0  0  0  0  0  0  # atno 6813 bound_to 6795
  230.1288   45.8797   19.6741 H   0  0  0  0  0  0  0  0  0  0  0  0  # atno 7893 bound_to 7881
  230.6316   47.7908   19.1139 H   0  0  0  0  0  0  0  0  0  0  0  0  # atno 7897 bound_to 7886
  229.5354   45.9364   17.1286 H   0  0  0  0  0  0  0  0  0  0  0  0  # atno 7949 bound_to 7931
  226.8683   47.0145   15.3710 H   0  0  0  0  0  0  0  0  0  0  0  0  # atno 8033 bound_to 8017
  225.0288   44.8749   11.9658 H   0  0  0  0  0  0  0  0  0  0  0  0  # atno 8113 bound_to 8095
  221.7233   47.6639   12.0615 H   0  0  0  0  0  0  0  0  0  0  0  0  # atno 8173 bound_to 8159
  219.1295   46.1509   11.0539 H   0  0  0  0  0  0  0  0  0  0  0  0  # atno 8253 bound_to 8231
  215.5629   46.4939    9.3578 H   0  0  0  0  0  0  0  0  0  0  0  0  # atno 8321 bound_to 8305
  226.9500   47.0510    8.2748 H   0  0  0  0  0  0  0  0  0  0  0  0  # atno 9561 bound_to 9532
  222.7973   42.1392   11.9321 H   0  0  0  0  0  0  0  0  0  0  0  0  # atno 10203 bound_to 10177
  216.5015   50.5117   17.0471 LP  0  0  0  0  0  0  0  0  0  0  0  0  # atno 27193 bound_to 6328
  215.4956   49.4698   17.9971 LP  0  0  0  0  0  0  0  0  0  0  0  0  # atno 27194 bound_to 6328
  216.8254   47.2330   18.0397 LP  0  0  0  0  0  0  0  0  0  0  0  0  # atno 27195 bound_to 6565
  220.2778   45.9349   19.6781 LP  0  0  0  0  0  0  0  0  0  0  0  0  # atno 27196 bound_to 6568
  221.3249   46.9348   18.7274 LP  0  0  0  0  0  0  0  0  0  0  0  0  # atno 27197 bound_to 6568
  219.1749   49.3473   20.0797 LP  0  0  0  0  0  0  0  0  0  0  0  0  # atno 27198 bound_to 6649
  228.1499   49.2221   16.7454 LP  0  0  0  0  0  0  0  0  0  0  0  0  # atno 27199 bound_to 7884
  226.7659   48.4387   17.4317 LP  0  0  0  0  0  0  0  0  0  0  0  0  # atno 27200 bound_to 7884
  228.0558   46.4078   14.2388 LP  0  0  0  0  0  0  0  0  0  0  0  0  # atno 27201 bound_to 8017
  224.5999   48.0837   13.4978 LP  0  0  0  0  0  0  0  0  0  0  0  0  # atno 27202 bound_to 8020
  223.8966   46.9730   14.6254 LP  0  0  0  0  0  0  0  0  0  0  0  0  # atno 27203 bound_to 8020
  225.4786   46.3915   12.7007 LP  0  0  0  0  0  0  0  0  0  0  0  0  # atno 27204 bound_to 8095
  221.7514   44.3320   10.7245 LP  0  0  0  0  0  0  0  0  0  0  0  0  # atno 27205 bound_to 8098
  223.0140   44.0587   11.8782 LP  0  0  0  0  0  0  0  0  0  0  0  0  # atno 27206 bound_to 8098
  222.2824   46.1235   11.4683 LP  0  0  0  0  0  0  0  0  0  0  0  0  # atno 27207 bound_to 8159
  218.0868   47.8972   11.6114 LP  0  0  0  0  0  0  0  0  0  0  0  0  # atno 27208 bound_to 8162
  219.3100   48.1453   10.4104 LP  0  0  0  0  0  0  0  0  0  0  0  0  # atno 27209 bound_to 8162
  219.1680   44.4653   10.6063 LP  0  0  0  0  0  0  0  0  0  0  0  0  # atno 27210 bound_to 8231
  226.0274   48.3600    7.9865 LP  0  0  0  0  0  0  0  0  0  0  0  0  # atno 27211 bound_to 9532
  227.4513   48.1738    7.2090 LP  0  0  0  0  0  0  0  0  0  0  0  0  # atno 27212 bound_to 9532
  226.5976   44.2885    9.5527 LP  0  0  0  0  0  0  0  0  0  0  0  0  # atno 27213 bound_to 10092
  226.1414   44.3599   11.2220 LP  0  0  0  0  0  0  0  0  0  0  0  0  # atno 27214 bound_to 10092
  216.4223   46.1825   10.8503 LP  0  0  0  0  0  0  0  0  0  0  0  0  # atno 27215 bound_to 8305
  222.2036   42.1262   10.2871 LP  0  0  0  0  0  0  0  0  0  0  0  0  # atno 27216 bound_to 10177
  219.7150   43.4467   11.5964 LP  0  0  0  0  0  0  0  0  0  0  0  0  # atno 27217 bound_to 10180
  219.4096   43.1636    9.9152 LP  0  0  0  0  0  0  0  0  0  0  0  0  # atno 27218 bound_to 10180
  228.9393   47.5513   17.4444 LP  0  0  0  0  0  0  0  0  0  0  0  0  # atno 27219 bound_to 7931
  228.5741   44.1517   14.5213 LP  0  0  0  0  0  0  0  0  0  0  0  0  # atno 27220 bound_to 7934
  229.6219   45.0739   13.4958 LP  0  0  0  0  0  0  0  0  0  0  0  0  # atno 27221 bound_to 7934
  229.5847   44.3242   17.2532 LP  0  0  0  0  0  0  0  0  0  0  0  0  # atno 27222 bound_to 7726
  230.9818   44.5639   16.2578 LP  0  0  0  0  0  0  0  0  0  0  0  0  # atno 27223 bound_to 7726
  226.9328   43.7019   18.8553 LP  0  0  0  0  0  0  0  0  0  0  0  0  # atno 27224 bound_to 7804
  226.9806   45.3475   18.3169 LP  0  0  0  0  0  0  0  0  0  0  0  0  # atno 27225 bound_to 7804
  228.7083   44.9627   19.2362 LP  0  0  0  0  0  0  0  0  0  0  0  0  # atno 27226 bound_to 7881
  230.8154   48.4819   20.5758 LP  0  0  0  0  0  0  0  0  0  0  0  0  # atno 27227 bound_to 7886
  230.3554   49.3845   19.2951 LP  0  0  0  0  0  0  0  0  0  0  0  0  # atno 27228 bound_to 7886

> <Gold.Score>
     Fitness  S(hb_ext) S(vdw_ext)  S(hb_int)    S(int)      intcor
     33.73      11.65      16.08       0.00      -0.04      -0.78

> <Gold.Goldscore.Fitness>
33.7282

> <Gold.Goldscore.Internal.Vdw>
-0.4418

> <Gold.Goldscore.Internal.Torsion>
-0.3717

> <Gold.Goldscore.External.Vdw>
16.0847

> <Gold.Goldscore.Internal.HBond>
0.0000

> <Gold.Goldscore.External.HBond>
11.6483

> <Gold.Goldscore.Internal.Correction>
-0.7769

> <Gold.Goldscore.Hbonds>
donor molecule, donor type, donor heavy atom, donor atom, acceptor molecule, acceptor atom, score
      P1  H  6803  6824       L1    11  0.75
      P1  H  8102  8119       L1     9  0.34
      P1  H  8159  8173       L1    17  0.24
      L1  H     8    22       P1  8103  1.00

> <Gold.Goldscore.Internal.Vdw.Weighted>
-0.4418

> <Gold.Goldscore.Internal.Torsion.Weighted>
-0.3717

> <Gold.Goldscore.External.Vdw.Weighted>
22.1165

> <Gold.Goldscore.Internal.HBond.Weighted>
0.0000

> <Gold.Goldscore.External.HBond.Weighted>
11.6483

> <Gold.Goldscore.Internal.Correction.Weighted>
-0.7769

> <Gold.Rescore>
     Score     S(PLP)   S(hbond)     S(cho)   S(metal)  DE(clash)   DE(tors)     intcor
     26.57     -17.17       3.15       0.00       0.00       0.00       0.02       ----

> <Gold.PLP.Fitness>
26.5703

> <Gold.PLP.PLP>
-17.1676

> <Gold.PLP.part.hbond>
-3.6321

> <Gold.PLP.part.metal>
0.0000

> <Gold.PLP.part.buried>
-2.8132

> <Gold.PLP.part.nonpolar>
-13.9499

> <Gold.PLP.part.repulsive>
0.6378

> <Gold.PLP.ligand.clash>
0.0000

> <Gold.PLP.ligand.torsion>
0.0218

> <Gold.PLP.Chemscore.Hbond>
3.1488

> <Gold.PLP.Chemscore.CHOScore>
0.0000

> <Gold.PLP.Chemscore.Metal>
0.0000

> <Gold.Chemscore.Hbonds>
donor molecule, donor type, donor heavy atom, donor atom, acceptor molecule, acceptor atom, score
      L1  H     8    22       P1  8103  0.75
      P1  H  6803  6824       L1    11  0.52
      P1  H  8102  8119       L1     9  0.35
      P1  H  8159  8173       L1    17  1.00

> <Gold.PLP.Chemscore.Internal.Correction>
   9.000000E+99

