#       Name:                CT1002167954
#       Creating user name   hitesit
#       Creation time:       Sun Apr 16 20:27:20 2023


#       File generated by GOLD software.
#

@<TRIPOS>MOLECULE
CT1002167954|ligand_prepared|mol2|1|dock9
    29    30     1
SMALL
NO_CHARGES


@<TRIPOS>ATOM
      1 C1         228.3852  50.0354  10.8270 C.3            1 RES1               0.0000
      2 C2         227.9053  50.2827   9.3823 C.ar           1 RES1               0.0000
      3 C3         228.2066  51.3563  11.5698 C.2            1 RES1               0.0000
      4 C4         227.5313  48.8954  11.3709 C.2            1 RES1               0.0000
      5 C5         229.8689  49.6114  10.9286 C.3            1 RES1               0.0000
      6 C6         226.8328  51.1322   9.1275 C.ar           1 RES1               0.0000
      7 C7         228.5256  49.6718   8.2958 C.ar           1 RES1               0.0000
      8 N8         227.1790  51.4455  12.4620 N.am           1 RES1               0.0000
      9 O9         228.9321  52.3177  11.3472 O.2            1 RES1               0.0000
     10 N10        226.6753  49.1711  12.4049 N.am           1 RES1               0.0000
     11 O11        227.5799  47.7647  10.9025 O.2            1 RES1               0.0000
     12 C12        230.3766  49.4938  12.3571 C.3            1 RES1               0.0000
     13 C13        226.3980  51.3648   7.8332 C.ar           1 RES1               0.0000
     14 C14        228.0891  49.9056   7.0022 C.ar           1 RES1               0.0000
     15 C15        226.4381  50.4015  12.9547 C.2            1 RES1               0.0000
     16 C16        227.0261  50.7522   6.7698 C.ar           1 RES1               0.0000
     17 O17        225.6126  50.5792  13.8457 O.2            1 RES1               0.0000
     18 H18        229.9946  48.6433  10.4284 H              1 RES1               0.0000
     19 H19        230.4836  50.3468  10.3950 H              1 RES1               0.0000
     20 H20        226.3247  51.6213   9.9518 H              1 RES1               0.0000
     21 H21        229.3632  49.0011   8.4549 H              1 RES1               0.0000
     22 H22        226.9392  52.3744  12.7935 H              1 RES1               0.0000
     23 H23        226.1680  48.3865  12.8015 H              1 RES1               0.0000
     24 H24        231.4223  49.1939  12.3714 H              1 RES1               0.0000
     25 H25        230.2899  50.4457  12.8769 H              1 RES1               0.0000
     26 H26        229.8038  48.7523  12.9102 H              1 RES1               0.0000
     27 H27        225.5601  52.0309   7.6557 H              1 RES1               0.0000
     28 H28        228.5860  49.4208   6.1684 H              1 RES1               0.0000
     29 H29        226.6855  50.9349   5.7560 H              1 RES1               0.0000
@<TRIPOS>BOND
    1    1    2 1     
    2    1    3 1     
    3    1    4 1     
    4    1    5 1     
    5    2    6 ar    
    6    2    7 ar    
    7    3    8 1     
    8    3    9 2     
    9    4   10 1     
   10    4   11 2     
   11    5   12 1     
   12    5   18 1     
   13    5   19 1     
   14    6   13 ar    
   15    6   20 1     
   16    7   14 ar    
   17    7   21 1     
   18    8   15 1     
   19    8   22 1     
   20   10   15 1     
   21   10   23 1     
   22   12   24 1     
   23   12   25 1     
   24   12   26 1     
   25   13   16 ar    
   26   13   27 1     
   27   14   16 ar    
   28   14   28 1     
   29   15   17 2     
   30   16   29 1     
@<TRIPOS>SUBSTRUCTURE
      1 RES1           1
@<TRIPOS>SET
DONOR_HYDROGENS      STATIC     ATOMS    <user>   **** ""
2 22 23
ATOM$RED        STATIC     ATOMS    COLORGROUP SYSTEM
2 22 23
@<TRIPOS>COMMENT
> <Gold.Version>
2022.3.0

> <Gold.Id.Protein>
unknown|4d1n_clean|pdb

> <Gold.Protein.RotatedTorsions>
[ 6581 6565 6566 6567 ] final -127.01 input  113.40 | X-H torsion
[ 6673 6649 6650 6651 ] final -171.78 input  128.31 | X-H torsion
[ 8033 8017 8018 8019 ] final -110.14 input   38.97 | X-H torsion
[ 8113 8095 8096 8097 ] final  175.70 input   94.22 | X-H torsion
[ 8173 8159 8160 8161 ] final  166.36 input   69.09 | X-H torsion
[ 8253 8231 8232 8233 ] final -148.15 input   84.65 | X-H torsion
[ 9561 9532 9531 9529 ] final -106.91 input   60.02 | X-H torsion
[ 8321 8305 8306 8307 ] final -170.40 input   94.69 | X-H torsion
[ 10203 10177 10178 10179 ] final  179.82 input   41.54 | X-H torsion
[ 7949 7931 7932 7933 ] final    6.14 input   80.35 | X-H torsion
[ 7893 7881 7882 7883 ] final  -46.17 input   97.23 | X-H torsion
[ 7897 7886 7885 7882 ] final   88.96 input   59.98 | X-H torsion
[ 6813 6795 6796 6797 ] final -172.06 input  114.70 | X-H torsion
[ 27193 6328 6327 6326 ] final  -44.65 input    0.00 | X-H torsion
[ 27196 6568 6567 6566 ] final  -62.91 input   -0.00 | X-H torsion
[ 27199 7884 7883 7882 ] final   28.30 input   -0.00 | X-H torsion
[ 27202 8020 8019 8018 ] final  124.53 input   -0.00 | X-H torsion
[ 27205 8098 8097 8096 ] final  -66.95 input   -0.00 | X-H torsion
[ 27208 8162 8161 8160 ] final  -29.23 input    0.00 | X-H torsion
[ 27213 10092 10091 10090 ] final  159.03 input    0.00 | X-H torsion
[ 27217 10180 10179 10178 ] final  -32.02 input    0.00 | X-H torsion
[ 27220 7934 7933 7932 ] final  -89.75 input    0.00 | X-H torsion
[ 27222 7726 7725 7724 ] final  132.07 input    0.00 | X-H torsion
[ 27224 7804 7803 7802 ] final  -94.03 input    0.00 | X-H torsion

> <Gold.Protein.ActiveResidues>
 ASP403  THR404  LEU406  ILE407  TYR408  ALA410  LYS411  TRP414  GLN425  TRP426 
 SER427  LYS428  LEU429  GLN430  VAL431  PHE432  ASP433  TYR453  SER462  ALA463 
 ILE464 

> <Gold.Protein.RotatedAtoms>
  216.7854   47.4097   17.7824 H   0  0  0  0  0  0  0  0  0  0  0  0  # atno 6581 bound_to 6565
  219.4896   49.3162   19.9311 H   0  0  0  0  0  0  0  0  0  0  0  0  # atno 6673 bound_to 6649
  221.6689   44.4348   18.8314 H   0  0  0  0  0  0  0  0  0  0  0  0  # atno 6813 bound_to 6795
  229.0200   45.0466   18.7540 H   0  0  0  0  0  0  0  0  0  0  0  0  # atno 7893 bound_to 7881
  230.3334   49.1712   19.0118 H   0  0  0  0  0  0  0  0  0  0  0  0  # atno 7897 bound_to 7886
  228.7718   46.0159   17.1187 H   0  0  0  0  0  0  0  0  0  0  0  0  # atno 7949 bound_to 7931
  228.0702   46.3756   14.2330 H   0  0  0  0  0  0  0  0  0  0  0  0  # atno 8033 bound_to 8017
  225.8889   46.1329   11.9826 H   0  0  0  0  0  0  0  0  0  0  0  0  # atno 8113 bound_to 8095
  222.3235   46.7321   12.5620 H   0  0  0  0  0  0  0  0  0  0  0  0  # atno 8173 bound_to 8159
  219.6206   45.9537   10.4760 H   0  0  0  0  0  0  0  0  0  0  0  0  # atno 8253 bound_to 8231
  216.3999   46.4485   10.9023 H   0  0  0  0  0  0  0  0  0  0  0  0  # atno 8321 bound_to 8305
  227.6131   47.4363    7.5967 H   0  0  0  0  0  0  0  0  0  0  0  0  # atno 9561 bound_to 9532
  223.0377   41.6258   11.5840 H   0  0  0  0  0  0  0  0  0  0  0  0  # atno 10203 bound_to 10177
  215.3576   49.4101   17.5664 LP  0  0  0  0  0  0  0  0  0  0  0  0  # atno 27193 bound_to 6328
  216.6396   50.5714   17.4777 LP  0  0  0  0  0  0  0  0  0  0  0  0  # atno 27194 bound_to 6328
  217.0633   48.5271   19.1023 LP  0  0  0  0  0  0  0  0  0  0  0  0  # atno 27195 bound_to 6565
  220.1764   45.8586   19.0373 LP  0  0  0  0  0  0  0  0  0  0  0  0  # atno 27196 bound_to 6568
  221.4263   47.0111   19.3682 LP  0  0  0  0  0  0  0  0  0  0  0  0  # atno 27197 bound_to 6568
  218.7905   47.7151   19.8587 LP  0  0  0  0  0  0  0  0  0  0  0  0  # atno 27198 bound_to 6649
  227.4886   49.1809   17.8799 LP  0  0  0  0  0  0  0  0  0  0  0  0  # atno 27199 bound_to 7884
  227.4271   48.4799   16.2972 LP  0  0  0  0  0  0  0  0  0  0  0  0  # atno 27200 bound_to 7884
  226.8878   47.0286   15.3446 LP  0  0  0  0  0  0  0  0  0  0  0  0  # atno 27201 bound_to 8017
  224.5119   48.0626   13.4331 LP  0  0  0  0  0  0  0  0  0  0  0  0  # atno 27202 bound_to 8020
  223.9846   46.9941   14.6901 LP  0  0  0  0  0  0  0  0  0  0  0  0  # atno 27203 bound_to 8020
  224.6300   45.1504   12.6842 LP  0  0  0  0  0  0  0  0  0  0  0  0  # atno 27204 bound_to 8095
  222.5121   44.2825   10.4495 LP  0  0  0  0  0  0  0  0  0  0  0  0  # atno 27205 bound_to 8098
  222.2533   44.1082   12.1533 LP  0  0  0  0  0  0  0  0  0  0  0  0  # atno 27206 bound_to 8098
  221.6862   47.0489   10.9712 LP  0  0  0  0  0  0  0  0  0  0  0  0  # atno 27207 bound_to 8159
  218.8683   48.1853   11.8441 LP  0  0  0  0  0  0  0  0  0  0  0  0  # atno 27208 bound_to 8162
  218.5285   47.8571   10.1777 LP  0  0  0  0  0  0  0  0  0  0  0  0  # atno 27209 bound_to 8162
  218.6834   44.6599   11.1767 LP  0  0  0  0  0  0  0  0  0  0  0  0  # atno 27210 bound_to 8231
  226.2317   47.4651    8.4561 LP  0  0  0  0  0  0  0  0  0  0  0  0  # atno 27211 bound_to 9532
  226.5792   48.6806    7.4224 LP  0  0  0  0  0  0  0  0  0  0  0  0  # atno 27212 bound_to 9532
  225.5985   44.1821   10.0194 LP  0  0  0  0  0  0  0  0  0  0  0  0  # atno 27213 bound_to 10092
  227.1405   44.4663   10.7553 LP  0  0  0  0  0  0  0  0  0  0  0  0  # atno 27214 bound_to 10092
  215.6122   46.2264    9.3553 LP  0  0  0  0  0  0  0  0  0  0  0  0  # atno 27215 bound_to 8305
  221.9696   42.6258   10.6258 LP  0  0  0  0  0  0  0  0  0  0  0  0  # atno 27216 bound_to 10177
  220.0262   43.4580   11.4709 LP  0  0  0  0  0  0  0  0  0  0  0  0  # atno 27217 bound_to 10180
  219.0983   43.1524   10.0407 LP  0  0  0  0  0  0  0  0  0  0  0  0  # atno 27218 bound_to 10180
  229.6792   47.4743   17.4539 LP  0  0  0  0  0  0  0  0  0  0  0  0  # atno 27219 bound_to 7931
  229.2441   45.0086   13.2523 LP  0  0  0  0  0  0  0  0  0  0  0  0  # atno 27220 bound_to 7934
  228.9519   44.2170   14.7649 LP  0  0  0  0  0  0  0  0  0  0  0  0  # atno 27221 bound_to 7934
  229.6429   43.8865   16.9261 LP  0  0  0  0  0  0  0  0  0  0  0  0  # atno 27222 bound_to 7726
  230.9236   45.0016   16.5850 LP  0  0  0  0  0  0  0  0  0  0  0  0  # atno 27223 bound_to 7726
  227.2409   44.5540   17.7685 LP  0  0  0  0  0  0  0  0  0  0  0  0  # atno 27224 bound_to 7804
  226.6725   44.4954   19.4036 LP  0  0  0  0  0  0  0  0  0  0  0  0  # atno 27225 bound_to 7804
  229.7946   45.7788   20.1376 LP  0  0  0  0  0  0  0  0  0  0  0  0  # atno 27226 bound_to 7881
  230.7305   47.6475   19.4234 LP  0  0  0  0  0  0  0  0  0  0  0  0  # atno 27227 bound_to 7886
  230.7404   48.8294   20.5502 LP  0  0  0  0  0  0  0  0  0  0  0  0  # atno 27228 bound_to 7886

> <Gold.Score>
     Fitness  S(hb_ext) S(vdw_ext)  S(hb_int)    S(int)      intcor
     21.74       1.51      15.30       0.00      -0.81      -0.75

> <Gold.Goldscore.Fitness>
21.7361

> <Gold.Goldscore.Internal.Vdw>
-1.1466

> <Gold.Goldscore.Internal.Torsion>
-0.4150

> <Gold.Goldscore.External.Vdw>
15.2979

> <Gold.Goldscore.Internal.HBond>
0.0000

> <Gold.Goldscore.External.HBond>
1.5092

> <Gold.Goldscore.Internal.Correction>
-0.7539

> <Gold.Goldscore.Hbonds>
donor molecule, donor type, donor heavy atom, donor atom, acceptor molecule, acceptor atom, score
      P1  H  8095  8113       L1    11  0.07
      P1  H  8102  8120       L1    11  0.10
      L1  H    10    23       P1  8020  0.59

> <Gold.Goldscore.Internal.Vdw.Weighted>
-1.1466

> <Gold.Goldscore.Internal.Torsion.Weighted>
-0.4150

> <Gold.Goldscore.External.Vdw.Weighted>
21.0346

> <Gold.Goldscore.Internal.HBond.Weighted>
0.0000

> <Gold.Goldscore.External.HBond.Weighted>
1.5092

> <Gold.Goldscore.Internal.Correction.Weighted>
-0.7539

> <Gold.Rescore>
     Score     S(PLP)   S(hbond)     S(cho)   S(metal)  DE(clash)   DE(tors)     intcor
     17.20     -19.07       0.00       0.00       0.00       0.00       0.94       ----

> <Gold.PLP.Fitness>
17.1984

> <Gold.PLP.PLP>
-19.0722

> <Gold.PLP.part.hbond>
-0.7557

> <Gold.PLP.part.metal>
0.0000

> <Gold.PLP.part.buried>
-4.9409

> <Gold.PLP.part.nonpolar>
-13.3378

> <Gold.PLP.part.repulsive>
0.2994

> <Gold.PLP.ligand.clash>
0.0000

> <Gold.PLP.ligand.torsion>
0.9369

> <Gold.PLP.Chemscore.Hbond>
0.0000

> <Gold.PLP.Chemscore.CHOScore>
0.0000

> <Gold.PLP.Chemscore.Metal>
0.0000

> <Gold.Chemscore.Hbonds>
donor molecule, donor type, donor heavy atom, donor atom, acceptor molecule, acceptor atom, score
      L1  H    10    23       P1  8020  0.02

> <Gold.PLP.Chemscore.Internal.Correction>
   9.000000E+99

