#       Name:                CT1002167954
#       Creating user name   hitesit
#       Creation time:       Sun Apr 16 20:16:22 2023


#       File generated by GOLD software.
#

@<TRIPOS>MOLECULE
CT1002167954|ligand_prepared|mol2|1|dock9
    29    30     1
SMALL
NO_CHARGES


@<TRIPOS>ATOM
      1 C1          26.1843  25.2813  61.0240 C.3            1 RES1               0.0000
      2 C2          24.8774  24.4669  61.1114 C.ar           1 RES1               0.0000
      3 C3          26.8493  24.8843  59.7093 C.2            1 RES1               0.0000
      4 C4          25.7781  26.7490  61.0975 C.2            1 RES1               0.0000
      5 C5          27.1736  25.0010  62.1791 C.3            1 RES1               0.0000
      6 C6          24.1401  24.1851  59.9653 C.ar           1 RES1               0.0000
      7 C7          24.3987  23.9894  62.3286 C.ar           1 RES1               0.0000
      8 N8          26.8120  25.7844  58.6854 N.am           1 RES1               0.0000
      9 O9          27.3640  23.7829  59.5605 O.2            1 RES1               0.0000
     10 N10         25.9935  27.5309  59.9929 N.am           1 RES1               0.0000
     11 O11         25.2582  27.2315  62.0960 O.2            1 RES1               0.0000
     12 C12         28.5604  25.5825  61.9534 C.3            1 RES1               0.0000
     13 C13         22.9682  23.4499  60.0330 C.ar           1 RES1               0.0000
     14 C14         23.2264  23.2546  62.3940 C.ar           1 RES1               0.0000
     15 C15         26.4638  27.1079  58.7796 C.2            1 RES1               0.0000
     16 C16         22.5108  22.9838  61.2471 C.ar           1 RES1               0.0000
     17 O17         26.5787  27.8603  57.8164 O.2            1 RES1               0.0000
     18 H18         26.7619  25.4192  63.1059 H              1 RES1               0.0000
     19 H19         27.2633  23.9157  62.3117 H              1 RES1               0.0000
     20 H20         24.4831  24.5456  59.0013 H              1 RES1               0.0000
     21 H21         24.9446  24.1911  63.2439 H              1 RES1               0.0000
     22 H22         27.0665  25.4418  57.7644 H              1 RES1               0.0000
     23 H23         25.7840  28.5199  60.0836 H              1 RES1               0.0000
     24 H24         29.2145  25.3571  62.7930 H              1 RES1               0.0000
     25 H25         29.0101  25.1693  61.0529 H              1 RES1               0.0000
     26 H26         28.5118  26.6638  61.8424 H              1 RES1               0.0000
     27 H27         22.4080  23.2408  59.1276 H              1 RES1               0.0000
     28 H28         22.8699  22.8903  63.3518 H              1 RES1               0.0000
     29 H29         21.5930  22.4077  61.2998 H              1 RES1               0.0000
@<TRIPOS>BOND
    1    1    2 1     
    2    1    3 1     
    3    1    4 1     
    4    1    5 1     
    5    2    6 ar    
    6    2    7 ar    
    7    3    8 1     
    8    3    9 2     
    9    4   10 1     
   10    4   11 2     
   11    5   12 1     
   12    5   18 1     
   13    5   19 1     
   14    6   13 ar    
   15    6   20 1     
   16    7   14 ar    
   17    7   21 1     
   18    8   15 1     
   19    8   22 1     
   20   10   15 1     
   21   10   23 1     
   22   12   24 1     
   23   12   25 1     
   24   12   26 1     
   25   13   16 ar    
   26   13   27 1     
   27   14   16 ar    
   28   14   28 1     
   29   15   17 2     
   30   16   29 1     
@<TRIPOS>SUBSTRUCTURE
      1 RES1           1
@<TRIPOS>SET
DONOR_HYDROGENS      STATIC     ATOMS    <user>   **** ""
2 22 23
ATOM$RED        STATIC     ATOMS    COLORGROUP SYSTEM
2 22 23
@<TRIPOS>COMMENT
> <Gold.Version>
2022.3.0

> <Gold.Id.Protein>
unknown|3l9n_clean|pdb

> <Gold.Protein.RotatedTorsions>
[ 3658 3649 3648 3646 ] final  -18.36 input   60.01 | X-H torsion
[ 3578 3569 3568 3566 ] final  124.94 input   59.99 | X-H torsion
[ 3855 3846 3845 3843 ] final   26.16 input   60.02 | X-H torsion
[ 2581 2570 2569 2568 ] final  103.25 input   60.01 | X-H torsion
[ 3119 3112 3110 3107 ] final  -18.16 input   60.01 | X-H torsion
[ 5145 5136 5135 5133 ] final  136.05 input   59.99 | X-H torsion
[ 1921 1917 1916 1913 ] final -120.08 input   59.98 | X-H torsion
[ 3169 3160 3159 3157 ] final   25.58 input   59.99 | X-H torsion
[  630  627  626  623 ] final  118.87 input   60.00 | X-H torsion

> <Gold.Protein.ActiveResidues>
 LEU49   GLY50   THR51   GLY52   SER53   PHE54   GLY55   LEU82   LYS83   GLN84  
 HIS87   GLY126  GLU127  PHE129  SER130  HIS131  LEU132  ARG133  ARG134  GLY136 
 ARG137  ARG165  ASP166  LEU167  LYS168  PRO169  GLU170  ASN171  MET173  ASP184 
 PHE187  TPO197  LEU198  CYS199  GLY200  THR201  PRO202  GLU203  TYR204  LEU205 
 ILE209  ILE210  VAL226  LEU227  TYR229  GLU230  ALA233  GLY234  TYR235  PRO236 
 PRO237  PHE238  PHE239  ALA240  ASP241  GLN242  PRO243  ILE244  GLN245  ILE246 
 TYR247  LYS249  ARG256  PHE257  PRO258  SER259  ASN326  PHE327  ASP328  ASP329 
 TYR330 

> <Gold.Protein.RotatedAtoms>
   27.7987   26.5460   68.1091 H   0  0  0  0  0  0  0  0  0  0  0  0  # atno 630  bound_to 627 
   41.3247   20.5869   54.1197 H   0  0  0  0  0  0  0  0  0  0  0  0  # atno 1921 bound_to 1917
   28.6814   27.4033   57.4060 H   0  0  0  0  0  0  0  0  0  0  0  0  # atno 2581 bound_to 2570
   29.8834   26.4002   57.9517 H   0  0  0  0  0  0  0  0  0  0  0  0  # atno 2582 bound_to 2570
   30.2705   27.7833   57.1233 H   0  0  0  0  0  0  0  0  0  0  0  0  # atno 2583 bound_to 2570
   27.2087   29.0212   56.8967 H   0  0  0  0  0  0  0  0  0  0  0  0  # atno 3119 bound_to 3112
   33.1754   29.7161   49.3922 H   0  0  0  0  0  0  0  0  0  0  0  0  # atno 3169 bound_to 3160
   36.2837   38.8923   42.2133 H   0  0  0  0  0  0  0  0  0  0  0  0  # atno 3578 bound_to 3569
   39.2708   39.1441   43.1547 H   0  0  0  0  0  0  0  0  0  0  0  0  # atno 3658 bound_to 3649
   25.6966   36.4584   58.1113 H   0  0  0  0  0  0  0  0  0  0  0  0  # atno 3855 bound_to 3846
   38.9968   22.1404   61.6130 H   0  0  0  0  0  0  0  0  0  0  0  0  # atno 5145 bound_to 5136
   40.6237   38.2915   42.8541 LP  0  0  0  0  0  0  0  0  0  0  0  0  # atno 5461 bound_to 3649
   40.6891   39.6305   43.7866 LP  0  0  0  0  0  0  0  0  0  0  0  0  # atno 5462 bound_to 3649
   36.6093   38.5834   43.7775 LP  0  0  0  0  0  0  0  0  0  0  0  0  # atno 5463 bound_to 3569
   35.2392   39.3708   43.3657 LP  0  0  0  0  0  0  0  0  0  0  0  0  # atno 5464 bound_to 3569
   24.1333   36.5469   58.5557 LP  0  0  0  0  0  0  0  0  0  0  0  0  # atno 5513 bound_to 3846
   25.2739   37.3459   59.4086 LP  0  0  0  0  0  0  0  0  0  0  0  0  # atno 5514 bound_to 3846
   28.7222   28.6538   56.4258 LP  0  0  0  0  0  0  0  0  0  0  0  0  # atno 5515 bound_to 3112
   27.4621   28.3740   55.4255 LP  0  0  0  0  0  0  0  0  0  0  0  0  # atno 5516 bound_to 3112
   39.6652   20.9043   60.7927 LP  0  0  0  0  0  0  0  0  0  0  0  0  # atno 5523 bound_to 5136
   40.5725   22.1960   61.2111 LP  0  0  0  0  0  0  0  0  0  0  0  0  # atno 5524 bound_to 5136
   42.7420   20.4508   53.3317 LP  0  0  0  0  0  0  0  0  0  0  0  0  # atno 5533 bound_to 1917
   41.4651   21.1631   52.6043 LP  0  0  0  0  0  0  0  0  0  0  0  0  # atno 5534 bound_to 1917
   32.6990   30.5089   48.0536 LP  0  0  0  0  0  0  0  0  0  0  0  0  # atno 5563 bound_to 3160
   32.4223   28.9061   48.1988 LP  0  0  0  0  0  0  0  0  0  0  0  0  # atno 5564 bound_to 3160
   27.7924   24.9421   67.8330 LP  0  0  0  0  0  0  0  0  0  0  0  0  # atno 5571 bound_to 627 
   27.5328   25.9860   66.6043 LP  0  0  0  0  0  0  0  0  0  0  0  0  # atno 5572 bound_to 627 

> <Gold.Score>
     Fitness  S(hb_ext) S(vdw_ext)  S(hb_int)    S(int)      intcor
     36.00       3.35      24.01       0.00      -0.36      -0.76

> <Gold.Goldscore.Fitness>
36.0020

> <Gold.Goldscore.Internal.Vdw>
-0.5347

> <Gold.Goldscore.Internal.Torsion>
-0.5791

> <Gold.Goldscore.External.Vdw>
24.0075

> <Gold.Goldscore.Internal.HBond>
0.0000

> <Gold.Goldscore.External.HBond>
3.3469

> <Gold.Goldscore.Internal.Correction>
-0.7585

> <Gold.Goldscore.Hbonds>
donor molecule, donor type, donor heavy atom, donor atom, acceptor molecule, acceptor atom, score
      P1  H  2570  2581       L1    17  0.42
      P1  H  3112  3119       L1    17  0.12
      L1  H     8    22       P1  2538  0.10

> <Gold.Goldscore.Internal.Vdw.Weighted>
-0.5347

> <Gold.Goldscore.Internal.Torsion.Weighted>
-0.5791

> <Gold.Goldscore.External.Vdw.Weighted>
33.0103

> <Gold.Goldscore.Internal.HBond.Weighted>
0.0000

> <Gold.Goldscore.External.HBond.Weighted>
3.3469

> <Gold.Goldscore.Internal.Correction.Weighted>
-0.7585

> <Gold.Rescore>
     Score     S(PLP)   S(hbond)     S(cho)   S(metal)  DE(clash)   DE(tors)     intcor
     35.09     -30.93       2.11       0.00       0.00       0.00       1.08       ----

> <Gold.PLP.Fitness>
35.0887

> <Gold.PLP.PLP>
-30.9291

> <Gold.PLP.part.hbond>
-3.0000

> <Gold.PLP.part.metal>
0.0000

> <Gold.PLP.part.buried>
-5.9780

> <Gold.PLP.part.nonpolar>
-27.6970

> <Gold.PLP.part.repulsive>
4.5732

> <Gold.PLP.ligand.clash>
0.0000

> <Gold.PLP.ligand.torsion>
1.0844

> <Gold.PLP.Chemscore.Hbond>
2.1094

> <Gold.PLP.Chemscore.CHOScore>
0.0000

> <Gold.PLP.Chemscore.Metal>
0.0000

> <Gold.Chemscore.Hbonds>
donor molecule, donor type, donor heavy atom, donor atom, acceptor molecule, acceptor atom, score
      L1  H     8    22       P1  2538  0.85
      P1  H  2570  2581       L1    17  0.62
      P1  H  3112  3119       L1    17  0.64

> <Gold.PLP.Chemscore.Internal.Correction>
   9.000000E+99

