#       Name:                CT1002167954
#       Creating user name   hitesit
#       Creation time:       Sun Apr 16 20:16:17 2023


#       File generated by GOLD software.
#

@<TRIPOS>MOLECULE
CT1002167954|ligand_prepared|mol2|1|dock5
    29    30     1
SMALL
NO_CHARGES


@<TRIPOS>ATOM
      1 C1          32.5072  18.5624  58.4248 C.3            1 RES1               0.0000
      2 C2          33.9201  17.9550  58.5415 C.ar           1 RES1               0.0000
      3 C3          31.7204  17.6416  57.4967 C.2            1 RES1               0.0000
      4 C4          31.9552  18.6344  59.8442 C.2            1 RES1               0.0000
      5 C5          32.4880  19.9905  57.8317 C.3            1 RES1               0.0000
      6 C6          34.9230  18.6226  59.2381 C.ar           1 RES1               0.0000
      7 C7          34.2344  16.7290  57.9613 C.ar           1 RES1               0.0000
      8 N8          30.7783  16.8321  58.0597 N.am           1 RES1               0.0000
      9 O9          31.9505  17.5978  56.2944 O.2            1 RES1               0.0000
     10 N10         30.8745  17.8506  60.1533 N.am           1 RES1               0.0000
     11 O11         32.4566  19.3503  60.7023 O.2            1 RES1               0.0000
     12 C12         31.0987  20.6037  57.7544 C.3            1 RES1               0.0000
     13 C13         36.1933  18.0828  59.3531 C.ar           1 RES1               0.0000
     14 C14         35.5055  16.1910  58.0773 C.ar           1 RES1               0.0000
     15 C15         30.2801  16.9299  59.3341 C.2            1 RES1               0.0000
     16 C16         36.4853  16.8666  58.7732 C.ar           1 RES1               0.0000
     17 O17         29.3462  16.2230  59.7021 O.2            1 RES1               0.0000
     18 H18         33.1256  20.6370  58.4472 H              1 RES1               0.0000
     19 H19         32.9169  19.9595  56.8224 H              1 RES1               0.0000
     20 H20         34.7126  19.5820  59.6990 H              1 RES1               0.0000
     21 H21         33.4797  16.1803  57.4082 H              1 RES1               0.0000
     22 H22         30.4101  16.0849  57.4797 H              1 RES1               0.0000
     23 H23         30.4761  17.9642  61.0800 H              1 RES1               0.0000
     24 H24         31.1421  21.6050  57.3312 H              1 RES1               0.0000
     25 H25         30.4447  19.9995  57.1290 H              1 RES1               0.0000
     26 H26         30.6522  20.6731  58.7441 H              1 RES1               0.0000
     27 H27         36.9613  18.6191  59.9007 H              1 RES1               0.0000
     28 H28         35.7309  15.2338  57.6188 H              1 RES1               0.0000
     29 H29         37.4804  16.4437  58.8638 H              1 RES1               0.0000
@<TRIPOS>BOND
    1    1    2 1     
    2    1    3 1     
    3    1    4 1     
    4    1    5 1     
    5    2    6 ar    
    6    2    7 ar    
    7    3    8 1     
    8    3    9 2     
    9    4   10 1     
   10    4   11 2     
   11    5   12 1     
   12    5   18 1     
   13    5   19 1     
   14    6   13 ar    
   15    6   20 1     
   16    7   14 ar    
   17    7   21 1     
   18    8   15 1     
   19    8   22 1     
   20   10   15 1     
   21   10   23 1     
   22   12   24 1     
   23   12   25 1     
   24   12   26 1     
   25   13   16 ar    
   26   13   27 1     
   27   14   16 ar    
   28   14   28 1     
   29   15   17 2     
   30   16   29 1     
@<TRIPOS>SUBSTRUCTURE
      1 RES1           1
@<TRIPOS>SET
DONOR_HYDROGENS      STATIC     ATOMS    <user>   **** ""
2 22 23
ATOM$RED        STATIC     ATOMS    COLORGROUP SYSTEM
2 22 23
@<TRIPOS>COMMENT
> <Gold.Version>
2022.3.0

> <Gold.Id.Protein>
unknown|3l9n_clean|pdb

> <Gold.Protein.RotatedTorsions>
[ 3658 3649 3648 3646 ] final   61.04 input   60.01 | X-H torsion
[ 3578 3569 3568 3566 ] final   82.89 input   59.99 | X-H torsion
[ 3855 3846 3845 3843 ] final   42.91 input   60.02 | X-H torsion
[ 2581 2570 2569 2568 ] final  138.73 input   60.01 | X-H torsion
[ 3119 3112 3110 3107 ] final   10.94 input   60.01 | X-H torsion
[ 5145 5136 5135 5133 ] final   74.88 input   59.99 | X-H torsion
[ 1921 1917 1916 1913 ] final   13.31 input   59.98 | X-H torsion
[ 3169 3160 3159 3157 ] final  116.30 input   59.99 | X-H torsion
[  630  627  626  623 ] final   45.98 input   60.00 | X-H torsion

> <Gold.Protein.ActiveResidues>
 LEU49   GLY50   THR51   GLY52   SER53   PHE54   GLY55   LEU82   LYS83   GLN84  
 HIS87   GLY126  GLU127  PHE129  SER130  HIS131  LEU132  ARG133  ARG134  GLY136 
 ARG137  ARG165  ASP166  LEU167  LYS168  PRO169  GLU170  ASN171  MET173  ASP184 
 PHE187  TPO197  LEU198  CYS199  GLY200  THR201  PRO202  GLU203  TYR204  LEU205 
 ILE209  ILE210  VAL226  LEU227  TYR229  GLU230  ALA233  GLY234  TYR235  PRO236 
 PRO237  PHE238  PHE239  ALA240  ASP241  GLN242  PRO243  ILE244  GLN245  ILE246 
 TYR247  LYS249  ARG256  PHE257  PRO258  SER259  ASN326  PHE327  ASP328  ASP329 
 TYR330 

> <Gold.Protein.RotatedAtoms>
   27.8780   25.4659   68.3642 H   0  0  0  0  0  0  0  0  0  0  0  0  # atno 630  bound_to 627 
   41.6671   21.1320   52.5252 H   0  0  0  0  0  0  0  0  0  0  0  0  # atno 1921 bound_to 1917
   28.7247   26.9014   57.7001 H   0  0  0  0  0  0  0  0  0  0  0  0  # atno 2581 bound_to 2570
   30.3655   26.6752   57.7720 H   0  0  0  0  0  0  0  0  0  0  0  0  # atno 2582 bound_to 2570
   29.7455   28.0103   57.0090 H   0  0  0  0  0  0  0  0  0  0  0  0  # atno 2583 bound_to 2570
   26.9317   28.9008   56.5365 H   0  0  0  0  0  0  0  0  0  0  0  0  # atno 3119 bound_to 3112
   32.6017   28.7921   48.6236 H   0  0  0  0  0  0  0  0  0  0  0  0  # atno 3169 bound_to 3160
   36.7481   38.6041   42.6040 H   0  0  0  0  0  0  0  0  0  0  0  0  # atno 3578 bound_to 3569
   40.0593   39.7985   43.7708 H   0  0  0  0  0  0  0  0  0  0  0  0  # atno 3658 bound_to 3649
   25.8570   36.6043   58.2768 H   0  0  0  0  0  0  0  0  0  0  0  0  # atno 3855 bound_to 3846
   38.9279   21.2880   61.1934 H   0  0  0  0  0  0  0  0  0  0  0  0  # atno 5145 bound_to 5136
   39.4633   38.6132   42.8288 LP  0  0  0  0  0  0  0  0  0  0  0  0  # atno 5461 bound_to 3649
   41.0551   38.6496   43.1912 LP  0  0  0  0  0  0  0  0  0  0  0  0  # atno 5462 bound_to 3649
   36.0590   38.8619   44.0554 LP  0  0  0  0  0  0  0  0  0  0  0  0  # atno 5463 bound_to 3569
   35.3219   39.3824   42.6944 LP  0  0  0  0  0  0  0  0  0  0  0  0  # atno 5464 bound_to 3569
   24.2427   36.4086   58.3452 LP  0  0  0  0  0  0  0  0  0  0  0  0  # atno 5513 bound_to 3846
   25.0030   37.3374   59.4525 LP  0  0  0  0  0  0  0  0  0  0  0  0  # atno 5514 bound_to 3846
   28.5330   28.8394   56.8183 LP  0  0  0  0  0  0  0  0  0  0  0  0  # atno 5515 bound_to 3112
   27.9303   28.3097   55.3960 LP  0  0  0  0  0  0  0  0  0  0  0  0  # atno 5516 bound_to 3112
   40.5055   21.3672   60.8031 LP  0  0  0  0  0  0  0  0  0  0  0  0  # atno 5523 bound_to 5136
   39.8017   22.5914   61.6234 LP  0  0  0  0  0  0  0  0  0  0  0  0  # atno 5524 bound_to 5136
   41.1640   20.6837   54.0064 LP  0  0  0  0  0  0  0  0  0  0  0  0  # atno 5533 bound_to 1917
   42.6981   20.3811   53.5358 LP  0  0  0  0  0  0  0  0  0  0  0  0  # atno 5534 bound_to 1917
   33.2056   30.1677   49.2482 LP  0  0  0  0  0  0  0  0  0  0  0  0  # atno 5563 bound_to 3160
   32.4937   30.1783   47.7786 LP  0  0  0  0  0  0  0  0  0  0  0  0  # atno 5564 bound_to 3160
   27.5865   25.2546   66.7771 LP  0  0  0  0  0  0  0  0  0  0  0  0  # atno 5571 bound_to 627 
   27.6588   26.7610   67.4034 LP  0  0  0  0  0  0  0  0  0  0  0  0  # atno 5572 bound_to 627 

> <Gold.Score>
     Fitness  S(hb_ext) S(vdw_ext)  S(hb_int)    S(int)      intcor
     32.56       0.00      25.30       0.00      -2.23      -0.76

> <Gold.Goldscore.Fitness>
32.5606

> <Gold.Goldscore.Internal.Vdw>
-2.6206

> <Gold.Goldscore.Internal.Torsion>
-0.3713

> <Gold.Goldscore.External.Vdw>
25.3046

> <Gold.Goldscore.Internal.HBond>
0.0000

> <Gold.Goldscore.External.HBond>
0.0000

> <Gold.Goldscore.Internal.Correction>
-0.7585

> <Gold.Goldscore.Internal.Vdw.Weighted>
-2.6206

> <Gold.Goldscore.Internal.Torsion.Weighted>
-0.3713

> <Gold.Goldscore.External.Vdw.Weighted>
34.7939

> <Gold.Goldscore.Internal.HBond.Weighted>
0.0000

> <Gold.Goldscore.External.HBond.Weighted>
0.0000

> <Gold.Goldscore.Internal.Correction.Weighted>
-0.7585

> <Gold.Rescore>
     Score     S(PLP)   S(hbond)     S(cho)   S(metal)  DE(clash)   DE(tors)     intcor
     34.45     -35.92       0.00       0.00       0.00       1.38       0.04       ----

> <Gold.PLP.Fitness>
34.4547

> <Gold.PLP.PLP>
-35.9205

> <Gold.PLP.part.hbond>
-0.7487

> <Gold.PLP.part.metal>
0.0000

> <Gold.PLP.part.buried>
-0.6152

> <Gold.PLP.part.nonpolar>
-35.2212

> <Gold.PLP.part.repulsive>
0.2716

> <Gold.PLP.ligand.clash>
1.3765

> <Gold.PLP.ligand.torsion>
0.0446

> <Gold.PLP.Chemscore.Hbond>
0.0000

> <Gold.PLP.Chemscore.CHOScore>
0.0000

> <Gold.PLP.Chemscore.Metal>
0.0000

> <Gold.PLP.Chemscore.Internal.Correction>
   9.000000E+99

