#       Name:                CT1002167954
#       Creating user name   hitesit
#       Creation time:       Sun Apr 16 20:16:16 2023


#       File generated by GOLD software.
#

@<TRIPOS>MOLECULE
CT1002167954|ligand_prepared|mol2|1|dock4
    29    30     1
SMALL
NO_CHARGES


@<TRIPOS>ATOM
      1 C1          30.9691  19.4049  59.1807 C.3            1 RES1               0.0000
      2 C2          30.9418  20.8126  59.8104 C.ar           1 RES1               0.0000
      3 C3          31.1932  19.6088  57.6852 C.2            1 RES1               0.0000
      4 C4          32.0916  18.6463  59.8802 C.2            1 RES1               0.0000
      5 C5          29.6589  18.6072  59.3768 C.3            1 RES1               0.0000
      6 C6          29.7502  21.3547  60.2824 C.ar           1 RES1               0.0000
      7 C7          32.0985  21.5785  59.9283 C.ar           1 RES1               0.0000
      8 N8          32.4252  19.3072  57.1840 N.am           1 RES1               0.0000
      9 O9          30.3146  20.0646  56.9637 O.2            1 RES1               0.0000
     10 N10         33.1812  18.2802  59.1342 N.am           1 RES1               0.0000
     11 O11         32.0498  18.3769  61.0743 O.2            1 RES1               0.0000
     12 C12         29.7334  17.1732  58.8765 C.3            1 RES1               0.0000
     13 C13         29.7165  22.6156  60.8544 C.ar           1 RES1               0.0000
     14 C14         32.0626  22.8395  60.5004 C.ar           1 RES1               0.0000
     15 C15         33.4127  18.6032  57.8249 C.2            1 RES1               0.0000
     16 C16         30.8726  23.3586  60.9642 C.ar           1 RES1               0.0000
     17 O17         34.4424  18.2841  57.2375 O.2            1 RES1               0.0000
     18 H18         29.4088  18.5960  60.4448 H              1 RES1               0.0000
     19 H19         28.8484  19.1239  58.8480 H              1 RES1               0.0000
     20 H20         28.8299  20.7857  60.2024 H              1 RES1               0.0000
     21 H21         33.0459  21.1908  59.5694 H              1 RES1               0.0000
     22 H22         32.6313  19.6356  56.2459 H              1 RES1               0.0000
     23 H23         33.8849  17.7144  59.5979 H              1 RES1               0.0000
     24 H24         28.7885  16.6587  59.0381 H              1 RES1               0.0000
     25 H25         29.9557  17.1471  57.8118 H              1 RES1               0.0000
     26 H26         30.5128  16.6224  59.3991 H              1 RES1               0.0000
     27 H27         28.7772  23.0203  61.2166 H              1 RES1               0.0000
     28 H28         32.9748  23.4209  60.5842 H              1 RES1               0.0000
     29 H29         30.8460  24.3462  61.4127 H              1 RES1               0.0000
@<TRIPOS>BOND
    1    1    2 1     
    2    1    3 1     
    3    1    4 1     
    4    1    5 1     
    5    2    6 ar    
    6    2    7 ar    
    7    3    8 1     
    8    3    9 2     
    9    4   10 1     
   10    4   11 2     
   11    5   12 1     
   12    5   18 1     
   13    5   19 1     
   14    6   13 ar    
   15    6   20 1     
   16    7   14 ar    
   17    7   21 1     
   18    8   15 1     
   19    8   22 1     
   20   10   15 1     
   21   10   23 1     
   22   12   24 1     
   23   12   25 1     
   24   12   26 1     
   25   13   16 ar    
   26   13   27 1     
   27   14   16 ar    
   28   14   28 1     
   29   15   17 2     
   30   16   29 1     
@<TRIPOS>SUBSTRUCTURE
      1 RES1           1
@<TRIPOS>SET
DONOR_HYDROGENS      STATIC     ATOMS    <user>   **** ""
2 22 23
ATOM$RED        STATIC     ATOMS    COLORGROUP SYSTEM
2 22 23
@<TRIPOS>COMMENT
> <Gold.Version>
2022.3.0

> <Gold.Id.Protein>
unknown|3l9n_clean|pdb

> <Gold.Protein.RotatedTorsions>
[ 3658 3649 3648 3646 ] final   83.11 input   60.01 | X-H torsion
[ 3578 3569 3568 3566 ] final   52.30 input   59.99 | X-H torsion
[ 3855 3846 3845 3843 ] final   25.19 input   60.02 | X-H torsion
[ 2581 2570 2569 2568 ] final  100.24 input   60.01 | X-H torsion
[ 3119 3112 3110 3107 ] final  -95.05 input   60.01 | X-H torsion
[ 5145 5136 5135 5133 ] final   95.94 input   59.99 | X-H torsion
[ 1921 1917 1916 1913 ] final  -89.41 input   59.98 | X-H torsion
[ 3169 3160 3159 3157 ] final  170.17 input   59.99 | X-H torsion
[  630  627  626  623 ] final  129.17 input   60.00 | X-H torsion

> <Gold.Protein.ActiveResidues>
 LEU49   GLY50   THR51   GLY52   SER53   PHE54   GLY55   LEU82   LYS83   GLN84  
 HIS87   GLY126  GLU127  PHE129  SER130  HIS131  LEU132  ARG133  ARG134  GLY136 
 ARG137  ARG165  ASP166  LEU167  LYS168  PRO169  GLU170  ASN171  MET173  ASP184 
 PHE187  TPO197  LEU198  CYS199  GLY200  THR201  PRO202  GLU203  TYR204  LEU205 
 ILE209  ILE210  VAL226  LEU227  TYR229  GLU230  ALA233  GLY234  TYR235  PRO236 
 PRO237  PHE238  PHE239  ALA240  ASP241  GLN242  PRO243  ILE244  GLN245  ILE246 
 TYR247  LYS249  ARG256  PHE257  PRO258  SER259  ASN326  PHE327  ASP328  ASP329 
 TYR330 

> <Gold.Protein.RotatedAtoms>
   27.7706   26.6414   67.9736 H   0  0  0  0  0  0  0  0  0  0  0  0  # atno 630  bound_to 627 
   41.0238   20.8158   53.8000 H   0  0  0  0  0  0  0  0  0  0  0  0  # atno 1921 bound_to 1917
   28.6945   27.4450   57.3810 H   0  0  0  0  0  0  0  0  0  0  0  0  # atno 2581 bound_to 2570
   29.8347   26.3898   57.9597 H   0  0  0  0  0  0  0  0  0  0  0  0  # atno 2582 bound_to 2570
   30.3061   27.7520   57.1404 H   0  0  0  0  0  0  0  0  0  0  0  0  # atno 2583 bound_to 2570
   28.3664   28.9173   56.9553 H   0  0  0  0  0  0  0  0  0  0  0  0  # atno 3119 bound_to 3112
   32.3393   29.1740   47.9135 H   0  0  0  0  0  0  0  0  0  0  0  0  # atno 3169 bound_to 3160
   36.8651   38.5000   43.0725 H   0  0  0  0  0  0  0  0  0  0  0  0  # atno 3578 bound_to 3569
   40.4119   39.7494   43.8119 H   0  0  0  0  0  0  0  0  0  0  0  0  # atno 3658 bound_to 3649
   25.6854   36.4507   58.1031 H   0  0  0  0  0  0  0  0  0  0  0  0  # atno 3855 bound_to 3846
   38.8374   21.5708   61.3633 H   0  0  0  0  0  0  0  0  0  0  0  0  # atno 5145 bound_to 5136
   39.3005   38.8939   42.9869 LP  0  0  0  0  0  0  0  0  0  0  0  0  # atno 5461 bound_to 3649
   40.8627   38.4183   42.9917 LP  0  0  0  0  0  0  0  0  0  0  0  0  # atno 5462 bound_to 3649
   35.6361   39.1029   43.9523 LP  0  0  0  0  0  0  0  0  0  0  0  0  # atno 5463 bound_to 3569
   35.6269   39.2463   42.3257 LP  0  0  0  0  0  0  0  0  0  0  0  0  # atno 5464 bound_to 3569
   24.1293   36.5557   58.5684 LP  0  0  0  0  0  0  0  0  0  0  0  0  # atno 5513 bound_to 3846
   25.2892   37.3449   59.4041 LP  0  0  0  0  0  0  0  0  0  0  0  0  # atno 5514 bound_to 3846
   28.1510   28.3123   55.4604 LP  0  0  0  0  0  0  0  0  0  0  0  0  # atno 5515 bound_to 3112
   26.8667   28.8202   56.3318 LP  0  0  0  0  0  0  0  0  0  0  0  0  # atno 5516 bound_to 3112
   40.2719   21.1219   60.7403 LP  0  0  0  0  0  0  0  0  0  0  0  0  # atno 5523 bound_to 5136
   40.1264   22.5520   61.5151 LP  0  0  0  0  0  0  0  0  0  0  0  0  # atno 5524 bound_to 5136
   42.5737   20.3199   53.7824 LP  0  0  0  0  0  0  0  0  0  0  0  0  # atno 5533 bound_to 1917
   41.9365   21.0635   52.4756 LP  0  0  0  0  0  0  0  0  0  0  0  0  # atno 5534 bound_to 1917
   33.0764   29.3302   49.3555 LP  0  0  0  0  0  0  0  0  0  0  0  0  # atno 5563 bound_to 3160
   32.8873   30.6310   48.3867 LP  0  0  0  0  0  0  0  0  0  0  0  0  # atno 5564 bound_to 3160
   27.8183   25.0147   67.9837 LP  0  0  0  0  0  0  0  0  0  0  0  0  # atno 5571 bound_to 627 
   27.5351   25.8173   66.5901 LP  0  0  0  0  0  0  0  0  0  0  0  0  # atno 5572 bound_to 627 

> <Gold.Score>
     Fitness  S(hb_ext) S(vdw_ext)  S(hb_int)    S(int)      intcor
     31.23       0.07      23.17       0.00      -0.70      -0.76

> <Gold.Goldscore.Fitness>
31.2273

> <Gold.Goldscore.Internal.Vdw>
-1.0416

> <Gold.Goldscore.Internal.Torsion>
-0.4156

> <Gold.Goldscore.External.Vdw>
23.1699

> <Gold.Goldscore.Internal.HBond>
0.0000

> <Gold.Goldscore.External.HBond>
0.0675

> <Gold.Goldscore.Internal.Correction>
-0.7585

> <Gold.Goldscore.Hbonds>
donor molecule, donor type, donor heavy atom, donor atom, acceptor molecule, acceptor atom, score
      L1  H     8    22       P1  2601  0.03

> <Gold.Goldscore.Internal.Vdw.Weighted>
-1.0416

> <Gold.Goldscore.Internal.Torsion.Weighted>
-0.4156

> <Gold.Goldscore.External.Vdw.Weighted>
31.8586

> <Gold.Goldscore.Internal.HBond.Weighted>
0.0000

> <Gold.Goldscore.External.HBond.Weighted>
0.0675

> <Gold.Goldscore.Internal.Correction.Weighted>
-0.7585

> <Gold.Rescore>
     Score     S(PLP)   S(hbond)     S(cho)   S(metal)  DE(clash)   DE(tors)     intcor
     21.08     -21.13       0.00       0.00       0.00       0.00       0.02       ----

> <Gold.PLP.Fitness>
21.0832

> <Gold.PLP.PLP>
-21.1312

> <Gold.PLP.part.hbond>
0.0841

> <Gold.PLP.part.metal>
0.0000

> <Gold.PLP.part.buried>
8.6366

> <Gold.PLP.part.nonpolar>
-30.1282

> <Gold.PLP.part.repulsive>
0.3201

> <Gold.PLP.ligand.clash>
0.0000

> <Gold.PLP.ligand.torsion>
0.0240

> <Gold.PLP.Chemscore.Hbond>
0.0000

> <Gold.PLP.Chemscore.CHOScore>
0.0000

> <Gold.PLP.Chemscore.Metal>
0.0000

> <Gold.Chemscore.Hbonds>
donor molecule, donor type, donor heavy atom, donor atom, acceptor molecule, acceptor atom, score
      L1  H     8    22       P1  2601  0.10

> <Gold.PLP.Chemscore.Internal.Correction>
   9.000000E+99

