#       Name:                CT1002167954
#       Creating user name   hitesit
#       Creation time:       Sun Apr 16 20:16:21 2023


#       File generated by GOLD software.
#

@<TRIPOS>MOLECULE
CT1002167954|ligand_prepared|mol2|1|dock8
    29    30     1
SMALL
NO_CHARGES


@<TRIPOS>ATOM
      1 C1          32.7857  18.9801  58.3895 C.3            1 RES1               0.0000
      2 C2          31.5690  18.0803  58.6872 C.ar           1 RES1               0.0000
      3 C3          32.3634  19.9107  57.2564 C.2            1 RES1               0.0000
      4 C4          33.1149  19.6977  59.6939 C.2            1 RES1               0.0000
      5 C5          34.0444  18.2011  57.9420 C.3            1 RES1               0.0000
      6 C6          30.5355  18.5327  59.5020 C.ar           1 RES1               0.0000
      7 C7          31.4648  16.7987  58.1530 C.ar           1 RES1               0.0000
      8 N8          32.1120  21.2140  57.5696 N.am           1 RES1               0.0000
      9 O9          32.2148  19.4983  56.1127 O.2            1 RES1               0.0000
     10 N10         32.9536  21.0578  59.7369 N.am           1 RES1               0.0000
     11 O11         33.4966  19.0956  60.6899 O.2            1 RES1               0.0000
     12 C12         35.3152  19.0362  57.9435 C.3            1 RES1               0.0000
     13 C13         29.4363  17.7341  59.7708 C.ar           1 RES1               0.0000
     14 C14         30.3648  16.0016  58.4232 C.ar           1 RES1               0.0000
     15 C15         32.4378  21.8447  58.7434 C.2            1 RES1               0.0000
     16 C16         29.3499  16.4684  59.2313 C.ar           1 RES1               0.0000
     17 O17         32.2724  23.0538  58.8766 O.2            1 RES1               0.0000
     18 H18         34.1850  17.3430  58.6109 H              1 RES1               0.0000
     19 H19         33.8781  17.8131  56.9294 H              1 RES1               0.0000
     20 H20         30.5872  19.5251  59.9375 H              1 RES1               0.0000
     21 H21         32.2517  16.4103  57.5155 H              1 RES1               0.0000
     22 H22         31.6380  21.7713  56.8660 H              1 RES1               0.0000
     23 H23         33.2452  21.5272  60.5883 H              1 RES1               0.0000
     24 H24         36.1677  18.4418  57.6217 H              1 RES1               0.0000
     25 H25         35.2199  19.8848  57.2693 H              1 RES1               0.0000
     26 H26         35.5249  19.4175  58.9408 H              1 RES1               0.0000
     27 H27         28.6409  18.1056  60.4084 H              1 RES1               0.0000
     28 H28         30.3013  15.0059  57.9970 H              1 RES1               0.0000
     29 H29         28.4885  15.8431  59.4416 H              1 RES1               0.0000
@<TRIPOS>BOND
    1    1    2 1     
    2    1    3 1     
    3    1    4 1     
    4    1    5 1     
    5    2    6 ar    
    6    2    7 ar    
    7    3    8 1     
    8    3    9 2     
    9    4   10 1     
   10    4   11 2     
   11    5   12 1     
   12    5   18 1     
   13    5   19 1     
   14    6   13 ar    
   15    6   20 1     
   16    7   14 ar    
   17    7   21 1     
   18    8   15 1     
   19    8   22 1     
   20   10   15 1     
   21   10   23 1     
   22   12   24 1     
   23   12   25 1     
   24   12   26 1     
   25   13   16 ar    
   26   13   27 1     
   27   14   16 ar    
   28   14   28 1     
   29   15   17 2     
   30   16   29 1     
@<TRIPOS>SUBSTRUCTURE
      1 RES1           1
@<TRIPOS>SET
DONOR_HYDROGENS      STATIC     ATOMS    <user>   **** ""
2 22 23
ATOM$RED        STATIC     ATOMS    COLORGROUP SYSTEM
2 22 23
@<TRIPOS>COMMENT
> <Gold.Version>
2022.3.0

> <Gold.Id.Protein>
unknown|3l9n_clean|pdb

> <Gold.Protein.RotatedTorsions>
[ 3658 3649 3648 3646 ] final   51.71 input   60.01 | X-H torsion
[ 3578 3569 3568 3566 ] final -138.58 input   59.99 | X-H torsion
[ 3855 3846 3845 3843 ] final -175.03 input   60.02 | X-H torsion
[ 2581 2570 2569 2568 ] final -145.29 input   60.01 | X-H torsion
[ 3119 3112 3110 3107 ] final -137.50 input   60.01 | X-H torsion
[ 5145 5136 5135 5133 ] final   42.70 input   59.99 | X-H torsion
[ 1921 1917 1916 1913 ] final  121.35 input   59.98 | X-H torsion
[ 3169 3160 3159 3157 ] final -103.49 input   59.99 | X-H torsion
[  630  627  626  623 ] final   55.45 input   60.00 | X-H torsion

> <Gold.Protein.ActiveResidues>
 LEU49   GLY50   THR51   GLY52   SER53   PHE54   GLY55   LEU82   LYS83   GLN84  
 HIS87   GLY126  GLU127  PHE129  SER130  HIS131  LEU132  ARG133  ARG134  GLY136 
 ARG137  ARG165  ASP166  LEU167  LYS168  PRO169  GLU170  ASN171  MET173  ASP184 
 PHE187  TPO197  LEU198  CYS199  GLY200  THR201  PRO202  GLU203  TYR204  LEU205 
 ILE209  ILE210  VAL226  LEU227  TYR229  GLU230  ALA233  GLY234  TYR235  PRO236 
 PRO237  PHE238  PHE239  ALA240  ASP241  GLN242  PRO243  ILE244  GLN245  ILE246 
 TYR247  LYS249  ARG256  PHE257  PRO258  SER259  ASN326  PHE327  ASP328  ASP329 
 TYR330 

> <Gold.Protein.RotatedAtoms>
   27.8825   25.6130   68.4118 H   0  0  0  0  0  0  0  0  0  0  0  0  # atno 630  bound_to 627 
   42.7337   20.4460   53.3542 H   0  0  0  0  0  0  0  0  0  0  0  0  # atno 1921 bound_to 1917
   29.7444   26.3769   57.9713 H   0  0  0  0  0  0  0  0  0  0  0  0  # atno 2581 bound_to 2570
   30.3664   27.6906   57.1738 H   0  0  0  0  0  0  0  0  0  0  0  0  # atno 2582 bound_to 2570
   28.7251   27.5199   57.3356 H   0  0  0  0  0  0  0  0  0  0  0  0  # atno 2583 bound_to 2570
   28.7137   28.6599   56.4335 H   0  0  0  0  0  0  0  0  0  0  0  0  # atno 3119 bound_to 3112
   32.6300   30.4204   47.9561 H   0  0  0  0  0  0  0  0  0  0  0  0  # atno 3169 bound_to 3160
   35.2363   39.4020   42.9839 H   0  0  0  0  0  0  0  0  0  0  0  0  # atno 3578 bound_to 3569
   39.9133   39.7849   43.7305 H   0  0  0  0  0  0  0  0  0  0  0  0  # atno 3658 bound_to 3649
   24.6564   37.2537   59.4058 H   0  0  0  0  0  0  0  0  0  0  0  0  # atno 3855 bound_to 3846
   39.2681   20.9847   60.9452 H   0  0  0  0  0  0  0  0  0  0  0  0  # atno 5145 bound_to 5136
   39.5661   38.5105   42.7801 LP  0  0  0  0  0  0  0  0  0  0  0  0  # atno 5461 bound_to 3649
   41.0994   38.7660   43.2804 LP  0  0  0  0  0  0  0  0  0  0  0  0  # atno 5462 bound_to 3649
   36.5822   38.7172   42.3776 LP  0  0  0  0  0  0  0  0  0  0  0  0  # atno 5463 bound_to 3569
   36.3210   38.7236   43.9895 LP  0  0  0  0  0  0  0  0  0  0  0  0  # atno 5464 bound_to 3569
   25.9671   36.8158   58.5460 LP  0  0  0  0  0  0  0  0  0  0  0  0  # atno 5513 bound_to 3846
   24.4872   36.2764   58.1153 LP  0  0  0  0  0  0  0  0  0  0  0  0  # atno 5514 bound_to 3846
   27.4719   28.3717   55.4225 LP  0  0  0  0  0  0  0  0  0  0  0  0  # atno 5515 bound_to 3112
   27.1958   29.0202   56.8955 LP  0  0  0  0  0  0  0  0  0  0  0  0  # atno 5516 bound_to 3112
   40.6591   21.8272   60.9980 LP  0  0  0  0  0  0  0  0  0  0  0  0  # atno 5523 bound_to 5136
   39.3055   22.4369   61.6783 LP  0  0  0  0  0  0  0  0  0  0  0  0  # atno 5524 bound_to 5136
   41.4856   21.1610   52.5932 LP  0  0  0  0  0  0  0  0  0  0  0  0  # atno 5533 bound_to 1917
   41.3022   20.5948   54.1138 LP  0  0  0  0  0  0  0  0  0  0  0  0  # atno 5534 bound_to 1917
   32.4705   28.8440   48.3256 LP  0  0  0  0  0  0  0  0  0  0  0  0  # atno 5563 bound_to 3160
   33.2003   29.8615   49.3737 LP  0  0  0  0  0  0  0  0  0  0  0  0  # atno 5564 bound_to 3160
   27.6089   25.1392   66.8790 LP  0  0  0  0  0  0  0  0  0  0  0  0  # atno 5571 bound_to 627 
   27.6318   26.7284   67.2536 LP  0  0  0  0  0  0  0  0  0  0  0  0  # atno 5572 bound_to 627 

> <Gold.Score>
     Fitness  S(hb_ext) S(vdw_ext)  S(hb_int)    S(int)      intcor
     32.23       0.81      23.00       0.00      -0.21      -0.76

> <Gold.Goldscore.Fitness>
32.2314

> <Gold.Goldscore.Internal.Vdw>
-0.3546

> <Gold.Goldscore.Internal.Torsion>
-0.6145

> <Gold.Goldscore.External.Vdw>
23.0042

> <Gold.Goldscore.Internal.HBond>
0.0000

> <Gold.Goldscore.External.HBond>
0.8113

> <Gold.Goldscore.Internal.Correction>
-0.7585

> <Gold.Goldscore.Hbonds>
donor molecule, donor type, donor heavy atom, donor atom, acceptor molecule, acceptor atom, score
      L1  H     8    22       P1  2620  0.41

> <Gold.Goldscore.Internal.Vdw.Weighted>
-0.3546

> <Gold.Goldscore.Internal.Torsion.Weighted>
-0.6145

> <Gold.Goldscore.External.Vdw.Weighted>
31.6308

> <Gold.Goldscore.Internal.HBond.Weighted>
0.0000

> <Gold.Goldscore.External.HBond.Weighted>
0.8113

> <Gold.Goldscore.Internal.Correction.Weighted>
-0.7585

> <Gold.Rescore>
     Score     S(PLP)   S(hbond)     S(cho)   S(metal)  DE(clash)   DE(tors)     intcor
     35.04     -32.94       0.99       0.00       0.00       0.00       0.44       ----

> <Gold.PLP.Fitness>
35.0422

> <Gold.PLP.PLP>
-32.9411

> <Gold.PLP.part.hbond>
-2.0000

> <Gold.PLP.part.metal>
0.0000

> <Gold.PLP.part.buried>
0.5025

> <Gold.PLP.part.nonpolar>
-32.5298

> <Gold.PLP.part.repulsive>
0.3694

> <Gold.PLP.ligand.clash>
0.0000

> <Gold.PLP.ligand.torsion>
0.4374

> <Gold.PLP.Chemscore.Hbond>
0.9920

> <Gold.PLP.Chemscore.CHOScore>
0.0000

> <Gold.PLP.Chemscore.Metal>
0.0000

> <Gold.Chemscore.Hbonds>
donor molecule, donor type, donor heavy atom, donor atom, acceptor molecule, acceptor atom, score
      L1  H     8    22       P1  2620  1.00

> <Gold.PLP.Chemscore.Internal.Correction>
   9.000000E+99

