#       Name:                CT1002167954
#       Creating user name   hitesit
#       Creation time:       Sun Apr 16 20:15:49 2023


#       File generated by GOLD software.
#

@<TRIPOS>MOLECULE
CT1002167954|ligand_prepared|mol2|1|dock10
    29    30     1
SMALL
NO_CHARGES


@<TRIPOS>ATOM
      1 C1          31.9238  18.9253  59.2710 C.3            1 RES1               0.0000
      2 C2          33.1719  18.0348  59.1036 C.ar           1 RES1               0.0000
      3 C3          31.3221  19.0859  57.8780 C.2            1 RES1               0.0000
      4 C4          31.0157  18.2051  60.2617 C.2            1 RES1               0.0000
      5 C5          32.2306  20.3307  59.8386 C.3            1 RES1               0.0000
      6 C6          34.0939  17.9053  60.1379 C.ar           1 RES1               0.0000
      7 C7          33.4130  17.3358  57.9238 C.ar           1 RES1               0.0000
      8 N8          30.1759  18.4003  57.6020 N.am           1 RES1               0.0000
      9 O9          31.8664  19.7724  57.0221 O.2            1 RES1               0.0000
     10 N10         29.8098  17.7401  59.8065 N.am           1 RES1               0.0000
     11 O11         31.3408  18.0215  61.4283 O.2            1 RES1               0.0000
     12 C12         30.9989  21.2063  60.0067 C.3            1 RES1               0.0000
     13 C13         35.2149  17.1037  59.9990 C.ar           1 RES1               0.0000
     14 C14         34.5348  16.5349  57.7869 C.ar           1 RES1               0.0000
     15 C15         29.3620  17.7780  58.5141 C.2            1 RES1               0.0000
     16 C16         35.4359  16.4178  58.8238 C.ar           1 RES1               0.0000
     17 O17         28.2889  17.2897  58.1718 O.2            1 RES1               0.0000
     18 H18         32.7199  20.2185  60.8140 H              1 RES1               0.0000
     19 H19         32.9346  20.8370  59.1666 H              1 RES1               0.0000
     20 H20         33.9380  18.4394  61.0692 H              1 RES1               0.0000
     21 H21         32.7183  17.4138  57.0944 H              1 RES1               0.0000
     22 H22         29.8984  18.3451  56.6272 H              1 RES1               0.0000
     23 H23         29.1883  17.3276  60.4949 H              1 RES1               0.0000
     24 H24         31.2701  22.1807  60.4078 H              1 RES1               0.0000
     25 H25         30.5013  21.3597  59.0514 H              1 RES1               0.0000
     26 H26         30.2879  20.7450  60.6890 H              1 RES1               0.0000
     27 H27         35.9217  17.0159  60.8175 H              1 RES1               0.0000
     28 H28         34.7050  15.9974  56.8599 H              1 RES1               0.0000
     29 H29         36.3139  15.7896  58.7153 H              1 RES1               0.0000
@<TRIPOS>BOND
    1    1    2 1     
    2    1    3 1     
    3    1    4 1     
    4    1    5 1     
    5    2    6 ar    
    6    2    7 ar    
    7    3    8 1     
    8    3    9 2     
    9    4   10 1     
   10    4   11 2     
   11    5   12 1     
   12    5   18 1     
   13    5   19 1     
   14    6   13 ar    
   15    6   20 1     
   16    7   14 ar    
   17    7   21 1     
   18    8   15 1     
   19    8   22 1     
   20   10   15 1     
   21   10   23 1     
   22   12   24 1     
   23   12   25 1     
   24   12   26 1     
   25   13   16 ar    
   26   13   27 1     
   27   14   16 ar    
   28   14   28 1     
   29   15   17 2     
   30   16   29 1     
@<TRIPOS>SUBSTRUCTURE
      1 RES1           1
@<TRIPOS>SET
DONOR_HYDROGENS      STATIC     ATOMS    <user>   **** ""
2 22 23
ATOM$RED        STATIC     ATOMS    COLORGROUP SYSTEM
2 22 23
@<TRIPOS>COMMENT
> <Gold.Version>
2022.3.0

> <Gold.Id.Protein>
unknown|3l9n_clean|pdb

> <Gold.Protein.RotatedTorsions>
[ 2826 2819 2817 2814 ] final -147.61 input   59.97 | X-H torsion
[ 5145 5136 5135 5133 ] final   64.24 input   59.99 | X-H torsion
[ 1819 1812 1811 1809 ] final   91.62 input   59.98 | X-H torsion
[ 2506 2497 2496 2494 ] final  115.19 input   59.98 | X-H torsion
[ 2581 2570 2569 2568 ] final    3.45 input   60.01 | X-H torsion
[ 3119 3112 3110 3107 ] final   20.06 input   60.01 | X-H torsion

> <Gold.Protein.ActiveResidues>
 THR48   LEU49   GLY50   THR51   GLY52   SER53   PHE54   GLY55   ARG56   VAL57  
 MET58   LEU59   TYR69   ALA70   MET71   LYS72   ILE73   LEU74   GLU91   LEU95  
 VAL104  LYS105  LEU106  MET118  VAL119  MET120  GLU121  TYR122  ALA123  PRO124 
 GLY125  GLY126  GLU127  MET128  PHE129  TYR164  ASP166  LYS168  PRO169  GLU170 
 ASN171  LEU172  MET173  ILE174  ASP175  LYS181  VAL182  THR183  ASP184  PHE185 
 GLY186  PHE187  THR201  PHE327  ASP328  TYR330 

> <Gold.Protein.RotatedAtoms>
   41.4820   10.0366   57.6459 H   0  0  0  0  0  0  0  0  0  0  0  0  # atno 1819 bound_to 1812
   27.2017   20.9378   52.1336 H   0  0  0  0  0  0  0  0  0  0  0  0  # atno 2506 bound_to 2497
   29.9901   27.9473   57.0372 H   0  0  0  0  0  0  0  0  0  0  0  0  # atno 2581 bound_to 2570
   28.6614   27.1149   57.5760 H   0  0  0  0  0  0  0  0  0  0  0  0  # atno 2582 bound_to 2570
   30.1833   26.5252   57.8676 H   0  0  0  0  0  0  0  0  0  0  0  0  # atno 2583 bound_to 2570
   31.1631   17.8858   54.9984 H   0  0  0  0  0  0  0  0  0  0  0  0  # atno 2826 bound_to 2819
   26.8879   28.8500   56.4036 H   0  0  0  0  0  0  0  0  0  0  0  0  # atno 3119 bound_to 3112
   39.0164   21.1663   61.1068 H   0  0  0  0  0  0  0  0  0  0  0  0  # atno 5145 bound_to 5136
   29.9039   18.5321   55.8018 LP  0  0  0  0  0  0  0  0  0  0  0  0  # atno 5479 bound_to 2819
   29.9761   18.6337   54.1735 LP  0  0  0  0  0  0  0  0  0  0  0  0  # atno 5480 bound_to 2819
   40.5863   21.5130   60.8562 LP  0  0  0  0  0  0  0  0  0  0  0  0  # atno 5483 bound_to 5136
   39.6318   22.5682   61.6575 LP  0  0  0  0  0  0  0  0  0  0  0  0  # atno 5484 bound_to 5136
   41.1173   11.3076   56.6970 LP  0  0  0  0  0  0  0  0  0  0  0  0  # atno 5511 bound_to 1812
   41.8086    9.9759   56.0526 LP  0  0  0  0  0  0  0  0  0  0  0  0  # atno 5512 bound_to 1812
   26.3184   20.4286   53.4018 LP  0  0  0  0  0  0  0  0  0  0  0  0  # atno 5533 bound_to 2497
   26.7445   22.0002   53.2782 LP  0  0  0  0  0  0  0  0  0  0  0  0  # atno 5534 bound_to 2497
   28.4317   28.8915   56.9158 LP  0  0  0  0  0  0  0  0  0  0  0  0  # atno 5545 bound_to 3112
   28.0758   28.3088   55.4324 LP  0  0  0  0  0  0  0  0  0  0  0  0  # atno 5546 bound_to 3112

> <Gold.Score>
     Fitness  S(hb_ext) S(vdw_ext)  S(hb_int)    S(int)      intcor
     36.80       2.69      26.05       0.00      -1.72      -0.76

> <Gold.Goldscore.Fitness>
36.7959

> <Gold.Goldscore.Internal.Vdw>
-2.1065

> <Gold.Goldscore.Internal.Torsion>
-0.3679

> <Gold.Goldscore.External.Vdw>
26.0529

> <Gold.Goldscore.Internal.HBond>
0.0000

> <Gold.Goldscore.External.HBond>
2.6915

> <Gold.Goldscore.Internal.Correction>
-0.7560

> <Gold.Goldscore.Hbonds>
donor molecule, donor type, donor heavy atom, donor atom, acceptor molecule, acceptor atom, score
      P1  H   936   949       L1    17  0.25
      L1  H     8    22       P1  2819  0.60

> <Gold.Goldscore.Internal.Vdw.Weighted>
-2.1065

> <Gold.Goldscore.Internal.Torsion.Weighted>
-0.3679

> <Gold.Goldscore.External.Vdw.Weighted>
35.8228

> <Gold.Goldscore.Internal.HBond.Weighted>
0.0000

> <Gold.Goldscore.External.HBond.Weighted>
2.6915

> <Gold.Goldscore.Internal.Correction.Weighted>
-0.7560

> <Gold.Rescore>
     Score     S(PLP)   S(hbond)     S(cho)   S(metal)  DE(clash)   DE(tors)     intcor
     25.42     -23.80       1.08       0.00       0.00       0.53       0.55       ----

> <Gold.PLP.Fitness>
25.4168

> <Gold.PLP.PLP>
-23.7986

> <Gold.PLP.part.hbond>
-3.8303

> <Gold.PLP.part.metal>
0.0000

> <Gold.PLP.part.buried>
13.7426

> <Gold.PLP.part.nonpolar>
-34.3340

> <Gold.PLP.part.repulsive>
0.5328

> <Gold.PLP.ligand.clash>
0.5266

> <Gold.PLP.ligand.torsion>
0.5549

> <Gold.PLP.Chemscore.Hbond>
1.0849

> <Gold.PLP.Chemscore.CHOScore>
0.0000

> <Gold.PLP.Chemscore.Metal>
0.0000

> <Gold.Chemscore.Hbonds>
donor molecule, donor type, donor heavy atom, donor atom, acceptor molecule, acceptor atom, score
      L1  H     8    22       P1  2819  0.86
      P1  H  2827  2835       L1    17  0.02

> <Gold.PLP.Chemscore.Internal.Correction>
   9.000000E+99

