#       Name:                CT1002167954
#       Creating user name   hitesit
#       Creation time:       Sun Apr 16 20:15:40 2023


#       File generated by GOLD software.
#

@<TRIPOS>MOLECULE
CT1002167954|ligand_prepared|mol2|1|dock2
    29    30     1
SMALL
NO_CHARGES


@<TRIPOS>ATOM
      1 C1          33.3944  18.4565  58.6002 C.3            1 RES1               0.0000
      2 C2          31.9992  18.6042  59.2410 C.ar           1 RES1               0.0000
      3 C3          33.3294  19.1832  57.2601 C.2            1 RES1               0.0000
      4 C4          34.3843  19.0622  59.5890 C.2            1 RES1               0.0000
      5 C5          33.8121  16.9897  58.3438 C.3            1 RES1               0.0000
      6 C6          31.5872  19.8244  59.7681 C.ar           1 RES1               0.0000
      7 C7          31.1138  17.5318  59.3098 C.ar           1 RES1               0.0000
      8 N8          33.9661  20.3852  57.1617 N.am           1 RES1               0.0000
      9 O9          32.6960  18.7273  56.3160 O.2            1 RES1               0.0000
     10 N10         35.0580  20.1941  59.2113 N.am           1 RES1               0.0000
     11 O11         34.5747  18.5790  60.6984 O.2            1 RES1               0.0000
     12 C12         35.2649  16.8304  57.9242 C.3            1 RES1               0.0000
     13 C13         30.3342  19.9683  60.3406 C.ar           1 RES1               0.0000
     14 C14         29.8614  17.6778  59.8830 C.ar           1 RES1               0.0000
     15 C15         34.8711  20.9005  58.0545 C.2            1 RES1               0.0000
     16 C16         29.4704  18.8954  60.3981 C.ar           1 RES1               0.0000
     17 O17         35.4761  21.9404  57.8099 O.2            1 RES1               0.0000
     18 H18         33.6432  16.4094  59.2593 H              1 RES1               0.0000
     19 H19         33.1700  16.5718  57.5587 H              1 RES1               0.0000
     20 H20         32.2542  20.6794  59.7342 H              1 RES1               0.0000
     21 H21         31.4004  16.5643  58.9119 H              1 RES1               0.0000
     22 H22         33.7491  20.9536  56.3491 H              1 RES1               0.0000
     23 H23         35.7644  20.5422  59.8517 H              1 RES1               0.0000
     24 H24         35.5054  15.7825  57.7572 H              1 RES1               0.0000
     25 H25         35.4622  17.3744  57.0028 H              1 RES1               0.0000
     26 H26         35.9327  17.2129  58.6933 H              1 RES1               0.0000
     27 H27         30.0319  20.9284  60.7458 H              1 RES1               0.0000
     28 H28         29.1850  16.8306  59.9266 H              1 RES1               0.0000
     29 H29         28.4888  19.0085  60.8463 H              1 RES1               0.0000
@<TRIPOS>BOND
    1    1    2 1     
    2    1    3 1     
    3    1    4 1     
    4    1    5 1     
    5    2    6 ar    
    6    2    7 ar    
    7    3    8 1     
    8    3    9 2     
    9    4   10 1     
   10    4   11 2     
   11    5   12 1     
   12    5   18 1     
   13    5   19 1     
   14    6   13 ar    
   15    6   20 1     
   16    7   14 ar    
   17    7   21 1     
   18    8   15 1     
   19    8   22 1     
   20   10   15 1     
   21   10   23 1     
   22   12   24 1     
   23   12   25 1     
   24   12   26 1     
   25   13   16 ar    
   26   13   27 1     
   27   14   16 ar    
   28   14   28 1     
   29   15   17 2     
   30   16   29 1     
@<TRIPOS>SUBSTRUCTURE
      1 RES1           1
@<TRIPOS>SET
DONOR_HYDROGENS      STATIC     ATOMS    <user>   **** ""
2 22 23
ATOM$RED        STATIC     ATOMS    COLORGROUP SYSTEM
2 22 23
@<TRIPOS>COMMENT
> <Gold.Version>
2022.3.0

> <Gold.Id.Protein>
unknown|3l9n_clean|pdb

> <Gold.Protein.RotatedTorsions>
[ 2826 2819 2817 2814 ] final  154.50 input   59.97 | X-H torsion
[ 5145 5136 5135 5133 ] final   97.08 input   59.99 | X-H torsion
[ 1819 1812 1811 1809 ] final -178.06 input   59.98 | X-H torsion
[ 2506 2497 2496 2494 ] final -171.20 input   59.98 | X-H torsion
[ 2581 2570 2569 2568 ] final  -63.52 input   60.01 | X-H torsion
[ 3119 3112 3110 3107 ] final -137.38 input   60.01 | X-H torsion

> <Gold.Protein.ActiveResidues>
 THR48   LEU49   GLY50   THR51   GLY52   SER53   PHE54   GLY55   ARG56   VAL57  
 MET58   LEU59   TYR69   ALA70   MET71   LYS72   ILE73   LEU74   GLU91   LEU95  
 VAL104  LYS105  LEU106  MET118  VAL119  MET120  GLU121  TYR122  ALA123  PRO124 
 GLY125  GLY126  GLU127  MET128  PHE129  TYR164  ASP166  LYS168  PRO169  GLU170 
 ASN171  LEU172  MET173  ILE174  ASP175  LYS181  VAL182  THR183  ASP184  PHE185 
 GLY186  PHE187  THR201  PHE327  ASP328  TYR330 

> <Gold.Protein.RotatedAtoms>
   41.8645    9.6772   56.4261 H   0  0  0  0  0  0  0  0  0  0  0  0  # atno 1819 bound_to 1812
   27.1150   21.9344   52.6410 H   0  0  0  0  0  0  0  0  0  0  0  0  # atno 2506 bound_to 2497
   30.5685   27.1767   57.4697 H   0  0  0  0  0  0  0  0  0  0  0  0  # atno 2581 bound_to 2570
   29.1374   27.9196   57.0843 H   0  0  0  0  0  0  0  0  0  0  0  0  # atno 2582 bound_to 2570
   29.1293   26.4914   57.9265 H   0  0  0  0  0  0  0  0  0  0  0  0  # atno 2583 bound_to 2570
   30.7466   18.0531   55.7858 H   0  0  0  0  0  0  0  0  0  0  0  0  # atno 2826 bound_to 2819
   28.7133   28.6607   56.4353 H   0  0  0  0  0  0  0  0  0  0  0  0  # atno 3119 bound_to 3112
   38.8359   21.5870   61.3721 H   0  0  0  0  0  0  0  0  0  0  0  0  # atno 5145 bound_to 5136
   29.5291   18.8132   55.0186 LP  0  0  0  0  0  0  0  0  0  0  0  0  # atno 5479 bound_to 2819
   30.7703   18.1842   54.1639 LP  0  0  0  0  0  0  0  0  0  0  0  0  # atno 5480 bound_to 2819
   40.2570   21.1108   60.7386 LP  0  0  0  0  0  0  0  0  0  0  0  0  # atno 5483 bound_to 5136
   40.1428   22.5467   61.5079 LP  0  0  0  0  0  0  0  0  0  0  0  0  # atno 5484 bound_to 5136
   41.2843   10.4686   57.7245 LP  0  0  0  0  0  0  0  0  0  0  0  0  # atno 5511 bound_to 1812
   41.2564   11.1769   56.2534 LP  0  0  0  0  0  0  0  0  0  0  0  0  # atno 5512 bound_to 1812
   26.8893   20.3367   52.4313 LP  0  0  0  0  0  0  0  0  0  0  0  0  # atno 5533 bound_to 2497
   26.2610   21.0884   53.7377 LP  0  0  0  0  0  0  0  0  0  0  0  0  # atno 5534 bound_to 2497
   27.4738   28.3712   55.4220 LP  0  0  0  0  0  0  0  0  0  0  0  0  # atno 5545 bound_to 3112
   27.1943   29.0198   56.8943 LP  0  0  0  0  0  0  0  0  0  0  0  0  # atno 5546 bound_to 3112

> <Gold.Score>
     Fitness  S(hb_ext) S(vdw_ext)  S(hb_int)    S(int)      intcor
     37.16       2.22      25.48       0.00      -0.09      -0.76

> <Gold.Goldscore.Fitness>
37.1623

> <Gold.Goldscore.Internal.Vdw>
-0.3455

> <Gold.Goldscore.Internal.Torsion>
-0.5018

> <Gold.Goldscore.External.Vdw>
25.4787

> <Gold.Goldscore.Internal.HBond>
0.0000

> <Gold.Goldscore.External.HBond>
2.2203

> <Gold.Goldscore.Internal.Correction>
-0.7560

> <Gold.Goldscore.Hbonds>
donor molecule, donor type, donor heavy atom, donor atom, acceptor molecule, acceptor atom, score
      P1  H  2819  2826       L1     9  0.11
      L1  H     8    22       P1  2601  1.00

> <Gold.Goldscore.Internal.Vdw.Weighted>
-0.3455

> <Gold.Goldscore.Internal.Torsion.Weighted>
-0.5018

> <Gold.Goldscore.External.Vdw.Weighted>
35.0332

> <Gold.Goldscore.Internal.HBond.Weighted>
0.0000

> <Gold.Goldscore.External.HBond.Weighted>
2.2203

> <Gold.Goldscore.Internal.Correction.Weighted>
-0.7560

> <Gold.Rescore>
     Score     S(PLP)   S(hbond)     S(cho)   S(metal)  DE(clash)   DE(tors)     intcor
     36.35     -32.22       1.60       0.00       0.00       0.00       0.34       ----

> <Gold.PLP.Fitness>
36.3523

> <Gold.PLP.PLP>
-32.2236

> <Gold.PLP.part.hbond>
-1.7687

> <Gold.PLP.part.metal>
0.0000

> <Gold.PLP.part.buried>
0.8162

> <Gold.PLP.part.nonpolar>
-32.2886

> <Gold.PLP.part.repulsive>
0.6072

> <Gold.PLP.ligand.clash>
0.0000

> <Gold.PLP.ligand.torsion>
0.3357

> <Gold.PLP.Chemscore.Hbond>
1.6000

> <Gold.PLP.Chemscore.CHOScore>
0.0000

> <Gold.PLP.Chemscore.Metal>
0.0000

> <Gold.Chemscore.Hbonds>
donor molecule, donor type, donor heavy atom, donor atom, acceptor molecule, acceptor atom, score
      L1  H     8    22       P1  2601  0.62
      P1  H  2819  2826       L1     9  0.67

> <Gold.PLP.Chemscore.Internal.Correction>
   9.000000E+99

