#       Name:                CT1002167954
#       Creating user name   hitesit
#       Creation time:       Sun Apr 16 20:15:42 2023


#       File generated by GOLD software.
#

@<TRIPOS>MOLECULE
CT1002167954|ligand_prepared|mol2|1|dock3
    29    30     1
SMALL
NO_CHARGES


@<TRIPOS>ATOM
      1 C1          31.1528  18.5841  58.8223 C.3            1 RES1               0.0000
      2 C2          32.6647  18.5061  59.1166 C.ar           1 RES1               0.0000
      3 C3          30.4930  19.0917  60.1011 C.2            1 RES1               0.0000
      4 C4          30.9982  19.5201  57.6287 C.2            1 RES1               0.0000
      5 C5          30.5180  17.2244  58.4485 C.3            1 RES1               0.0000
      6 C6          33.2698  19.4275  59.9661 C.ar           1 RES1               0.0000
      7 C7          33.4656  17.5186  58.5491 C.ar           1 RES1               0.0000
      8 N8          30.0455  20.3800  60.1128 N.am           1 RES1               0.0000
      9 O9          30.4024  18.3850  61.0974 O.2            1 RES1               0.0000
     10 N10         30.3500  20.7111  57.8264 N.am           1 RES1               0.0000
     11 O11         31.4465  19.2443  56.5227 O.2            1 RES1               0.0000
     12 C12         28.9990  17.2172  58.5175 C.3            1 RES1               0.0000
     13 C13         34.6257  19.3623  60.2408 C.ar           1 RES1               0.0000
     14 C14         34.8215  17.4553  58.8249 C.ar           1 RES1               0.0000
     15 C15         29.8937  21.1970  59.0214 C.2            1 RES1               0.0000
     16 C16         35.4023  18.3761  59.6708 C.ar           1 RES1               0.0000
     17 O17         29.3695  22.3019  59.1288 O.2            1 RES1               0.0000
     18 H18         30.8265  16.9588  57.4299 H              1 RES1               0.0000
     19 H19         30.9058  16.4550  59.1276 H              1 RES1               0.0000
     20 H20         32.6751  20.2121  60.4220 H              1 RES1               0.0000
     21 H21         33.0304  16.7842  57.8798 H              1 RES1               0.0000
     22 H22         29.8012  20.7721  61.0166 H              1 RES1               0.0000
     23 H23         30.1930  21.2890  57.0068 H              1 RES1               0.0000
     24 H24         28.6051  16.2400  58.2460 H              1 RES1               0.0000
     25 H25         28.6574  17.4527  59.5233 H              1 RES1               0.0000
     26 H26         28.5785  17.9535  57.8356 H              1 RES1               0.0000
     27 H27         35.0783  20.0901  60.9061 H              1 RES1               0.0000
     28 H28         35.4290  16.6778  58.3737 H              1 RES1               0.0000
     29 H29         36.4645  18.3250  59.8865 H              1 RES1               0.0000
@<TRIPOS>BOND
    1    1    2 1     
    2    1    3 1     
    3    1    4 1     
    4    1    5 1     
    5    2    6 ar    
    6    2    7 ar    
    7    3    8 1     
    8    3    9 2     
    9    4   10 1     
   10    4   11 2     
   11    5   12 1     
   12    5   18 1     
   13    5   19 1     
   14    6   13 ar    
   15    6   20 1     
   16    7   14 ar    
   17    7   21 1     
   18    8   15 1     
   19    8   22 1     
   20   10   15 1     
   21   10   23 1     
   22   12   24 1     
   23   12   25 1     
   24   12   26 1     
   25   13   16 ar    
   26   13   27 1     
   27   14   16 ar    
   28   14   28 1     
   29   15   17 2     
   30   16   29 1     
@<TRIPOS>SUBSTRUCTURE
      1 RES1           1
@<TRIPOS>SET
DONOR_HYDROGENS      STATIC     ATOMS    <user>   **** ""
2 22 23
ATOM$RED        STATIC     ATOMS    COLORGROUP SYSTEM
2 22 23
@<TRIPOS>COMMENT
> <Gold.Version>
2022.3.0

> <Gold.Id.Protein>
unknown|3l9n_clean|pdb

> <Gold.Protein.RotatedTorsions>
[ 2826 2819 2817 2814 ] final  -32.33 input   59.97 | X-H torsion
[ 5145 5136 5135 5133 ] final   43.57 input   59.99 | X-H torsion
[ 1819 1812 1811 1809 ] final  163.54 input   59.98 | X-H torsion
[ 2506 2497 2496 2494 ] final   58.73 input   59.98 | X-H torsion
[ 2581 2570 2569 2568 ] final   68.38 input   60.01 | X-H torsion
[ 3119 3112 3110 3107 ] final -121.56 input   60.01 | X-H torsion

> <Gold.Protein.ActiveResidues>
 THR48   LEU49   GLY50   THR51   GLY52   SER53   PHE54   GLY55   ARG56   VAL57  
 MET58   LEU59   TYR69   ALA70   MET71   LYS72   ILE73   LEU74   GLU91   LEU95  
 VAL104  LYS105  LEU106  MET118  VAL119  MET120  GLU121  TYR122  ALA123  PRO124 
 GLY125  GLY126  GLU127  MET128  PHE129  TYR164  ASP166  LYS168  PRO169  GLU170 
 ASN171  LEU172  MET173  ILE174  ASP175  LYS181  VAL182  THR183  ASP184  PHE185 
 GLY186  PHE187  THR201  PHE327  ASP328  TYR330 

> <Gold.Protein.RotatedAtoms>
   41.8493    9.5879   56.7115 H   0  0  0  0  0  0  0  0  0  0  0  0  # atno 1819 bound_to 1812
   26.7980   20.2693   52.5513 H   0  0  0  0  0  0  0  0  0  0  0  0  # atno 2506 bound_to 2497
   28.9762   27.8226   57.1482 H   0  0  0  0  0  0  0  0  0  0  0  0  # atno 2581 bound_to 2570
   29.3099   26.4177   57.9627 H   0  0  0  0  0  0  0  0  0  0  0  0  # atno 2582 bound_to 2570
   30.5490   27.3466   57.3702 H   0  0  0  0  0  0  0  0  0  0  0  0  # atno 2583 bound_to 2570
   30.0385   18.5983   54.1439 H   0  0  0  0  0  0  0  0  0  0  0  0  # atno 2826 bound_to 2819
   28.6349   28.7630   56.6583 H   0  0  0  0  0  0  0  0  0  0  0  0  # atno 3119 bound_to 3112
   39.2563   20.9902   60.9512 H   0  0  0  0  0  0  0  0  0  0  0  0  # atno 5145 bound_to 5136
   31.1636   17.8813   55.0759 LP  0  0  0  0  0  0  0  0  0  0  0  0  # atno 5479 bound_to 2819
   29.8488   18.5670   55.7599 LP  0  0  0  0  0  0  0  0  0  0  0  0  # atno 5480 bound_to 2819
   40.6586   21.8144   60.9916 LP  0  0  0  0  0  0  0  0  0  0  0  0  # atno 5483 bound_to 5136
   39.3179   22.4442   61.6788 LP  0  0  0  0  0  0  0  0  0  0  0  0  # atno 5484 bound_to 5136
   41.1822   10.7412   57.6461 LP  0  0  0  0  0  0  0  0  0  0  0  0  # atno 5511 bound_to 1812
   41.3739   10.9941   56.0443 LP  0  0  0  0  0  0  0  0  0  0  0  0  # atno 5512 bound_to 1812
   26.2919   21.2508   53.7464 LP  0  0  0  0  0  0  0  0  0  0  0  0  # atno 5533 bound_to 2497
   27.1776   21.8511   52.5129 LP  0  0  0  0  0  0  0  0  0  0  0  0  # atno 5534 bound_to 2497
   27.7261   28.3262   55.3814 LP  0  0  0  0  0  0  0  0  0  0  0  0  # atno 5545 bound_to 3112
   27.0210   28.9618   56.7101 LP  0  0  0  0  0  0  0  0  0  0  0  0  # atno 5546 bound_to 3112

> <Gold.Score>
     Fitness  S(hb_ext) S(vdw_ext)  S(hb_int)    S(int)      intcor
     36.14       0.87      26.11       0.00      -0.63      -0.76

> <Gold.Goldscore.Fitness>
36.1422

> <Gold.Goldscore.Internal.Vdw>
-0.6535

> <Gold.Goldscore.Internal.Torsion>
-0.7295

> <Gold.Goldscore.External.Vdw>
26.1106

> <Gold.Goldscore.Internal.HBond>
0.0000

> <Gold.Goldscore.External.HBond>
0.8671

> <Gold.Goldscore.Internal.Correction>
-0.7560

> <Gold.Goldscore.Hbonds>
donor molecule, donor type, donor heavy atom, donor atom, acceptor molecule, acceptor atom, score
      L1  H    10    23       P1  2620  0.43

> <Gold.Goldscore.Internal.Vdw.Weighted>
-0.6535

> <Gold.Goldscore.Internal.Torsion.Weighted>
-0.7295

> <Gold.Goldscore.External.Vdw.Weighted>
35.9021

> <Gold.Goldscore.Internal.HBond.Weighted>
0.0000

> <Gold.Goldscore.External.HBond.Weighted>
0.8671

> <Gold.Goldscore.Internal.Correction.Weighted>
-0.7560

> <Gold.Rescore>
     Score     S(PLP)   S(hbond)     S(cho)   S(metal)  DE(clash)   DE(tors)     intcor
     36.52     -35.86       1.00       0.00       0.00       0.01       1.16       ----

> <Gold.PLP.Fitness>
36.5250

> <Gold.PLP.PLP>
-35.8617

> <Gold.PLP.part.hbond>
-1.3433

> <Gold.PLP.part.metal>
0.0000

> <Gold.PLP.part.buried>
1.4120

> <Gold.PLP.part.nonpolar>
-35.3655

> <Gold.PLP.part.repulsive>
0.6956

> <Gold.PLP.ligand.clash>
0.0118

> <Gold.PLP.ligand.torsion>
1.1625

> <Gold.PLP.Chemscore.Hbond>
1.0000

> <Gold.PLP.Chemscore.CHOScore>
0.0000

> <Gold.PLP.Chemscore.Metal>
0.0000

> <Gold.Chemscore.Hbonds>
donor molecule, donor type, donor heavy atom, donor atom, acceptor molecule, acceptor atom, score
      L1  H    10    23       P1  2620  1.00

> <Gold.PLP.Chemscore.Internal.Correction>
   9.000000E+99

