#       Name:                CT1002167954
#       Creating user name   hitesit
#       Creation time:       Sun Apr 16 20:15:48 2023


#       File generated by GOLD software.
#

@<TRIPOS>MOLECULE
CT1002167954|ligand_prepared|mol2|1|dock9
    29    30     1
SMALL
NO_CHARGES


@<TRIPOS>ATOM
      1 C1          31.7578  18.8639  58.6483 C.3            1 RES1               0.0000
      2 C2          31.1711  17.4648  58.3709 C.ar           1 RES1               0.0000
      3 C3          32.4653  18.7720  59.9971 C.2            1 RES1               0.0000
      4 C4          32.6853  19.1769  57.4793 C.2            1 RES1               0.0000
      5 C5          30.6938  19.9833  58.7269 C.3            1 RES1               0.0000
      6 C6          31.9916  16.4234  57.9477 C.ar           1 RES1               0.0000
      7 C7          29.8141  17.2000  58.5359 C.ar           1 RES1               0.0000
      8 N8          33.8290  18.7535  59.9953 N.am           1 RES1               0.0000
      9 O9          31.8360  18.6774  61.0436 O.2            1 RES1               0.0000
     10 N10         34.0267  19.2888  57.7361 N.am           1 RES1               0.0000
     11 O11         32.2686  19.3113  56.3354 O.2            1 RES1               0.0000
     12 C12         31.2816  21.3830  58.8137 C.3            1 RES1               0.0000
     13 C13         31.4749  15.1622  57.7013 C.ar           1 RES1               0.0000
     14 C14         29.2995  15.9380  58.2887 C.ar           1 RES1               0.0000
     15 C15         34.6441  19.0609  58.9357 C.2            1 RES1               0.0000
     16 C16         30.1288  14.9185  57.8720 C.ar           1 RES1               0.0000
     17 O17         35.8619  19.1280  59.0756 O.2            1 RES1               0.0000
     18 H18         30.0526  19.9241  57.8388 H              1 RES1               0.0000
     19 H19         30.0633  19.8099  59.6078 H              1 RES1               0.0000
     20 H20         33.0530  16.5969  57.8055 H              1 RES1               0.0000
     21 H21         29.1427  17.9871  58.8618 H              1 RES1               0.0000
     22 H22         34.2848  18.4863  60.8620 H              1 RES1               0.0000
     23 H23         34.6199  19.5679  56.9611 H              1 RES1               0.0000
     24 H24         30.4925  22.1301  58.8668 H              1 RES1               0.0000
     25 H25         31.9051  21.4853  59.6995 H              1 RES1               0.0000
     26 H26         31.8945  21.5987  57.9410 H              1 RES1               0.0000
     27 H27         32.1316  14.3636  57.3723 H              1 RES1               0.0000
     28 H28         28.2393  15.7509  58.4238 H              1 RES1               0.0000
     29 H29         29.7243  13.9303  57.6793 H              1 RES1               0.0000
@<TRIPOS>BOND
    1    1    2 1     
    2    1    3 1     
    3    1    4 1     
    4    1    5 1     
    5    2    6 ar    
    6    2    7 ar    
    7    3    8 1     
    8    3    9 2     
    9    4   10 1     
   10    4   11 2     
   11    5   12 1     
   12    5   18 1     
   13    5   19 1     
   14    6   13 ar    
   15    6   20 1     
   16    7   14 ar    
   17    7   21 1     
   18    8   15 1     
   19    8   22 1     
   20   10   15 1     
   21   10   23 1     
   22   12   24 1     
   23   12   25 1     
   24   12   26 1     
   25   13   16 ar    
   26   13   27 1     
   27   14   16 ar    
   28   14   28 1     
   29   15   17 2     
   30   16   29 1     
@<TRIPOS>SUBSTRUCTURE
      1 RES1           1
@<TRIPOS>SET
DONOR_HYDROGENS      STATIC     ATOMS    <user>   **** ""
2 22 23
ATOM$RED        STATIC     ATOMS    COLORGROUP SYSTEM
2 22 23
@<TRIPOS>COMMENT
> <Gold.Version>
2022.3.0

> <Gold.Id.Protein>
unknown|3l9n_clean|pdb

> <Gold.Protein.RotatedTorsions>
[ 2826 2819 2817 2814 ] final -111.37 input   59.97 | X-H torsion
[ 5145 5136 5135 5133 ] final  175.32 input   59.99 | X-H torsion
[ 1819 1812 1811 1809 ] final  -24.15 input   59.98 | X-H torsion
[ 2506 2497 2496 2494 ] final -104.10 input   59.98 | X-H torsion
[ 2581 2570 2569 2568 ] final  128.24 input   60.01 | X-H torsion
[ 3119 3112 3110 3107 ] final  150.72 input   60.01 | X-H torsion

> <Gold.Protein.ActiveResidues>
 THR48   LEU49   GLY50   THR51   GLY52   SER53   PHE54   GLY55   ARG56   VAL57  
 MET58   LEU59   TYR69   ALA70   MET71   LYS72   ILE73   LEU74   GLU91   LEU95  
 VAL104  LYS105  LEU106  MET118  VAL119  MET120  GLU121  TYR122  ALA123  PRO124 
 GLY125  GLY126  GLU127  MET128  PHE129  TYR164  ASP166  LYS168  PRO169  GLU170 
 ASN171  LEU172  MET173  ILE174  ASP175  LYS181  VAL182  THR183  ASP184  PHE185 
 GLY186  PHE187  THR201  PHE327  ASP328  TYR330 

> <Gold.Protein.RotatedAtoms>
   41.1052   11.3011   56.7653 H   0  0  0  0  0  0  0  0  0  0  0  0  # atno 1819 bound_to 1812
   26.5629   21.8352   53.5105 H   0  0  0  0  0  0  0  0  0  0  0  0  # atno 2506 bound_to 2497
   28.6743   27.0466   57.6164 H   0  0  0  0  0  0  0  0  0  0  0  0  # atno 2581 bound_to 2570
   30.2456   26.5673   57.8399 H   0  0  0  0  0  0  0  0  0  0  0  0  # atno 2582 bound_to 2570
   29.9157   27.9730   57.0247 H   0  0  0  0  0  0  0  0  0  0  0  0  # atno 2583 bound_to 2570
   31.0300   18.0097   54.4451 H   0  0  0  0  0  0  0  0  0  0  0  0  # atno 2826 bound_to 2819
   28.2334   28.3241   55.5059 H   0  0  0  0  0  0  0  0  0  0  0  0  # atno 3119 bound_to 3112
   39.4947   22.5202   61.6735 H   0  0  0  0  0  0  0  0  0  0  0  0  # atno 5145 bound_to 5136
   30.3976   18.2412   55.9266 LP  0  0  0  0  0  0  0  0  0  0  0  0  # atno 5479 bound_to 2819
   29.6164   18.7998   54.6059 LP  0  0  0  0  0  0  0  0  0  0  0  0  # atno 5480 bound_to 2819
   39.1047   21.0762   61.0330 LP  0  0  0  0  0  0  0  0  0  0  0  0  # atno 5483 bound_to 5136
   40.6317   21.6417   60.9100 LP  0  0  0  0  0  0  0  0  0  0  0  0  # atno 5484 bound_to 5136
   41.7921   10.0312   56.0140 LP  0  0  0  0  0  0  0  0  0  0  0  0  # atno 5511 bound_to 1812
   41.5133    9.9790   57.6222 LP  0  0  0  0  0  0  0  0  0  0  0  0  # atno 5512 bound_to 1812
   27.2650   21.2689   52.1562 LP  0  0  0  0  0  0  0  0  0  0  0  0  # atno 5533 bound_to 2497
   26.4412   20.2561   53.1372 LP  0  0  0  0  0  0  0  0  0  0  0  0  # atno 5534 bound_to 2497
   26.8587   28.7845   56.2445 LP  0  0  0  0  0  0  0  0  0  0  0  0  # atno 5545 bound_to 3112
   28.2930   28.9458   57.0083 LP  0  0  0  0  0  0  0  0  0  0  0  0  # atno 5546 bound_to 3112

> <Gold.Score>
     Fitness  S(hb_ext) S(vdw_ext)  S(hb_int)    S(int)      intcor
     33.91       0.00      24.69       0.00      -0.05      -0.76

> <Gold.Goldscore.Fitness>
33.9090

> <Gold.Goldscore.Internal.Vdw>
-0.3417

> <Gold.Goldscore.Internal.Torsion>
-0.4605

> <Gold.Goldscore.External.Vdw>
24.6947

> <Gold.Goldscore.Internal.HBond>
0.0000

> <Gold.Goldscore.External.HBond>
0.0000

> <Gold.Goldscore.Internal.Correction>
-0.7560

> <Gold.Goldscore.Internal.Vdw.Weighted>
-0.3417

> <Gold.Goldscore.Internal.Torsion.Weighted>
-0.4605

> <Gold.Goldscore.External.Vdw.Weighted>
33.9552

> <Gold.Goldscore.Internal.HBond.Weighted>
0.0000

> <Gold.Goldscore.External.HBond.Weighted>
0.0000

> <Gold.Goldscore.Internal.Correction.Weighted>
-0.7560

> <Gold.Rescore>
     Score     S(PLP)   S(hbond)     S(cho)   S(metal)  DE(clash)   DE(tors)     intcor
     30.72     -28.48       0.82       0.00       0.00       0.00       0.11       ----

> <Gold.PLP.Fitness>
30.7191

> <Gold.PLP.PLP>
-28.4838

> <Gold.PLP.part.hbond>
-1.6985

> <Gold.PLP.part.metal>
0.0000

> <Gold.PLP.part.buried>
1.7834

> <Gold.PLP.part.nonpolar>
-32.4134

> <Gold.PLP.part.repulsive>
3.7111

> <Gold.PLP.ligand.clash>
0.0000

> <Gold.PLP.ligand.torsion>
0.1063

> <Gold.PLP.Chemscore.Hbond>
0.8160

> <Gold.PLP.Chemscore.CHOScore>
0.0000

> <Gold.PLP.Chemscore.Metal>
0.0000

> <Gold.PLP.Chemscore.Internal.Correction>
   9.000000E+99

