#       Name:                CT1002167954
#       Creating user name   hitesit
#       Creation time:       Sun Apr 16 20:15:38 2023


#       File generated by GOLD software.
#

@<TRIPOS>MOLECULE
CT1002167954|ligand_prepared|mol2|1|dock1
    29    30     1
SMALL
NO_CHARGES


@<TRIPOS>ATOM
      1 C1          33.9248  17.8544  58.7977 C.3            1 RES1               0.0000
      2 C2          32.4606  17.3827  58.9093 C.ar           1 RES1               0.0000
      3 C3          33.9860  18.7781  57.5848 C.2            1 RES1               0.0000
      4 C4          34.2540  18.5400  60.1191 C.2            1 RES1               0.0000
      5 C5          34.9376  16.7042  58.5908 C.3            1 RES1               0.0000
      6 C6          31.5219  18.1431  59.6002 C.ar           1 RES1               0.0000
      7 C7          32.0338  16.1929  58.3256 C.ar           1 RES1               0.0000
      8 N8          34.1006  20.1173  57.8156 N.am           1 RES1               0.0000
      9 O9          33.8952  18.3417  56.4439 O.2            1 RES1               0.0000
     10 N10         34.5120  19.8856  60.0975 N.am           1 RES1               0.0000
     11 O11         34.2761  17.9303  61.1812 O.2            1 RES1               0.0000
     12 C12         36.3878  17.1243  58.7720 C.3            1 RES1               0.0000
     13 C13         30.2036  17.7306  59.7014 C.ar           1 RES1               0.0000
     14 C14         30.7149  15.7821  58.4281 C.ar           1 RES1               0.0000
     15 C15         34.4201  20.7112  59.0102 C.2            1 RES1               0.0000
     16 C16         29.7991  16.5503  59.1151 C.ar           1 RES1               0.0000
     17 O17         34.6142  21.9213  59.0808 O.2            1 RES1               0.0000
     18 H18         34.7109  15.9016  59.3033 H              1 RES1               0.0000
     19 H19         34.8110  16.3000  57.5788 H              1 RES1               0.0000
     20 H20         31.8222  19.0737  60.0702 H              1 RES1               0.0000
     21 H21         32.7371  15.5720  57.7811 H              1 RES1               0.0000
     22 H22         33.9333  20.7343  57.0272 H              1 RES1               0.0000
     23 H23         34.7993  20.3113  60.9730 H              1 RES1               0.0000
     24 H24         37.0562  16.2802  58.6157 H              1 RES1               0.0000
     25 H25         36.6551  17.9042  58.0619 H              1 RES1               0.0000
     26 H26         36.5555  17.5082  59.7761 H              1 RES1               0.0000
     27 H27         29.4870  18.3381  60.2443 H              1 RES1               0.0000
     28 H28         30.4012  14.8521  57.9656 H              1 RES1               0.0000
     29 H29         28.7663  16.2275  59.1941 H              1 RES1               0.0000
@<TRIPOS>BOND
    1    1    2 1     
    2    1    3 1     
    3    1    4 1     
    4    1    5 1     
    5    2    6 ar    
    6    2    7 ar    
    7    3    8 1     
    8    3    9 2     
    9    4   10 1     
   10    4   11 2     
   11    5   12 1     
   12    5   18 1     
   13    5   19 1     
   14    6   13 ar    
   15    6   20 1     
   16    7   14 ar    
   17    7   21 1     
   18    8   15 1     
   19    8   22 1     
   20   10   15 1     
   21   10   23 1     
   22   12   24 1     
   23   12   25 1     
   24   12   26 1     
   25   13   16 ar    
   26   13   27 1     
   27   14   16 ar    
   28   14   28 1     
   29   15   17 2     
   30   16   29 1     
@<TRIPOS>SUBSTRUCTURE
      1 RES1           1
@<TRIPOS>SET
DONOR_HYDROGENS      STATIC     ATOMS    <user>   **** ""
2 22 23
ATOM$RED        STATIC     ATOMS    COLORGROUP SYSTEM
2 22 23
@<TRIPOS>COMMENT
> <Gold.Version>
2022.3.0

> <Gold.Id.Protein>
unknown|3l9n_clean|pdb

> <Gold.Protein.RotatedTorsions>
[ 2826 2819 2817 2814 ] final  136.84 input   59.97 | X-H torsion
[ 5145 5136 5135 5133 ] final  -88.41 input   59.99 | X-H torsion
[ 1819 1812 1811 1809 ] final  117.26 input   59.98 | X-H torsion
[ 2506 2497 2496 2494 ] final -151.56 input   59.98 | X-H torsion
[ 2581 2570 2569 2568 ] final -174.37 input   60.01 | X-H torsion
[ 3119 3112 3110 3107 ] final  -75.26 input   60.01 | X-H torsion

> <Gold.Protein.ActiveResidues>
 THR48   LEU49   GLY50   THR51   GLY52   SER53   PHE54   GLY55   ARG56   VAL57  
 MET58   LEU59   TYR69   ALA70   MET71   LYS72   ILE73   LEU74   GLU91   LEU95  
 VAL104  LYS105  LEU106  MET118  VAL119  MET120  GLU121  TYR122  ALA123  PRO124 
 GLY125  GLY126  GLU127  MET128  PHE129  TYR164  ASP166  LYS168  PRO169  GLU170 
 ASN171  LEU172  MET173  ILE174  ASP175  LYS181  VAL182  THR183  ASP184  PHE185 
 GLY186  PHE187  THR201  PHE327  ASP328  TYR330 

> <Gold.Protein.RotatedAtoms>
   41.6522    9.7458   57.4027 H   0  0  0  0  0  0  0  0  0  0  0  0  # atno 1819 bound_to 1812
   26.9729   22.0320   52.9097 H   0  0  0  0  0  0  0  0  0  0  0  0  # atno 2506 bound_to 2497
   29.2672   26.4320   57.9565 H   0  0  0  0  0  0  0  0  0  0  0  0  # atno 2581 bound_to 2570
   30.5572   27.3074   57.3924 H   0  0  0  0  0  0  0  0  0  0  0  0  # atno 2582 bound_to 2570
   29.0115   27.8477   57.1319 H   0  0  0  0  0  0  0  0  0  0  0  0  # atno 2583 bound_to 2570
   30.5120   18.1764   55.8970 H   0  0  0  0  0  0  0  0  0  0  0  0  # atno 2826 bound_to 2819
   28.0836   29.0022   57.0827 H   0  0  0  0  0  0  0  0  0  0  0  0  # atno 3119 bound_to 3112
   40.6409   21.9847   61.0875 H   0  0  0  0  0  0  0  0  0  0  0  0  # atno 5145 bound_to 5136
   29.5713   18.8143   54.7323 LP  0  0  0  0  0  0  0  0  0  0  0  0  # atno 5479 bound_to 2819
   30.9643   18.0589   54.3382 LP  0  0  0  0  0  0  0  0  0  0  0  0  # atno 5480 bound_to 2819
   39.1586   22.3298   61.6631 LP  0  0  0  0  0  0  0  0  0  0  0  0  # atno 5483 bound_to 5136
   39.4236   20.9272   60.8700 LP  0  0  0  0  0  0  0  0  0  0  0  0  # atno 5484 bound_to 5136
   41.0709   11.2368   57.1067 LP  0  0  0  0  0  0  0  0  0  0  0  0  # atno 5511 bound_to 1812
   41.6837   10.3395   55.8877 LP  0  0  0  0  0  0  0  0  0  0  0  0  # atno 5512 bound_to 1812
   27.0482   20.5475   52.2478 LP  0  0  0  0  0  0  0  0  0  0  0  0  # atno 5533 bound_to 2497
   26.2451   20.7794   53.6506 LP  0  0  0  0  0  0  0  0  0  0  0  0  # atno 5534 bound_to 2497
   28.4239   28.3531   55.6301 LP  0  0  0  0  0  0  0  0  0  0  0  0  # atno 5545 bound_to 3112
   26.8787   28.6939   56.0337 LP  0  0  0  0  0  0  0  0  0  0  0  0  # atno 5546 bound_to 3112

> <Gold.Score>
     Fitness  S(hb_ext) S(vdw_ext)  S(hb_int)    S(int)      intcor
     37.58       2.00      26.08       0.00      -0.28      -0.76

> <Gold.Goldscore.Fitness>
37.5782

> <Gold.Goldscore.Internal.Vdw>
-0.4457

> <Gold.Goldscore.Internal.Torsion>
-0.5945

> <Gold.Goldscore.External.Vdw>
26.0803

> <Gold.Goldscore.Internal.HBond>
0.0000

> <Gold.Goldscore.External.HBond>
1.9995

> <Gold.Goldscore.Internal.Correction>
-0.7585

> <Gold.Goldscore.Hbonds>
donor molecule, donor type, donor heavy atom, donor atom, acceptor molecule, acceptor atom, score
      L1  H     8    22       P1  2601  1.00

> <Gold.Goldscore.Internal.Vdw.Weighted>
-0.4457

> <Gold.Goldscore.Internal.Torsion.Weighted>
-0.5945

> <Gold.Goldscore.External.Vdw.Weighted>
35.8604

> <Gold.Goldscore.Internal.HBond.Weighted>
0.0000

> <Gold.Goldscore.External.HBond.Weighted>
1.9995

> <Gold.Goldscore.Internal.Correction.Weighted>
-0.7585

> <Gold.Rescore>
     Score     S(PLP)   S(hbond)     S(cho)   S(metal)  DE(clash)   DE(tors)     intcor
     34.90     -32.64       1.25       0.00       0.00       0.00       0.74       ----

> <Gold.PLP.Fitness>
34.9035

> <Gold.PLP.PLP>
-32.6394

> <Gold.PLP.part.hbond>
-1.8167

> <Gold.PLP.part.metal>
0.0000

> <Gold.PLP.part.buried>
0.6634

> <Gold.PLP.part.nonpolar>
-32.5551

> <Gold.PLP.part.repulsive>
0.4169

> <Gold.PLP.ligand.clash>
0.0000

> <Gold.PLP.ligand.torsion>
0.7428

> <Gold.PLP.Chemscore.Hbond>
1.2499

> <Gold.PLP.Chemscore.CHOScore>
0.0000

> <Gold.PLP.Chemscore.Metal>
0.0000

> <Gold.Chemscore.Hbonds>
donor molecule, donor type, donor heavy atom, donor atom, acceptor molecule, acceptor atom, score
      L1  H     8    22       P1  2601  0.83

> <Gold.PLP.Chemscore.Internal.Correction>
   9.000000E+99

