#       Name:                CT1002167954
#       Creating user name   hitesit
#       Creation time:       Sun Apr 16 20:15:47 2023


#       File generated by GOLD software.
#

@<TRIPOS>MOLECULE
CT1002167954|ligand_prepared|mol2|1|dock8
    29    30     1
SMALL
NO_CHARGES


@<TRIPOS>ATOM
      1 C1          32.4001  18.6339  58.5758 C.3            1 RES1               0.0000
      2 C2          31.6605  17.3136  58.2782 C.ar           1 RES1               0.0000
      3 C3          31.9936  19.6100  57.4757 C.2            1 RES1               0.0000
      4 C4          31.9686  19.0586  59.9751 C.2            1 RES1               0.0000
      5 C5          33.9409  18.5018  58.5704 C.3            1 RES1               0.0000
      6 C6          30.2900  17.2049  58.4944 C.ar           1 RES1               0.0000
      7 C7          32.3334  16.1986  57.7857 C.ar           1 RES1               0.0000
      8 N8          31.1250  20.6082  57.8060 N.am           1 RES1               0.0000
      9 O9          32.3980  19.4823  56.3266 O.2            1 RES1               0.0000
     10 N10         31.2358  20.2098  60.0993 N.am           1 RES1               0.0000
     11 O11         32.2424  18.3980  60.9695 O.2            1 RES1               0.0000
     12 C12         34.6647  19.7458  59.0613 C.3            1 RES1               0.0000
     13 C13         29.6160  16.0253  58.2251 C.ar           1 RES1               0.0000
     14 C14         31.6575  15.0198  57.5173 C.ar           1 RES1               0.0000
     15 C15         30.7682  20.9875  59.0751 C.2            1 RES1               0.0000
     16 C16         30.2991  14.9322  57.7360 C.ar           1 RES1               0.0000
     17 O17         30.0687  21.9785  59.2639 O.2            1 RES1               0.0000
     18 H18         34.2248  17.6541  59.2062 H              1 RES1               0.0000
     19 H19         34.2728  18.2804  57.5485 H              1 RES1               0.0000
     20 H20         29.7361  18.0538  58.8811 H              1 RES1               0.0000
     21 H21         33.4023  16.2442  57.6070 H              1 RES1               0.0000
     22 H22         30.7016  21.1200  57.0385 H              1 RES1               0.0000
     23 H23         31.0188  20.5155  61.0426 H              1 RES1               0.0000
     24 H24         35.7425  19.5996  59.0372 H              1 RES1               0.0000
     25 H25         34.4249  20.6034  58.4361 H              1 RES1               0.0000
     26 H26         34.3773  19.9809  60.0840 H              1 RES1               0.0000
     27 H27         28.5472  15.9610  58.4002 H              1 RES1               0.0000
     28 H28         32.1992  14.1618  57.1331 H              1 RES1               0.0000
     29 H29         29.7708  14.0083  57.5247 H              1 RES1               0.0000
@<TRIPOS>BOND
    1    1    2 1     
    2    1    3 1     
    3    1    4 1     
    4    1    5 1     
    5    2    6 ar    
    6    2    7 ar    
    7    3    8 1     
    8    3    9 2     
    9    4   10 1     
   10    4   11 2     
   11    5   12 1     
   12    5   18 1     
   13    5   19 1     
   14    6   13 ar    
   15    6   20 1     
   16    7   14 ar    
   17    7   21 1     
   18    8   15 1     
   19    8   22 1     
   20   10   15 1     
   21   10   23 1     
   22   12   24 1     
   23   12   25 1     
   24   12   26 1     
   25   13   16 ar    
   26   13   27 1     
   27   14   16 ar    
   28   14   28 1     
   29   15   17 2     
   30   16   29 1     
@<TRIPOS>SUBSTRUCTURE
      1 RES1           1
@<TRIPOS>SET
DONOR_HYDROGENS      STATIC     ATOMS    <user>   **** ""
2 22 23
ATOM$RED        STATIC     ATOMS    COLORGROUP SYSTEM
2 22 23
@<TRIPOS>COMMENT
> <Gold.Version>
2022.3.0

> <Gold.Id.Protein>
unknown|3l9n_clean|pdb

> <Gold.Protein.RotatedTorsions>
[ 2826 2819 2817 2814 ] final  131.30 input   59.97 | X-H torsion
[ 5145 5136 5135 5133 ] final   -6.10 input   59.99 | X-H torsion
[ 1819 1812 1811 1809 ] final -165.17 input   59.98 | X-H torsion
[ 2506 2497 2496 2494 ] final -141.53 input   59.98 | X-H torsion
[ 2581 2570 2569 2568 ] final   60.93 input   60.01 | X-H torsion
[ 3119 3112 3110 3107 ] final  118.94 input   60.01 | X-H torsion

> <Gold.Protein.ActiveResidues>
 THR48   LEU49   GLY50   THR51   GLY52   SER53   PHE54   GLY55   ARG56   VAL57  
 MET58   LEU59   TYR69   ALA70   MET71   LYS72   ILE73   LEU74   GLU91   LEU95  
 VAL104  LYS105  LEU106  MET118  VAL119  MET120  GLU121  TYR122  ALA123  PRO124 
 GLY125  GLY126  GLU127  MET128  PHE129  TYR164  ASP166  LYS168  PRO169  GLU170 
 ASN171  LEU172  MET173  ILE174  ASP175  LYS181  VAL182  THR183  ASP184  PHE185 
 GLY186  PHE187  THR201  PHE327  ASP328  TYR330 

> <Gold.Protein.RotatedAtoms>
   41.8509    9.7869   56.2473 H   0  0  0  0  0  0  0  0  0  0  0  0  # atno 1819 bound_to 1812
   26.8894   22.0413   53.0503 H   0  0  0  0  0  0  0  0  0  0  0  0  # atno 2506 bound_to 2497
   29.0742   27.8868   57.1067 H   0  0  0  0  0  0  0  0  0  0  0  0  # atno 2581 bound_to 2570
   29.1948   26.4599   57.9421 H   0  0  0  0  0  0  0  0  0  0  0  0  # atno 2582 bound_to 2570
   30.5660   27.2402   57.4322 H   0  0  0  0  0  0  0  0  0  0  0  0  # atno 2583 bound_to 2570
   30.4341   18.2190   55.9146 H   0  0  0  0  0  0  0  0  0  0  0  0  # atno 2826 bound_to 2819
   27.7350   28.3296   55.3870 H   0  0  0  0  0  0  0  0  0  0  0  0  # atno 3119 bound_to 3112
   40.0142   20.9819   60.7416 H   0  0  0  0  0  0  0  0  0  0  0  0  # atno 5145 bound_to 5136
   29.6000   18.8056   54.6463 LP  0  0  0  0  0  0  0  0  0  0  0  0  # atno 5479 bound_to 2819
   31.0140   18.0248   54.4065 LP  0  0  0  0  0  0  0  0  0  0  0  0  # atno 5480 bound_to 2819
   40.3645   22.4328   61.3893 LP  0  0  0  0  0  0  0  0  0  0  0  0  # atno 5483 bound_to 5136
   38.8488   21.8340   61.4921 LP  0  0  0  0  0  0  0  0  0  0  0  0  # atno 5484 bound_to 5136
   41.3679   10.2741   57.7232 LP  0  0  0  0  0  0  0  0  0  0  0  0  # atno 5511 bound_to 1812
   41.1865   11.2608   56.4347 LP  0  0  0  0  0  0  0  0  0  0  0  0  # atno 5512 bound_to 1812
   27.1173   20.6829   52.1839 LP  0  0  0  0  0  0  0  0  0  0  0  0  # atno 5533 bound_to 2497
   26.2601   20.6347   53.5729 LP  0  0  0  0  0  0  0  0  0  0  0  0  # atno 5534 bound_to 2497
   27.0165   28.9596   56.7038 LP  0  0  0  0  0  0  0  0  0  0  0  0  # atno 5545 bound_to 3112
   28.6375   28.7651   56.6688 LP  0  0  0  0  0  0  0  0  0  0  0  0  # atno 5546 bound_to 3112

> <Gold.Score>
     Fitness  S(hb_ext) S(vdw_ext)  S(hb_int)    S(int)      intcor
     35.07       1.44      24.49       0.00      -0.05      -0.76

> <Gold.Goldscore.Fitness>
35.0675

> <Gold.Goldscore.Internal.Vdw>
-0.3244

> <Gold.Goldscore.Internal.Torsion>
-0.4787

> <Gold.Goldscore.External.Vdw>
24.4929

> <Gold.Goldscore.Internal.HBond>
0.0000

> <Gold.Goldscore.External.HBond>
1.4368

> <Gold.Goldscore.Internal.Correction>
-0.7560

> <Gold.Goldscore.Hbonds>
donor molecule, donor type, donor heavy atom, donor atom, acceptor molecule, acceptor atom, score
      L1  H     8    22       P1  2620  0.72

> <Gold.Goldscore.Internal.Vdw.Weighted>
-0.3244

> <Gold.Goldscore.Internal.Torsion.Weighted>
-0.4787

> <Gold.Goldscore.External.Vdw.Weighted>
33.6778

> <Gold.Goldscore.Internal.HBond.Weighted>
0.0000

> <Gold.Goldscore.External.HBond.Weighted>
1.4368

> <Gold.Goldscore.Internal.Correction.Weighted>
-0.7560

> <Gold.Rescore>
     Score     S(PLP)   S(hbond)     S(cho)   S(metal)  DE(clash)   DE(tors)     intcor
     34.05     -30.24       1.32       0.00       0.00       0.00       0.07       ----

> <Gold.PLP.Fitness>
34.0467

> <Gold.PLP.PLP>
-30.2414

> <Gold.PLP.part.hbond>
-0.9477

> <Gold.PLP.part.metal>
0.0000

> <Gold.PLP.part.buried>
0.4824

> <Gold.PLP.part.nonpolar>
-31.7779

> <Gold.PLP.part.repulsive>
1.3924

> <Gold.PLP.ligand.clash>
0.0000

> <Gold.PLP.ligand.torsion>
0.0731

> <Gold.PLP.Chemscore.Hbond>
1.3172

> <Gold.PLP.Chemscore.CHOScore>
0.0000

> <Gold.PLP.Chemscore.Metal>
0.0000

> <Gold.Chemscore.Hbonds>
donor molecule, donor type, donor heavy atom, donor atom, acceptor molecule, acceptor atom, score
      L1  H     8    22       P1  2620  1.00
      P1  H  2819  2826       L1     9  0.04

> <Gold.PLP.Chemscore.Internal.Correction>
   9.000000E+99

