#       Name:                CT1002167954
#       Creating user name   hitesit
#       Creation time:       Sun Apr 16 20:17:44 2023


#       File generated by GOLD software.
#

@<TRIPOS>MOLECULE
CT1002167954|ligand_prepared|mol2|1|dock10
    29    30     1
SMALL
NO_CHARGES


@<TRIPOS>ATOM
      1 C1         116.7373 260.0986 351.9061 C.3            1 RES1               0.0000
      2 C2         116.6156 259.6290 350.4420 C.ar           1 RES1               0.0000
      3 C3         117.6766 259.1132 352.5954 C.2            1 RES1               0.0000
      4 C4         117.2651 261.5280 351.8531 C.2            1 RES1               0.0000
      5 C5         115.3935 260.1135 352.6713 C.3            1 RES1               0.0000
      6 C6         115.6650 260.1902 349.5946 C.ar           1 RES1               0.0000
      7 C7         117.4470 258.6392 349.9247 C.ar           1 RES1               0.0000
      8 N8         118.9399 259.5395 352.8820 N.am           1 RES1               0.0000
      9 O9         117.3268 257.9668 352.8478 O.2            1 RES1               0.0000
     10 N10        118.5130 261.7711 352.3645 N.am           1 RES1               0.0000
     11 O11        116.6184 262.4429 351.3581 O.2            1 RES1               0.0000
     12 C12        115.5163 260.5675 354.1173 C.3            1 RES1               0.0000
     13 C13        115.5516 259.7790 348.2769 C.ar           1 RES1               0.0000
     14 C14        117.3318 258.2293 348.6067 C.ar           1 RES1               0.0000
     15 C15        119.3867 260.8360 352.8487 C.2            1 RES1               0.0000
     16 C16        116.3851 258.7987 347.7819 C.ar           1 RES1               0.0000
     17 O17        120.5136 261.1250 353.2410 O.2            1 RES1               0.0000
     18 H18        114.6974 260.7816 352.1493 H              1 RES1               0.0000
     19 H19        114.9658 259.1034 352.6535 H              1 RES1               0.0000
     20 H20        114.9987 260.9611 349.9670 H              1 RES1               0.0000
     21 H21        118.1983 258.1764 350.5555 H              1 RES1               0.0000
     22 H22        119.6148 258.8286 353.1455 H              1 RES1               0.0000
     23 H23        118.8187 262.7387 352.3864 H              1 RES1               0.0000
     24 H24        114.5453 260.5595 354.6079 H              1 RES1               0.0000
     25 H25        116.1820 259.9101 354.6728 H              1 RES1               0.0000
     26 H26        115.9152 261.5783 354.1716 H              1 RES1               0.0000
     27 H27        114.8040 260.2293 347.6323 H              1 RES1               0.0000
     28 H28        117.9895 257.4570 348.2215 H              1 RES1               0.0000
     29 H29        116.2963 258.4771 346.7495 H              1 RES1               0.0000
@<TRIPOS>BOND
    1    1    2 1     
    2    1    3 1     
    3    1    4 1     
    4    1    5 1     
    5    2    6 ar    
    6    2    7 ar    
    7    3    8 1     
    8    3    9 2     
    9    4   10 1     
   10    4   11 2     
   11    5   12 1     
   12    5   18 1     
   13    5   19 1     
   14    6   13 ar    
   15    6   20 1     
   16    7   14 ar    
   17    7   21 1     
   18    8   15 1     
   19    8   22 1     
   20   10   15 1     
   21   10   23 1     
   22   12   24 1     
   23   12   25 1     
   24   12   26 1     
   25   13   16 ar    
   26   13   27 1     
   27   14   16 ar    
   28   14   28 1     
   29   15   17 2     
   30   16   29 1     
@<TRIPOS>SUBSTRUCTURE
      1 RES1           1
@<TRIPOS>SET
DONOR_HYDROGENS      STATIC     ATOMS    <user>   **** ""
2 22 23
ATOM$RED        STATIC     ATOMS    COLORGROUP SYSTEM
2 22 23
@<TRIPOS>COMMENT
> <Gold.Version>
2022.3.0

> <Gold.Id.Protein>
unknown|5adg_clean|pdb

> <Gold.Protein.RotatedTorsions>
[ 1107 1100 1101 1102 ] final  -21.04 input   86.23 | X-H torsion
[ 1140 1124 1125 1126 ] final  -91.83 input   63.27 | X-H torsion
[ 1158 1154 1155 1156 ] final -150.27 input  128.69 | X-H torsion
[ 1176 1170 1171 1172 ] final   66.67 input   75.71 | X-H torsion
[ 1180 1175 1174 1171 ] final   15.57 input   60.03 | X-H torsion
[ 1202 1194 1195 1196 ] final   62.29 input   99.83 | X-H torsion
[ 1240 1232 1233 1234 ] final  105.99 input  109.94 | X-H torsion
[ 13440 13433 13432 13430 ] final  -62.95 input   60.02 | X-H torsion
[ 11619 11589 11588 11586 ] final   58.00 input   59.96 | X-H torsion
[ 11922 11915 11916 11917 ] final    8.36 input  122.96 | X-H torsion
[ 13465 1067 1066 1065 ] final  137.39 input   -0.00 | X-H torsion
[ 13468 1103 1102 1101 ] final    1.68 input   -0.00 | X-H torsion
[ 13471 1127 1126 1125 ] final  -68.00 input   -0.00 | X-H torsion
[ 13476 1157 1156 1155 ] final  -34.21 input    0.00 | X-H torsion
[ 13479 1173 1172 1171 ] final   74.13 input    0.00 | X-H torsion
[ 13484 1197 1196 1195 ] final   69.71 input   -0.00 | X-H torsion

> <Gold.Protein.ActiveResidues>
 VAL308  THR329  CYS331  ILE335  CYS336  MET337  GLY338  SER339  ILE340  MET341 
 PRO343  SER418  ARG419  ARG423  PHE663  TYR671  CYS677  PRO678  ALA679  ASP680 
 TRP681  VAL682  TRP683  ILE684  VAL685  VAL695  GLN698  GLU699  MET700  LEU701 
 ASN702  TYR703  H4B760 

> <Gold.Protein.RotatedAtoms>
  109.2047  261.0506  344.4208 H   0  0  0  0  0  0  0  0  0  0  0  0  # atno 1107 bound_to 1100
  110.4702  259.1232  342.4436 H   0  0  0  0  0  0  0  0  0  0  0  0  # atno 1140 bound_to 1124
  111.7178  258.2990  340.3172 H   0  0  0  0  0  0  0  0  0  0  0  0  # atno 1158 bound_to 1154
  110.6573  255.0589  340.7276 H   0  0  0  0  0  0  0  0  0  0  0  0  # atno 1176 bound_to 1170
  108.9792  253.2813  341.3135 H   0  0  0  0  0  0  0  0  0  0  0  0  # atno 1180 bound_to 1175
  109.7785  254.9297  338.3214 H   0  0  0  0  0  0  0  0  0  0  0  0  # atno 1202 bound_to 1194
  106.7879  252.7337  335.7611 H   0  0  0  0  0  0  0  0  0  0  0  0  # atno 1240 bound_to 1232
  102.6646  253.2171  345.4603 H   0  0  0  0  0  0  0  0  0  0  0  0  # atno 11619 bound_to 11589
  118.3066  251.2443  337.6175 H   0  0  0  0  0  0  0  0  0  0  0  0  # atno 11922 bound_to 11915
  111.0463  249.8480  337.0670 H   0  0  0  0  0  0  0  0  0  0  0  0  # atno 13440 bound_to 13433
  110.7421  262.8626  342.8116 LP  0  0  0  0  0  0  0  0  0  0  0  0  # atno 13465 bound_to 1067
  109.0497  263.2136  342.7000 LP  0  0  0  0  0  0  0  0  0  0  0  0  # atno 13466 bound_to 1067
  110.6385  261.4945  345.3132 LP  0  0  0  0  0  0  0  0  0  0  0  0  # atno 13467 bound_to 1100
  109.3381  258.7070  344.4283 LP  0  0  0  0  0  0  0  0  0  0  0  0  # atno 13468 bound_to 1103
  108.8437  257.9595  342.9461 LP  0  0  0  0  0  0  0  0  0  0  0  0  # atno 13469 bound_to 1103
  110.5509  260.2416  341.1015 LP  0  0  0  0  0  0  0  0  0  0  0  0  # atno 13470 bound_to 1124
  109.3784  256.2787  338.8246 LP  0  0  0  0  0  0  0  0  0  0  0  0  # atno 13471 bound_to 1127
  110.5337  257.2441  337.9683 LP  0  0  0  0  0  0  0  0  0  0  0  0  # atno 13472 bound_to 1127
  110.9121  256.8939  340.9817 LP  0  0  0  0  0  0  0  0  0  0  0  0  # atno 13475 bound_to 1154
  113.1736  254.9623  337.7506 LP  0  0  0  0  0  0  0  0  0  0  0  0  # atno 13476 bound_to 1157
  112.9178  253.4590  338.5719 LP  0  0  0  0  0  0  0  0  0  0  0  0  # atno 13477 bound_to 1157
  112.0482  254.8584  339.6944 LP  0  0  0  0  0  0  0  0  0  0  0  0  # atno 13478 bound_to 1170
  108.3484  251.6092  339.4220 LP  0  0  0  0  0  0  0  0  0  0  0  0  # atno 13479 bound_to 1173
  108.8978  251.6343  337.7796 LP  0  0  0  0  0  0  0  0  0  0  0  0  # atno 13480 bound_to 1173
  109.9604  253.1053  342.5991 LP  0  0  0  0  0  0  0  0  0  0  0  0  # atno 13481 bound_to 1175
  109.0494  251.8511  342.0857 LP  0  0  0  0  0  0  0  0  0  0  0  0  # atno 13482 bound_to 1175
  109.0177  253.6193  339.1890 LP  0  0  0  0  0  0  0  0  0  0  0  0  # atno 13483 bound_to 1194
  110.2483  254.3653  336.0003 LP  0  0  0  0  0  0  0  0  0  0  0  0  # atno 13484 bound_to 1197
  109.2337  255.2334  334.8972 LP  0  0  0  0  0  0  0  0  0  0  0  0  # atno 13485 bound_to 1197
  108.2000  253.7313  335.9737 LP  0  0  0  0  0  0  0  0  0  0  0  0  # atno 13504 bound_to 1232
  110.0551  250.4704  338.1975 LP  0  0  0  0  0  0  0  0  0  0  0  0  # atno 13509 bound_to 13433
  109.4935  250.1620  336.6954 LP  0  0  0  0  0  0  0  0  0  0  0  0  # atno 13510 bound_to 13433

> <Gold.Score>
     Fitness  S(hb_ext) S(vdw_ext)  S(hb_int)    S(int)      intcor
     28.25       0.00      21.80       0.00      -1.72      -0.76

> <Gold.Goldscore.Fitness>
28.2528

> <Gold.Goldscore.Internal.Vdw>
-2.1158

> <Gold.Goldscore.Internal.Torsion>
-0.3682

> <Gold.Goldscore.External.Vdw>
21.7977

> <Gold.Goldscore.Internal.HBond>
0.0000

> <Gold.Goldscore.External.HBond>
0.0000

> <Gold.Goldscore.Internal.Correction>
-0.7650

> <Gold.Goldscore.Internal.Vdw.Weighted>
-2.1158

> <Gold.Goldscore.Internal.Torsion.Weighted>
-0.3682

> <Gold.Goldscore.External.Vdw.Weighted>
29.9719

> <Gold.Goldscore.Internal.HBond.Weighted>
0.0000

> <Gold.Goldscore.External.HBond.Weighted>
0.0000

> <Gold.Goldscore.Internal.Correction.Weighted>
-0.7650

> <Gold.Rescore>
     Score     S(PLP)   S(hbond)     S(cho)   S(metal)  DE(clash)   DE(tors)     intcor
     27.63     -29.17       0.00       0.00       0.00       0.98       0.28       ----

> <Gold.PLP.Fitness>
27.6263

> <Gold.PLP.PLP>
-29.1655

> <Gold.PLP.part.hbond>
0.0000

> <Gold.PLP.part.metal>
0.0000

> <Gold.PLP.part.buried>
-6.9661

> <Gold.PLP.part.nonpolar>
-22.4917

> <Gold.PLP.part.repulsive>
0.3006

> <Gold.PLP.ligand.clash>
0.9772

> <Gold.PLP.ligand.torsion>
0.2810

> <Gold.PLP.Chemscore.Hbond>
0.0000

> <Gold.PLP.Chemscore.CHOScore>
0.0000

> <Gold.PLP.Chemscore.Metal>
0.0000

> <Gold.PLP.Chemscore.Internal.Correction>
   9.000000E+99

