#       Name:                CT1002167954
#       Creating user name   hitesit
#       Creation time:       Sun Apr 16 20:17:42 2023


#       File generated by GOLD software.
#

@<TRIPOS>MOLECULE
CT1002167954|ligand_prepared|mol2|1|dock8
    29    30     1
SMALL
NO_CHARGES


@<TRIPOS>ATOM
      1 C1         116.0231 258.9079 347.5148 C.3            1 RES1               0.0000
      2 C2         115.5318 257.7293 346.6498 C.ar           1 RES1               0.0000
      3 C3         115.0754 258.9879 348.7081 C.2            1 RES1               0.0000
      4 C4         117.4671 258.5909 347.8873 C.2            1 RES1               0.0000
      5 C5         116.0066 260.2698 346.7823 C.3            1 RES1               0.0000
      6 C6         116.2243 256.5222 346.6378 C.ar           1 RES1               0.0000
      7 C7         114.3882 257.8328 345.8623 C.ar           1 RES1               0.0000
      8 N8         115.5436 258.5626 349.9163 N.am           1 RES1               0.0000
      9 O9         113.9222 259.3811 348.5829 O.2            1 RES1               0.0000
     10 N10        117.7545 258.3632 349.2077 N.am           1 RES1               0.0000
     11 O11        118.3557 258.5198 347.0473 O.2            1 RES1               0.0000
     12 C12        116.9504 260.3373 345.5920 C.3            1 RES1               0.0000
     13 C13        115.7880 255.4563 345.8685 C.ar           1 RES1               0.0000
     14 C14        113.9537 256.7657 345.0936 C.ar           1 RES1               0.0000
     15 C15        116.8526 258.3044 350.2350 C.2            1 RES1               0.0000
     16 C16        114.6523 255.5771 345.0964 C.ar           1 RES1               0.0000
     17 O17        117.1806 258.0402 351.3882 O.2            1 RES1               0.0000
     18 H18        114.9857 260.4719 346.4355 H              1 RES1               0.0000
     19 H19        116.2806 261.0574 347.4951 H              1 RES1               0.0000
     20 H20        117.1216 256.4093 347.2371 H              1 RES1               0.0000
     21 H21        113.8234 258.7587 345.8437 H              1 RES1               0.0000
     22 H22        114.8569 258.4236 350.6508 H              1 RES1               0.0000
     23 H23        118.7312 258.2248 349.4469 H              1 RES1               0.0000
     24 H24        116.8997 261.3135 345.1144 H              1 RES1               0.0000
     25 H25        117.9783 260.1658 345.9045 H              1 RES1               0.0000
     26 H26        116.6912 259.5838 344.8511 H              1 RES1               0.0000
     27 H27        116.3421 254.5234 345.8732 H              1 RES1               0.0000
     28 H28        113.0597 256.8654 344.4869 H              1 RES1               0.0000
     29 H29        114.3104 254.7418 344.4942 H              1 RES1               0.0000
@<TRIPOS>BOND
    1    1    2 1     
    2    1    3 1     
    3    1    4 1     
    4    1    5 1     
    5    2    6 ar    
    6    2    7 ar    
    7    3    8 1     
    8    3    9 2     
    9    4   10 1     
   10    4   11 2     
   11    5   12 1     
   12    5   18 1     
   13    5   19 1     
   14    6   13 ar    
   15    6   20 1     
   16    7   14 ar    
   17    7   21 1     
   18    8   15 1     
   19    8   22 1     
   20   10   15 1     
   21   10   23 1     
   22   12   24 1     
   23   12   25 1     
   24   12   26 1     
   25   13   16 ar    
   26   13   27 1     
   27   14   16 ar    
   28   14   28 1     
   29   15   17 2     
   30   16   29 1     
@<TRIPOS>SUBSTRUCTURE
      1 RES1           1
@<TRIPOS>SET
DONOR_HYDROGENS      STATIC     ATOMS    <user>   **** ""
2 22 23
ATOM$RED        STATIC     ATOMS    COLORGROUP SYSTEM
2 22 23
@<TRIPOS>COMMENT
> <Gold.Version>
2022.3.0

> <Gold.Id.Protein>
unknown|5adg_clean|pdb

> <Gold.Protein.RotatedTorsions>
[ 1107 1100 1101 1102 ] final  103.25 input   86.23 | X-H torsion
[ 1140 1124 1125 1126 ] final   83.76 input   63.27 | X-H torsion
[ 1158 1154 1155 1156 ] final  174.76 input  128.69 | X-H torsion
[ 1176 1170 1171 1172 ] final -123.40 input   75.71 | X-H torsion
[ 1180 1175 1174 1171 ] final  103.77 input   60.03 | X-H torsion
[ 1202 1194 1195 1196 ] final   45.94 input   99.83 | X-H torsion
[ 1240 1232 1233 1234 ] final   79.89 input  109.94 | X-H torsion
[ 13440 13433 13432 13430 ] final  -37.95 input   60.02 | X-H torsion
[ 11619 11589 11588 11586 ] final  -66.51 input   59.96 | X-H torsion
[ 11922 11915 11916 11917 ] final   38.96 input  122.96 | X-H torsion
[ 13465 1067 1066 1065 ] final -171.68 input   -0.00 | X-H torsion
[ 13468 1103 1102 1101 ] final  -12.54 input   -0.00 | X-H torsion
[ 13471 1127 1126 1125 ] final -178.50 input   -0.00 | X-H torsion
[ 13476 1157 1156 1155 ] final  -43.84 input    0.00 | X-H torsion
[ 13479 1173 1172 1171 ] final  -71.41 input    0.00 | X-H torsion
[ 13484 1197 1196 1195 ] final   53.81 input   -0.00 | X-H torsion

> <Gold.Protein.ActiveResidues>
 VAL308  THR329  CYS331  ILE335  CYS336  MET337  GLY338  SER339  ILE340  MET341 
 PRO343  SER418  ARG419  ARG423  PHE663  TYR671  CYS677  PRO678  ALA679  ASP680 
 TRP681  VAL682  TRP683  ILE684  VAL685  VAL695  GLN698  GLU699  MET700  LEU701 
 ASN702  TYR703  H4B760 

> <Gold.Protein.RotatedAtoms>
  110.2890  260.7832  345.5078 H   0  0  0  0  0  0  0  0  0  0  0  0  # atno 1107 bound_to 1100
  110.6034  260.2182  341.0560 H   0  0  0  0  0  0  0  0  0  0  0  0  # atno 1140 bound_to 1124
  111.9304  258.2047  340.7989 H   0  0  0  0  0  0  0  0  0  0  0  0  # atno 1158 bound_to 1154
  112.1284  254.8115  339.8170 H   0  0  0  0  0  0  0  0  0  0  0  0  # atno 1176 bound_to 1170
  108.7972  252.0453  341.6812 H   0  0  0  0  0  0  0  0  0  0  0  0  # atno 1180 bound_to 1175
  109.8765  254.7394  338.1915 H   0  0  0  0  0  0  0  0  0  0  0  0  # atno 1202 bound_to 1194
  106.6784  253.0779  335.6030 H   0  0  0  0  0  0  0  0  0  0  0  0  # atno 1240 bound_to 1232
  102.7594  254.4727  346.5375 H   0  0  0  0  0  0  0  0  0  0  0  0  # atno 11619 bound_to 11589
  118.0084  251.6001  337.5543 H   0  0  0  0  0  0  0  0  0  0  0  0  # atno 11922 bound_to 11915
  110.8310  249.8023  336.7268 H   0  0  0  0  0  0  0  0  0  0  0  0  # atno 13440 bound_to 13433
  110.3335  262.3567  342.4488 LP  0  0  0  0  0  0  0  0  0  0  0  0  # atno 13465 bound_to 1067
  109.4583  263.7194  343.0629 LP  0  0  0  0  0  0  0  0  0  0  0  0  # atno 13466 bound_to 1067
  109.5744  261.7569  344.2465 LP  0  0  0  0  0  0  0  0  0  0  0  0  # atno 13467 bound_to 1100
  109.4864  258.5521  344.4260 LP  0  0  0  0  0  0  0  0  0  0  0  0  # atno 13468 bound_to 1103
  108.6954  258.1145  342.9485 LP  0  0  0  0  0  0  0  0  0  0  0  0  # atno 13469 bound_to 1103
  110.4215  259.1776  342.4498 LP  0  0  0  0  0  0  0  0  0  0  0  0  # atno 13470 bound_to 1124
  110.7158  256.3491  338.3433 LP  0  0  0  0  0  0  0  0  0  0  0  0  # atno 13471 bound_to 1127
  109.1964  257.1737  338.4497 LP  0  0  0  0  0  0  0  0  0  0  0  0  # atno 13472 bound_to 1127
  110.7066  256.9851  340.5161 LP  0  0  0  0  0  0  0  0  0  0  0  0  # atno 13475 bound_to 1154
  113.0461  254.9348  337.6862 LP  0  0  0  0  0  0  0  0  0  0  0  0  # atno 13476 bound_to 1157
  113.0453  253.4865  338.6363 LP  0  0  0  0  0  0  0  0  0  0  0  0  # atno 13477 bound_to 1157
  110.5944  255.1029  340.5943 LP  0  0  0  0  0  0  0  0  0  0  0  0  # atno 13478 bound_to 1170
  109.2516  251.3842  338.0544 LP  0  0  0  0  0  0  0  0  0  0  0  0  # atno 13479 bound_to 1173
  107.9946  251.8592  339.1472 LP  0  0  0  0  0  0  0  0  0  0  0  0  # atno 13480 bound_to 1173
  109.3050  253.5868  341.5693 LP  0  0  0  0  0  0  0  0  0  0  0  0  # atno 13481 bound_to 1175
  109.8882  252.6151  342.7450 LP  0  0  0  0  0  0  0  0  0  0  0  0  # atno 13482 bound_to 1175
  108.9214  253.8064  339.3167 LP  0  0  0  0  0  0  0  0  0  0  0  0  # atno 13483 bound_to 1194
  110.2046  254.5559  336.1386 LP  0  0  0  0  0  0  0  0  0  0  0  0  # atno 13484 bound_to 1197
  109.2774  255.0428  334.7590 LP  0  0  0  0  0  0  0  0  0  0  0  0  # atno 13485 bound_to 1197
  108.3090  253.3888  336.1310 LP  0  0  0  0  0  0  0  0  0  0  0  0  # atno 13504 bound_to 1232
  110.4492  250.3648  338.2052 LP  0  0  0  0  0  0  0  0  0  0  0  0  # atno 13509 bound_to 13433
  109.3162  250.3136  337.0303 LP  0  0  0  0  0  0  0  0  0  0  0  0  # atno 13510 bound_to 13433

> <Gold.Score>
     Fitness  S(hb_ext) S(vdw_ext)  S(hb_int)    S(int)      intcor
     25.01       0.00      24.66       0.00      -8.90      -0.76

> <Gold.Goldscore.Fitness>
25.0150

> <Gold.Goldscore.Internal.Vdw>
-9.2707

> <Gold.Goldscore.Internal.Torsion>
-0.3923

> <Gold.Goldscore.External.Vdw>
24.6640

> <Gold.Goldscore.Internal.HBond>
0.0000

> <Gold.Goldscore.External.HBond>
0.0000

> <Gold.Goldscore.Internal.Correction>
-0.7650

> <Gold.Goldscore.Internal.Vdw.Weighted>
-9.2707

> <Gold.Goldscore.Internal.Torsion.Weighted>
-0.3923

> <Gold.Goldscore.External.Vdw.Weighted>
33.9129

> <Gold.Goldscore.Internal.HBond.Weighted>
0.0000

> <Gold.Goldscore.External.HBond.Weighted>
0.0000

> <Gold.Goldscore.Internal.Correction.Weighted>
-0.7650

> <Gold.Rescore>
     Score     S(PLP)   S(hbond)     S(cho)   S(metal)  DE(clash)   DE(tors)     intcor
     -5.18       1.29       0.00       0.00       0.00       1.91       0.99       ----

> <Gold.PLP.Fitness>
-5.1810

> <Gold.PLP.PLP>
1.2882

> <Gold.PLP.part.hbond>
-0.7324

> <Gold.PLP.part.metal>
0.0000

> <Gold.PLP.part.buried>
19.4233

> <Gold.PLP.part.nonpolar>
-17.9146

> <Gold.PLP.part.repulsive>
1.3781

> <Gold.PLP.ligand.clash>
1.9134

> <Gold.PLP.ligand.torsion>
0.9897

> <Gold.PLP.Chemscore.Hbond>
0.0000

> <Gold.PLP.Chemscore.CHOScore>
0.0000

> <Gold.PLP.Chemscore.Metal>
0.0000

> <Gold.PLP.Chemscore.Internal.Correction>
   9.000000E+99

