#       Name:                CT1002167954
#       Creating user name   hitesit
#       Creation time:       Sun Apr 16 20:17:39 2023


#       File generated by GOLD software.
#

@<TRIPOS>MOLECULE
CT1002167954|ligand_prepared|mol2|1|dock5
    29    30     1
SMALL
NO_CHARGES


@<TRIPOS>ATOM
      1 C1         115.3693 258.6790 351.0963 C.3            1 RES1               0.0000
      2 C2         116.0222 258.6841 349.6990 C.ar           1 RES1               0.0000
      3 C3         115.1155 260.1400 351.4559 C.2            1 RES1               0.0000
      4 C4         114.1025 257.8398 350.9722 C.2            1 RES1               0.0000
      5 C5         116.2540 258.0487 352.1970 C.3            1 RES1               0.0000
      6 C6         115.9483 259.8115 348.8864 C.ar           1 RES1               0.0000
      7 C7         116.7028 257.5719 349.2107 C.ar           1 RES1               0.0000
      8 N8         113.8281 260.5876 351.4098 N.am           1 RES1               0.0000
      9 O9         116.0357 260.8979 351.7373 O.2            1 RES1               0.0000
     10 N10        112.8965 258.4692 351.1373 N.am           1 RES1               0.0000
     11 O11        114.1371 256.6424 350.7164 O.2            1 RES1               0.0000
     12 C12        115.6843 258.1937 353.5993 C.3            1 RES1               0.0000
     13 C13        116.5361 259.8276 347.6324 C.ar           1 RES1               0.0000
     14 C14        117.2897 257.5901 347.9562 C.ar           1 RES1               0.0000
     15 C15        112.7009 259.8111 351.3200 C.2            1 RES1               0.0000
     16 C16        117.2074 258.7173 347.1666 C.ar           1 RES1               0.0000
     17 O17        111.5827 260.3104 351.4057 O.2            1 RES1               0.0000
     18 H18        116.3845 256.9819 351.9774 H              1 RES1               0.0000
     19 H19        117.2440 258.5206 352.1676 H              1 RES1               0.0000
     20 H20        115.4221 260.6939 349.2350 H              1 RES1               0.0000
     21 H21        116.7793 256.6737 349.8140 H              1 RES1               0.0000
     22 H22        113.6908 261.5927 351.4452 H              1 RES1               0.0000
     23 H23        112.0679 257.8831 351.1227 H              1 RES1               0.0000
     24 H24        116.3438 257.7346 354.3329 H              1 RES1               0.0000
     25 H25        115.5650 259.2431 353.8607 H              1 RES1               0.0000
     26 H26        114.7106 257.7135 353.6716 H              1 RES1               0.0000
     27 H27        116.4673 260.7167 347.0143 H              1 RES1               0.0000
     28 H28        117.8165 256.7137 347.5934 H              1 RES1               0.0000
     29 H29        117.6681 258.7303 346.1844 H              1 RES1               0.0000
@<TRIPOS>BOND
    1    1    2 1     
    2    1    3 1     
    3    1    4 1     
    4    1    5 1     
    5    2    6 ar    
    6    2    7 ar    
    7    3    8 1     
    8    3    9 2     
    9    4   10 1     
   10    4   11 2     
   11    5   12 1     
   12    5   18 1     
   13    5   19 1     
   14    6   13 ar    
   15    6   20 1     
   16    7   14 ar    
   17    7   21 1     
   18    8   15 1     
   19    8   22 1     
   20   10   15 1     
   21   10   23 1     
   22   12   24 1     
   23   12   25 1     
   24   12   26 1     
   25   13   16 ar    
   26   13   27 1     
   27   14   16 ar    
   28   14   28 1     
   29   15   17 2     
   30   16   29 1     
@<TRIPOS>SUBSTRUCTURE
      1 RES1           1
@<TRIPOS>SET
DONOR_HYDROGENS      STATIC     ATOMS    <user>   **** ""
2 22 23
ATOM$RED        STATIC     ATOMS    COLORGROUP SYSTEM
2 22 23
@<TRIPOS>COMMENT
> <Gold.Version>
2022.3.0

> <Gold.Id.Protein>
unknown|5adg_clean|pdb

> <Gold.Protein.RotatedTorsions>
[ 1107 1100 1101 1102 ] final   67.40 input   86.23 | X-H torsion
[ 1140 1124 1125 1126 ] final   30.04 input   63.27 | X-H torsion
[ 1158 1154 1155 1156 ] final   56.87 input  128.69 | X-H torsion
[ 1176 1170 1171 1172 ] final -146.30 input   75.71 | X-H torsion
[ 1180 1175 1174 1171 ] final  141.88 input   60.03 | X-H torsion
[ 1202 1194 1195 1196 ] final   96.18 input   99.83 | X-H torsion
[ 1240 1232 1233 1234 ] final  177.06 input  109.94 | X-H torsion
[ 13440 13433 13432 13430 ] final -140.53 input   60.02 | X-H torsion
[ 11619 11589 11588 11586 ] final  -66.53 input   59.96 | X-H torsion
[ 11922 11915 11916 11917 ] final -176.51 input  122.96 | X-H torsion
[ 13465 1067 1066 1065 ] final   35.99 input   -0.00 | X-H torsion
[ 13468 1103 1102 1101 ] final    7.64 input   -0.00 | X-H torsion
[ 13471 1127 1126 1125 ] final   56.85 input   -0.00 | X-H torsion
[ 13476 1157 1156 1155 ] final   82.25 input    0.00 | X-H torsion
[ 13479 1173 1172 1171 ] final  148.31 input    0.00 | X-H torsion
[ 13484 1197 1196 1195 ] final   53.26 input   -0.00 | X-H torsion

> <Gold.Protein.ActiveResidues>
 VAL308  THR329  CYS331  ILE335  CYS336  MET337  GLY338  SER339  ILE340  MET341 
 PRO343  SER418  ARG419  ARG423  PHE663  TYR671  CYS677  PRO678  ALA679  ASP680 
 TRP681  VAL682  TRP683  ILE684  VAL685  VAL695  GLN698  GLU699  MET700  LEU701 
 ASN702  TYR703  H4B760 

> <Gold.Protein.RotatedAtoms>
  109.8522  260.5208  345.3215 H   0  0  0  0  0  0  0  0  0  0  0  0  # atno 1107 bound_to 1100
  111.1760  259.6704  341.1761 H   0  0  0  0  0  0  0  0  0  0  0  0  # atno 1140 bound_to 1124
  111.1852  256.9648  341.2824 H   0  0  0  0  0  0  0  0  0  0  0  0  # atno 1158 bound_to 1154
  112.1931  254.7016  340.1411 H   0  0  0  0  0  0  0  0  0  0  0  0  # atno 1176 bound_to 1170
  109.1170  251.8512  342.1643 H   0  0  0  0  0  0  0  0  0  0  0  0  # atno 1180 bound_to 1175
  109.4890  255.1415  338.6886 H   0  0  0  0  0  0  0  0  0  0  0  0  # atno 1202 bound_to 1194
  107.6536  252.4438  336.2048 H   0  0  0  0  0  0  0  0  0  0  0  0  # atno 1240 bound_to 1232
  102.7592  254.4730  346.5374 H   0  0  0  0  0  0  0  0  0  0  0  0  # atno 11619 bound_to 11589
  117.8582  251.8648  339.2183 H   0  0  0  0  0  0  0  0  0  0  0  0  # atno 11922 bound_to 11915
  110.6963  250.2639  338.1065 H   0  0  0  0  0  0  0  0  0  0  0  0  # atno 13440 bound_to 13433
  109.8496  263.7934  343.1769 LP  0  0  0  0  0  0  0  0  0  0  0  0  # atno 13465 bound_to 1067
  109.9422  262.2827  342.3348 LP  0  0  0  0  0  0  0  0  0  0  0  0  # atno 13466 bound_to 1067
  110.0030  262.0144  344.4293 LP  0  0  0  0  0  0  0  0  0  0  0  0  # atno 13467 bound_to 1100
  109.2710  258.7655  344.4157 LP  0  0  0  0  0  0  0  0  0  0  0  0  # atno 13468 bound_to 1103
  108.9109  257.9010  342.9587 LP  0  0  0  0  0  0  0  0  0  0  0  0  # atno 13469 bound_to 1103
  109.8650  259.7099  342.3330 LP  0  0  0  0  0  0  0  0  0  0  0  0  # atno 13470 bound_to 1124
  109.7978  257.5465  338.0671 LP  0  0  0  0  0  0  0  0  0  0  0  0  # atno 13471 bound_to 1127
  110.1144  255.9762  338.7259 LP  0  0  0  0  0  0  0  0  0  0  0  0  # atno 13472 bound_to 1127
  111.4268  258.1834  340.0488 LP  0  0  0  0  0  0  0  0  0  0  0  0  # atno 13475 bound_to 1154
  113.6611  253.9663  338.7194 LP  0  0  0  0  0  0  0  0  0  0  0  0  # atno 13476 bound_to 1157
  112.4303  254.4550  337.6031 LP  0  0  0  0  0  0  0  0  0  0  0  0  # atno 13477 bound_to 1157
  110.5304  255.2115  340.2741 LP  0  0  0  0  0  0  0  0  0  0  0  0  # atno 13478 bound_to 1170
  107.8647  252.0398  338.6024 LP  0  0  0  0  0  0  0  0  0  0  0  0  # atno 13479 bound_to 1173
  109.3816  251.2037  338.5993 LP  0  0  0  0  0  0  0  0  0  0  0  0  # atno 13480 bound_to 1173
  108.9191  253.2032  341.2813 LP  0  0  0  0  0  0  0  0  0  0  0  0  # atno 13481 bound_to 1175
  109.9519  253.1943  342.5462 LP  0  0  0  0  0  0  0  0  0  0  0  0  # atno 13482 bound_to 1175
  109.3023  253.4111  338.8280 LP  0  0  0  0  0  0  0  0  0  0  0  0  # atno 13483 bound_to 1194
  110.2024  254.5629  336.1424 LP  0  0  0  0  0  0  0  0  0  0  0  0  # atno 13484 bound_to 1197
  109.2795  255.0358  334.7551 LP  0  0  0  0  0  0  0  0  0  0  0  0  # atno 13485 bound_to 1197
  107.3388  254.0196  335.5324 LP  0  0  0  0  0  0  0  0  0  0  0  0  # atno 13504 bound_to 1232
  109.2899  250.4039  337.3000 LP  0  0  0  0  0  0  0  0  0  0  0  0  # atno 13509 bound_to 13433
  110.6111  249.8098  336.5462 LP  0  0  0  0  0  0  0  0  0  0  0  0  # atno 13510 bound_to 13433

> <Gold.Score>
     Fitness  S(hb_ext) S(vdw_ext)  S(hb_int)    S(int)      intcor
     28.95       0.45      21.74       0.00      -1.40      -0.76

> <Gold.Goldscore.Fitness>
28.9486

> <Gold.Goldscore.Internal.Vdw>
-1.7194

> <Gold.Goldscore.Internal.Torsion>
-0.4468

> <Gold.Goldscore.External.Vdw>
21.7425

> <Gold.Goldscore.Internal.HBond>
0.0000

> <Gold.Goldscore.External.HBond>
0.4539

> <Gold.Goldscore.Internal.Correction>
-0.7650

> <Gold.Goldscore.Hbonds>
donor molecule, donor type, donor heavy atom, donor atom, acceptor molecule, acceptor atom, score
      P1  H 12548 12562       L1    11  0.20
      L1  H    10    23       P1 12549  0.03

> <Gold.Goldscore.Internal.Vdw.Weighted>
-1.7194

> <Gold.Goldscore.Internal.Torsion.Weighted>
-0.4468

> <Gold.Goldscore.External.Vdw.Weighted>
29.8959

> <Gold.Goldscore.Internal.HBond.Weighted>
0.0000

> <Gold.Goldscore.External.HBond.Weighted>
0.4539

> <Gold.Goldscore.Internal.Correction.Weighted>
-0.7650

> <Gold.Rescore>
     Score     S(PLP)   S(hbond)     S(cho)   S(metal)  DE(clash)   DE(tors)     intcor
     33.37     -35.50       0.00       0.00       0.00       0.08       1.03       ----

> <Gold.PLP.Fitness>
33.3706

> <Gold.PLP.PLP>
-35.5023

> <Gold.PLP.part.hbond>
-2.9117

> <Gold.PLP.part.metal>
0.0000

> <Gold.PLP.part.buried>
-8.1260

> <Gold.PLP.part.nonpolar>
-25.9746

> <Gold.PLP.part.repulsive>
0.5264

> <Gold.PLP.ligand.clash>
0.0810

> <Gold.PLP.ligand.torsion>
1.0254

> <Gold.PLP.Chemscore.Hbond>
0.0000

> <Gold.PLP.Chemscore.CHOScore>
0.0000

> <Gold.PLP.Chemscore.Metal>
0.0000

> <Gold.Chemscore.Hbonds>
donor molecule, donor type, donor heavy atom, donor atom, acceptor molecule, acceptor atom, score
      L1  H    10    23       P1 12549  0.49
      P1  H 12548 12562       L1    11  0.35

> <Gold.PLP.Chemscore.Internal.Correction>
   9.000000E+99

