#       Name:                CT1002167954
#       Creating user name   hitesit
#       Creation time:       Sun Apr 16 02:24:07 2023


#       File generated by GOLD software.
#

@<TRIPOS>MOLECULE
CT1002167954|ligand_prepared|mol2|1|dock10
    29    30     1
SMALL
NO_CHARGES


@<TRIPOS>ATOM
      1 C1          -8.1644 -15.1285 -27.0701 C.3            1 RES1               0.0000
      2 C2          -9.3854 -14.2262 -26.7982 C.ar           1 RES1               0.0000
      3 C3          -8.1803 -16.2075 -25.9913 C.2            1 RES1               0.0000
      4 C4          -8.3363 -15.6633 -28.4875 C.2            1 RES1               0.0000
      5 C5          -6.8102 -14.3848 -27.0010 C.3            1 RES1               0.0000
      6 C6          -9.2758 -13.1182 -25.9633 C.ar           1 RES1               0.0000
      7 C7         -10.6249 -14.4871 -27.3762 C.ar           1 RES1               0.0000
      8 N8          -8.5580 -17.4648 -26.3608 N.am           1 RES1               0.0000
      9 O9          -7.9039 -15.9503 -24.8261 O.2            1 RES1               0.0000
     10 N10         -8.5354 -17.0097 -28.6460 N.am           1 RES1               0.0000
     11 O11         -8.3177 -14.9285 -29.4674 O.2            1 RES1               0.0000
     12 C12         -5.6315 -15.2107 -27.4917 C.3            1 RES1               0.0000
     13 C13        -10.3651 -12.2990 -25.7174 C.ar           1 RES1               0.0000
     14 C14        -11.7131 -13.6667 -27.1287 C.ar           1 RES1               0.0000
     15 C15         -8.6847 -17.9304 -27.6449 C.2            1 RES1               0.0000
     16 C16        -11.5842 -12.5723 -26.3002 C.ar           1 RES1               0.0000
     17 O17         -8.9159 -19.1157 -27.8660 O.2            1 RES1               0.0000
     18 H18         -6.8776 -13.4718 -27.6053 H              1 RES1               0.0000
     19 H19         -6.6239 -14.0863 -25.9620 H              1 RES1               0.0000
     20 H20         -8.3250 -12.8887 -25.4938 H              1 RES1               0.0000
     21 H21        -10.7499 -15.3432 -28.0305 H              1 RES1               0.0000
     22 H22         -8.7654 -18.1194 -25.6133 H              1 RES1               0.0000
     23 H23         -8.5760 -17.3580 -29.5986 H              1 RES1               0.0000
     24 H24         -4.7065 -14.6421 -27.4218 H              1 RES1               0.0000
     25 H25         -5.5194 -16.1146 -26.8965 H              1 RES1               0.0000
     26 H26         -5.7715 -15.5037 -28.5301 H              1 RES1               0.0000
     27 H27        -10.2588 -11.4397 -25.0635 H              1 RES1               0.0000
     28 H28        -12.6708 -13.8859 -27.5890 H              1 RES1               0.0000
     29 H29        -12.4373 -11.9301 -26.1077 H              1 RES1               0.0000
@<TRIPOS>BOND
    1    1    2 1     
    2    1    3 1     
    3    1    4 1     
    4    1    5 1     
    5    2    6 ar    
    6    2    7 ar    
    7    3    8 1     
    8    3    9 2     
    9    4   10 1     
   10    4   11 2     
   11    5   12 1     
   12    5   18 1     
   13    5   19 1     
   14    6   13 ar    
   15    6   20 1     
   16    7   14 ar    
   17    7   21 1     
   18    8   15 1     
   19    8   22 1     
   20   10   15 1     
   21   10   23 1     
   22   12   24 1     
   23   12   25 1     
   24   12   26 1     
   25   13   16 ar    
   26   13   27 1     
   27   14   16 ar    
   28   14   28 1     
   29   15   17 2     
   30   16   29 1     
@<TRIPOS>SUBSTRUCTURE
      1 RES1           1
@<TRIPOS>SET
DONOR_HYDROGENS      STATIC     ATOMS    <user>   **** ""
2 22 23
ATOM$RED        STATIC     ATOMS    COLORGROUP SYSTEM
2 22 23
@<TRIPOS>COMMENT
> <Gold.Version>
2022.3.0

> <Gold.Id.Protein>
unknown|7kl0_clean|pdb

> <Gold.Protein.RotatedTorsions>
[ 6442 6424 6423 6421 ] final   68.25 input   59.99 | X-H torsion
[ 6434 6413 6414 6415 ] final  138.75 input   40.09 | X-H torsion
[ 6240 6222 6221 6219 ] final  -47.88 input   60.01 | X-H torsion
[ 7213 7207 7208 7209 ] final  109.04 input  101.61 | X-H torsion
[ 7269 7260 7261 7262 ] final -154.78 input  118.90 | X-H torsion
[ 7309 7295 7296 7297 ] final   59.25 input   89.68 | X-H torsion
[ 7217 7212 7211 7208 ] final -126.47 input   60.02 | X-H torsion
[ 6577 6553 6554 6555 ] final  -33.11 input   19.71 | X-H torsion
[ 6607 6595 6596 6597 ] final  -47.07 input   28.67 | X-H torsion
[ 6530 6510 6511 6512 ] final  -88.36 input   51.84 | X-H torsion
[ 6635 6620 6621 6622 ] final  177.95 input  122.94 | X-H torsion
[ 1420 1410 1409 1406 ] final  168.32 input   60.02 | X-H torsion
[ 1287 1275 1273 1270 ] final -167.66 input   60.01 | X-H torsion
[ 6398 6391 6392 6393 ] final  126.85 input  -98.70 | X-H torsion
[ 5429 5420 5419 5417 ] final   32.01 input   59.99 | X-H torsion
[ 3115 3099 3100 3101 ] final   40.29 input  111.82 | X-H torsion
[ 2982 2971 2972 2973 ] final  -77.29 input  134.80 | X-H torsion
[ 3018 3009 3010 3011 ] final  148.25 input  114.19 | X-H torsion
[ 6268 6249 6250 6251 ] final  -45.59 input  122.80 | X-H torsion
[ 6306 6287 6288 6289 ] final    8.66 input  127.97 | X-H torsion
[ 3081 3062 3063 3064 ] final   31.85 input  114.53 | X-H torsion
[ 3139 3129 3130 3131 ] final   14.80 input  112.52 | X-H torsion
[ 4214 4203 4202 4201 ] final  168.90 input   60.00 | X-H torsion
[ 4281 4267 4268 4269 ] final  164.84 input  109.79 | X-H torsion
[ 5391 5387 5388 5389 ] final   45.73 input  115.86 | X-H torsion
[ 1596 1580 1579 1578 ] final   41.94 input   59.99 | X-H torsion
[ 5347 5340 5338 5335 ] final   53.19 input   60.02 | X-H torsion
[  607  596  595  592 ] final   38.09 input   60.02 | X-H torsion
[ 2916 2901 2902 2903 ] final   92.94 input  112.69 | X-H torsion
[ 4310 4296 4297 4298 ] final  102.07 input   86.41 | X-H torsion
[ 2946 2930 2931 2932 ] final  155.85 input  126.41 | X-H torsion
[ 3050 3038 3039 3040 ] final   97.67 input  116.07 | X-H torsion
[ 5341 5334 5335 5336 ] final  178.99 input   67.75 | X-H torsion
[ 5421 5409 5410 5411 ] final  -65.91 input   64.82 | X-H torsion
[ 5455 5447 5448 5449 ] final  116.16 input  110.01 | X-H torsion
[ 6852 6834 6833 6831 ] final  -98.98 input   59.99 | X-H torsion
[ 5322 5317 5318 5319 ] final  -78.56 input  -36.16 | X-H torsion
[ 4142 4128 4129 4130 ] final  161.05 input   37.30 | X-H torsion
[ 4847 4839 4840 4841 ] final  154.57 input   74.58 | X-H torsion
[ 4166 4156 4157 4158 ] final    6.77 input  113.65 | X-H torsion
[ 4204 4195 4196 4197 ] final  167.19 input    7.17 | X-H torsion
[ 4825 4821 4822 4823 ] final   68.15 input  114.67 | X-H torsion
[ 5308 5298 5299 5300 ] final   86.56 input   26.27 | X-H torsion
[ 1613 1589 1588 1587 ] final  144.18 input   59.99 | X-H torsion
[ 5284 5264 5265 5266 ] final  173.93 input   91.93 | X-H torsion
[ 4879 4874 4875 4876 ] final   98.36 input  114.78 | X-H torsion
[ 5250 5243 5244 5245 ] final  116.02 input  -68.46 | X-H torsion
[ 5710 5690 5689 5688 ] final -115.47 input   60.02 | X-H torsion
[ 7345 7337 7338 7339 ] final  -84.39 input  116.36 | X-H torsion
[ 3215 3201 3202 3203 ] final   23.17 input -100.55 | X-H torsion
[ 4227 4194 4193 4192 ] final  -73.79 input   60.00 | X-H torsion
[  546  536  537  538 ] final -144.68 input  119.99 | X-H torsion
[ 6843 6822 6821 6819 ] final -139.81 input   59.97 | X-H torsion
[ 5806 5788 5787 5785 ] final   40.14 input   59.97 | X-H torsion
[ 8545 6453 6452 6451 ] final  -43.39 input   -0.00 | X-H torsion
[ 8553 6365 6364 6363 ] final  -76.11 input    0.00 | X-H torsion
[ 8555 6394 6393 6392 ] final  170.25 input    0.00 | X-H torsion
[ 8557 6416 6415 6414 ] final -101.39 input    0.00 | X-H torsion
[ 8560 7183 7182 7181 ] final  134.85 input   -0.00 | X-H torsion
[ 8562 7210 7209 7208 ] final    4.06 input    0.00 | X-H torsion
[ 8569 7147 7146 7145 ] final  -68.87 input    0.00 | X-H torsion
[ 8574 7233 7232 7231 ] final  116.91 input   -0.00 | X-H torsion
[ 8577 6556 6555 6554 ] final  154.87 input    0.00 | X-H torsion
[ 8581 6513 6512 6511 ] final -149.32 input    0.00 | X-H torsion
[ 8586 6481 6480 6479 ] final   69.09 input    0.00 | X-H torsion
[ 8588 6598 6597 6596 ] final -158.80 input   -0.00 | X-H torsion
[ 8621 3102 3101 3100 ] final   75.41 input    0.00 | X-H torsion
[ 8626 2974 2973 2972 ] final -101.61 input   -0.00 | X-H torsion
[ 8633 3065 3064 3063 ] final  -46.71 input    0.00 | X-H torsion
[ 8635 3204 3203 3202 ] final -114.32 input   -0.00 | X-H torsion
[ 8637 6252 6251 6250 ] final  127.78 input    0.00 | X-H torsion
[ 8646 6101 6100 6099 ] final -112.76 input    0.00 | X-H torsion
[ 8648 6134 6133 6132 ] final   82.87 input    0.00 | X-H torsion
[ 8650 2933 2932 2931 ] final  141.66 input    0.00 | X-H torsion
[ 8652 3012 3011 3010 ] final  117.97 input    0.00 | X-H torsion
[ 8658 6623 6622 6621 ] final  108.23 input    0.00 | X-H torsion
[ 8674 4240 4239 4238 ] final   -1.59 input    0.00 | X-H torsion
[ 8676 4270 4269 4268 ] final -124.53 input    0.00 | X-H torsion
[ 8687 2904 2903 2902 ] final  -72.15 input    0.00 | X-H torsion
[ 8698 5337 5336 5335 ] final   72.79 input    0.00 | X-H torsion
[ 8700 5320 5319 5318 ] final -139.81 input    0.00 | X-H torsion
[ 8702 5365 5364 5363 ] final  -82.10 input   -0.00 | X-H torsion
[ 8705 5390 5389 5388 ] final  128.89 input   -0.00 | X-H torsion
[ 8711 4131 4130 4129 ] final  175.36 input    0.00 | X-H torsion
[ 8713 5301 5300 5299 ] final   51.35 input    0.00 | X-H torsion
[ 8715 4086 4085 4084 ] final -141.13 input    0.00 | X-H torsion
[ 8723 4764 4763 4762 ] final -131.23 input    0.00 | X-H torsion
[ 8726 4159 4158 4157 ] final  124.20 input    0.00 | X-H torsion
[ 8729  485  484  483 ] final    2.23 input    0.00 | X-H torsion
[ 8732 5267 5266 5265 ] final  158.39 input    0.00 | X-H torsion
[ 8736 4824 4823 4822 ] final -119.01 input   -0.00 | X-H torsion
[ 8738 4842 4841 4840 ] final -134.33 input    0.00 | X-H torsion
[ 8742 5246 5245 5244 ] final  162.78 input    0.00 | X-H torsion
[ 8753 5213 5212 5211 ] final -126.24 input   -0.00 | X-H torsion
[ 8756 4877 4876 4875 ] final  138.74 input    0.00 | X-H torsion

> <Gold.Protein.ActiveResidues>
 GLU18   GLY20   LYS21   GLY22   ALA23   PHE24   SER25   VAL26   VAL27   ARG28  
 ILE43   ILE44   ASN45   THR46   LYS47   LYS48   LEU49   SER50   ARG52   ASP53  
 LYS56   ARG59   GLY83   HIS84   GLY95   GLU96   LEU97   PHE98   GLU99   ASP100 
 ILE101  VAL102  ALA103  GLU105  TYR106  HIS133  ARG134  ASN135  LEU136  LYS137 
 PRO138  GLU139  ASN140  ASP156  GLY158  LEU159  ALA160  ILE161  TRP170  PHE171 
 GLY172  PHE173  ALA174  GLY175  THR176  PRO177  GLY178  TYR179  LEU180  VAL184 
 LYS187  TYR190  VAL201  ILE202  TYR204  ILE205  LEU206  VAL208  GLY209  TYR210 
 PRO211  PRO212  PHE213  TRP214  ASP215  GLU216  ASP217  GLN218  HIS219  LEU221 
 TYR222  GLN224  ILE225  ASP231  PHE232  PRO233  SER234  PRO235  GLU236  TRP237 
 ASP238 

> <Gold.Protein.RotatedAtoms>
  -10.8490  -16.4035  -20.3767 H   0  0  0  0  0  0  0  0  0  0  0  0  # atno 546  bound_to 536 
    5.3317  -17.3838  -23.7670 H   0  0  0  0  0  0  0  0  0  0  0  0  # atno 607  bound_to 596 
   17.2047  -17.3460  -28.8615 H   0  0  0  0  0  0  0  0  0  0  0  0  # atno 1287 bound_to 1275
   12.4635   -4.9583  -28.0441 H   0  0  0  0  0  0  0  0  0  0  0  0  # atno 1420 bound_to 1410
    8.7682   -5.4898  -23.1344 H   0  0  0  0  0  0  0  0  0  0  0  0  # atno 1596 bound_to 1580
    7.6210   -6.2376  -22.2007 H   0  0  0  0  0  0  0  0  0  0  0  0  # atno 1597 bound_to 1580
    8.3509   -4.8495  -21.6638 H   0  0  0  0  0  0  0  0  0  0  0  0  # atno 1598 bound_to 1580
  -18.0287  -12.3074  -25.4543 H   0  0  0  0  0  0  0  0  0  0  0  0  # atno 1613 bound_to 1589
  -18.7903  -10.8751  -25.7963 H   0  0  0  0  0  0  0  0  0  0  0  0  # atno 1614 bound_to 1589
  -19.0560  -11.6296  -24.3442 H   0  0  0  0  0  0  0  0  0  0  0  0  # atno 1615 bound_to 1589
   -0.6699  -24.8094  -32.2786 H   0  0  0  0  0  0  0  0  0  0  0  0  # atno 2916 bound_to 2901
   -2.4524  -23.0573  -36.0837 H   0  0  0  0  0  0  0  0  0  0  0  0  # atno 2946 bound_to 2930
    0.1589  -20.7159  -36.7159 H   0  0  0  0  0  0  0  0  0  0  0  0  # atno 2982 bound_to 2971
    1.6225  -21.3442  -33.5999 H   0  0  0  0  0  0  0  0  0  0  0  0  # atno 3018 bound_to 3009
    2.6608  -22.8367  -36.0223 H   0  0  0  0  0  0  0  0  0  0  0  0  # atno 3050 bound_to 3038
    4.4313  -21.3757  -37.1086 H   0  0  0  0  0  0  0  0  0  0  0  0  # atno 3081 bound_to 3062
    5.9676  -20.6343  -36.7669 H   0  0  0  0  0  0  0  0  0  0  0  0  # atno 3115 bound_to 3099
    7.8910  -20.9838  -36.9772 H   0  0  0  0  0  0  0  0  0  0  0  0  # atno 3139 bound_to 3129
    9.0422  -20.4282  -40.4885 H   0  0  0  0  0  0  0  0  0  0  0  0  # atno 3215 bound_to 3201
  -13.3191  -12.2903  -35.0137 H   0  0  0  0  0  0  0  0  0  0  0  0  # atno 4142 bound_to 4128
   -9.8706  -13.0249  -36.0742 H   0  0  0  0  0  0  0  0  0  0  0  0  # atno 4166 bound_to 4156
   -7.4936  -14.2578  -36.6074 H   0  0  0  0  0  0  0  0  0  0  0  0  # atno 4204 bound_to 4195
   -6.8854  -13.9587  -29.5907 H   0  0  0  0  0  0  0  0  0  0  0  0  # atno 4214 bound_to 4203
   -5.3036  -13.6957  -30.0113 H   0  0  0  0  0  0  0  0  0  0  0  0  # atno 4215 bound_to 4203
   -6.4861  -12.6623  -30.5427 H   0  0  0  0  0  0  0  0  0  0  0  0  # atno 4216 bound_to 4203
   -4.0628  -12.5548  -15.5160 H   0  0  0  0  0  0  0  0  0  0  0  0  # atno 4227 bound_to 4194
   -3.3728  -11.0832  -15.1905 H   0  0  0  0  0  0  0  0  0  0  0  0  # atno 4228 bound_to 4194
   -2.5139  -12.2378  -16.0130 H   0  0  0  0  0  0  0  0  0  0  0  0  # atno 4229 bound_to 4194
   -2.6692  -17.2741  -34.0853 H   0  0  0  0  0  0  0  0  0  0  0  0  # atno 4281 bound_to 4267
   -5.7117  -18.0574  -34.1242 H   0  0  0  0  0  0  0  0  0  0  0  0  # atno 4310 bound_to 4296
  -15.1661  -17.7130  -30.6821 H   0  0  0  0  0  0  0  0  0  0  0  0  # atno 4825 bound_to 4821
  -15.4262  -15.3817  -29.8468 H   0  0  0  0  0  0  0  0  0  0  0  0  # atno 4847 bound_to 4839
  -17.7403  -15.6772  -32.0504 H   0  0  0  0  0  0  0  0  0  0  0  0  # atno 4879 bound_to 4874
  -21.2149   -5.1869  -32.4899 H   0  0  0  0  0  0  0  0  0  0  0  0  # atno 5250 bound_to 5243
  -18.1018   -2.7758  -30.7177 H   0  0  0  0  0  0  0  0  0  0  0  0  # atno 5284 bound_to 5264
  -15.8686   -5.8076  -31.5336 H   0  0  0  0  0  0  0  0  0  0  0  0  # atno 5308 bound_to 5298
  -12.7184   -8.7443  -30.3685 H   0  0  0  0  0  0  0  0  0  0  0  0  # atno 5322 bound_to 5317
   -9.5089   -9.6530  -31.7240 H   0  0  0  0  0  0  0  0  0  0  0  0  # atno 5341 bound_to 5334
   -8.5969  -11.1119  -31.4147 H   0  0  0  0  0  0  0  0  0  0  0  0  # atno 5347 bound_to 5340
   -4.5723   -7.3210  -33.4549 H   0  0  0  0  0  0  0  0  0  0  0  0  # atno 5391 bound_to 5387
   -4.8059   -6.6779  -36.1211 H   0  0  0  0  0  0  0  0  0  0  0  0  # atno 5421 bound_to 5409
   -0.7740  -12.3105  -36.6335 H   0  0  0  0  0  0  0  0  0  0  0  0  # atno 5429 bound_to 5420
   -6.7959   -6.1310  -35.6011 H   0  0  0  0  0  0  0  0  0  0  0  0  # atno 5455 bound_to 5447
  -13.9412    1.7970  -30.1980 H   0  0  0  0  0  0  0  0  0  0  0  0  # atno 5710 bound_to 5690
  -14.1249    3.4261  -30.4377 H   0  0  0  0  0  0  0  0  0  0  0  0  # atno 5711 bound_to 5690
  -14.4489    2.7661  -28.9528 H   0  0  0  0  0  0  0  0  0  0  0  0  # atno 5712 bound_to 5690
  -17.8407   -6.7673  -34.5411 H   0  0  0  0  0  0  0  0  0  0  0  0  # atno 5806 bound_to 5788
    5.3795   -5.6332  -43.5920 H   0  0  0  0  0  0  0  0  0  0  0  0  # atno 6240 bound_to 6222
    2.1487  -12.1612  -43.8703 H   0  0  0  0  0  0  0  0  0  0  0  0  # atno 6268 bound_to 6249
    2.7063  -14.2007  -43.5673 H   0  0  0  0  0  0  0  0  0  0  0  0  # atno 6306 bound_to 6287
    7.4156  -14.0547  -42.9568 H   0  0  0  0  0  0  0  0  0  0  0  0  # atno 6398 bound_to 6391
    7.4283  -12.0954  -40.5046 H   0  0  0  0  0  0  0  0  0  0  0  0  # atno 6434 bound_to 6413
    9.0076   -6.1777  -43.6911 H   0  0  0  0  0  0  0  0  0  0  0  0  # atno 6442 bound_to 6424
    2.1069   -4.5889  -39.9405 H   0  0  0  0  0  0  0  0  0  0  0  0  # atno 6530 bound_to 6510
    1.6905   -2.3146  -36.8652 H   0  0  0  0  0  0  0  0  0  0  0  0  # atno 6577 bound_to 6553
    2.8998   -2.6483  -33.1764 H   0  0  0  0  0  0  0  0  0  0  0  0  # atno 6607 bound_to 6595
    4.9948   -1.0757  -30.8522 H   0  0  0  0  0  0  0  0  0  0  0  0  # atno 6635 bound_to 6620
   -5.9408   -1.0785  -17.7468 H   0  0  0  0  0  0  0  0  0  0  0  0  # atno 6843 bound_to 6822
   -8.2137   -2.5649  -30.1199 H   0  0  0  0  0  0  0  0  0  0  0  0  # atno 6852 bound_to 6834
   12.1754   -2.9987  -48.7888 H   0  0  0  0  0  0  0  0  0  0  0  0  # atno 7213 bound_to 7207
   15.8923   -4.1666  -50.9554 H   0  0  0  0  0  0  0  0  0  0  0  0  # atno 7217 bound_to 7212
   14.4078   -8.5288  -48.0548 H   0  0  0  0  0  0  0  0  0  0  0  0  # atno 7269 bound_to 7260
   11.5490   -7.8572  -49.5444 H   0  0  0  0  0  0  0  0  0  0  0  0  # atno 7309 bound_to 7295
   10.4433   -7.9902  -51.9830 H   0  0  0  0  0  0  0  0  0  0  0  0  # atno 7345 bound_to 7337
    7.7626   -6.9201  -44.4311 LP  0  0  0  0  0  0  0  0  0  0  0  0  # atno 8537 bound_to 6424
    9.2567   -7.5769  -44.4843 LP  0  0  0  0  0  0  0  0  0  0  0  0  # atno 8538 bound_to 6424
    5.7204  -12.4672  -40.6354 LP  0  0  0  0  0  0  0  0  0  0  0  0  # atno 8543 bound_to 6413
    4.4657   -6.5640  -38.9412 LP  0  0  0  0  0  0  0  0  0  0  0  0  # atno 8545 bound_to 6453
    4.5246   -6.2109  -40.6359 LP  0  0  0  0  0  0  0  0  0  0  0  0  # atno 8546 bound_to 6453
    4.9918   -5.1584  -45.0996 LP  0  0  0  0  0  0  0  0  0  0  0  0  # atno 8551 bound_to 6222
    6.0512   -6.3801  -44.8724 LP  0  0  0  0  0  0  0  0  0  0  0  0  # atno 8552 bound_to 6222
    9.6312  -13.6412  -42.6116 LP  0  0  0  0  0  0  0  0  0  0  0  0  # atno 8553 bound_to 6365
    8.9670  -12.2035  -41.9103 LP  0  0  0  0  0  0  0  0  0  0  0  0  # atno 8554 bound_to 6365
    7.3014  -12.6757  -38.0141 LP  0  0  0  0  0  0  0  0  0  0  0  0  # atno 8555 bound_to 6394
    7.2456  -14.3618  -38.4064 LP  0  0  0  0  0  0  0  0  0  0  0  0  # atno 8556 bound_to 6394
    4.8730   -9.3377  -41.6269 LP  0  0  0  0  0  0  0  0  0  0  0  0  # atno 8557 bound_to 6416
    4.2008  -10.9177  -41.3989 LP  0  0  0  0  0  0  0  0  0  0  0  0  # atno 8558 bound_to 6416
   11.0211   -6.3060  -48.9078 LP  0  0  0  0  0  0  0  0  0  0  0  0  # atno 8560 bound_to 7183
   10.5747   -6.2102  -47.2370 LP  0  0  0  0  0  0  0  0  0  0  0  0  # atno 8561 bound_to 7183
   13.6364   -3.7103  -46.8923 LP  0  0  0  0  0  0  0  0  0  0  0  0  # atno 8562 bound_to 7210
   14.8827   -4.7245  -46.2458 LP  0  0  0  0  0  0  0  0  0  0  0  0  # atno 8563 bound_to 7210
   11.5005   -4.4876  -48.1392 LP  0  0  0  0  0  0  0  0  0  0  0  0  # atno 8566 bound_to 7207
   12.9859   -7.7049  -48.6485 LP  0  0  0  0  0  0  0  0  0  0  0  0  # atno 8568 bound_to 7260
    8.7521   -4.6103  -50.3479 LP  0  0  0  0  0  0  0  0  0  0  0  0  # atno 8569 bound_to 7147
    8.9439   -2.9504  -49.8919 LP  0  0  0  0  0  0  0  0  0  0  0  0  # atno 8570 bound_to 7147
   11.0500   -9.4471  -49.0035 LP  0  0  0  0  0  0  0  0  0  0  0  0  # atno 8571 bound_to 7295
   14.6554   -4.5402  -51.9446 LP  0  0  0  0  0  0  0  0  0  0  0  0  # atno 8572 bound_to 7212
   15.0165   -5.5104  -50.6817 LP  0  0  0  0  0  0  0  0  0  0  0  0  # atno 8573 bound_to 7212
   13.9284   -9.5766  -50.7834 LP  0  0  0  0  0  0  0  0  0  0  0  0  # atno 8574 bound_to 7233
   13.3637   -8.0170  -51.2824 LP  0  0  0  0  0  0  0  0  0  0  0  0  # atno 8575 bound_to 7233
    2.1622   -3.9664  -37.2092 LP  0  0  0  0  0  0  0  0  0  0  0  0  # atno 8576 bound_to 6553
    3.8110   -0.3434  -35.2692 LP  0  0  0  0  0  0  0  0  0  0  0  0  # atno 8577 bound_to 6556
    4.2831   -1.7773  -36.1182 LP  0  0  0  0  0  0  0  0  0  0  0  0  # atno 8578 bound_to 6556
    0.7105   -5.2470  -35.7084 LP  0  0  0  0  0  0  0  0  0  0  0  0  # atno 8581 bound_to 6513
    0.6244   -5.9080  -37.3070 LP  0  0  0  0  0  0  0  0  0  0  0  0  # atno 8582 bound_to 6513
    2.0477   -1.4553  -34.1418 LP  0  0  0  0  0  0  0  0  0  0  0  0  # atno 8583 bound_to 6595
    0.5828   -5.4396  -39.7533 LP  0  0  0  0  0  0  0  0  0  0  0  0  # atno 8585 bound_to 6510
    1.8086   -2.8895  -41.7657 LP  0  0  0  0  0  0  0  0  0  0  0  0  # atno 8586 bound_to 6481
    2.9898   -2.9016  -40.4990 LP  0  0  0  0  0  0  0  0  0  0  0  0  # atno 8587 bound_to 6481
    1.8991   -1.4858  -29.7657 LP  0  0  0  0  0  0  0  0  0  0  0  0  # atno 8588 bound_to 6598
    1.5788   -2.0038  -31.3872 LP  0  0  0  0  0  0  0  0  0  0  0  0  # atno 8589 bound_to 6598
    3.5179   -0.1284  -30.7765 LP  0  0  0  0  0  0  0  0  0  0  0  0  # atno 8590 bound_to 6620
   13.8159   -5.7623  -27.6296 LP  0  0  0  0  0  0  0  0  0  0  0  0  # atno 8605 bound_to 1410
   12.5094   -6.5798  -28.1695 LP  0  0  0  0  0  0  0  0  0  0  0  0  # atno 8606 bound_to 1410
   16.9695  -16.6359  -30.3069 LP  0  0  0  0  0  0  0  0  0  0  0  0  # atno 8617 bound_to 1275
   15.8533  -17.6673  -29.7094 LP  0  0  0  0  0  0  0  0  0  0  0  0  # atno 8618 bound_to 1275
   10.1492  -19.2256  -35.5889 LP  0  0  0  0  0  0  0  0  0  0  0  0  # atno 8621 bound_to 3102
   10.0383  -19.6455  -37.2656 LP  0  0  0  0  0  0  0  0  0  0  0  0  # atno 8622 bound_to 3102
    5.9750  -13.1536  -42.5359 LP  0  0  0  0  0  0  0  0  0  0  0  0  # atno 8623 bound_to 6391
   -1.4865  -13.3635  -35.6180 LP  0  0  0  0  0  0  0  0  0  0  0  0  # atno 8624 bound_to 5420
   -0.8350  -11.9817  -35.0411 LP  0  0  0  0  0  0  0  0  0  0  0  0  # atno 8625 bound_to 5420
    3.7791  -20.0578  -36.2970 LP  0  0  0  0  0  0  0  0  0  0  0  0  # atno 8626 bound_to 2974
    3.8231  -18.8958  -35.0133 LP  0  0  0  0  0  0  0  0  0  0  0  0  # atno 8627 bound_to 2974
    5.5784  -19.0001  -37.2586 LP  0  0  0  0  0  0  0  0  0  0  0  0  # atno 8632 bound_to 3099
    7.3881  -19.8265  -39.5637 LP  0  0  0  0  0  0  0  0  0  0  0  0  # atno 8633 bound_to 3065
    7.5842  -18.4373  -38.5481 LP  0  0  0  0  0  0  0  0  0  0  0  0  # atno 8634 bound_to 3065
    7.2078  -16.9684  -40.7253 LP  0  0  0  0  0  0  0  0  0  0  0  0  # atno 8635 bound_to 3204
    8.6594  -16.0335  -40.5872 LP  0  0  0  0  0  0  0  0  0  0  0  0  # atno 8636 bound_to 3204
    4.4753  -15.5788  -42.0705 LP  0  0  0  0  0  0  0  0  0  0  0  0  # atno 8637 bound_to 6252
    4.9904  -14.0135  -42.6039 LP  0  0  0  0  0  0  0  0  0  0  0  0  # atno 8638 bound_to 6252
   -0.6109  -20.9722  -35.1593 LP  0  0  0  0  0  0  0  0  0  0  0  0  # atno 8639 bound_to 2971
    2.3727  -20.8436  -35.1073 LP  0  0  0  0  0  0  0  0  0  0  0  0  # atno 8640 bound_to 3009
    0.8981  -11.8491  -42.6820 LP  0  0  0  0  0  0  0  0  0  0  0  0  # atno 8644 bound_to 6249
    1.4859  -15.0078  -42.6048 LP  0  0  0  0  0  0  0  0  0  0  0  0  # atno 8645 bound_to 6287
   -0.4583  -11.4731  -42.9087 LP  0  0  0  0  0  0  0  0  0  0  0  0  # atno 8646 bound_to 6101
   -0.4461  -10.7272  -41.3456 LP  0  0  0  0  0  0  0  0  0  0  0  0  # atno 8647 bound_to 6101
   -0.5462  -15.5239  -42.9318 LP  0  0  0  0  0  0  0  0  0  0  0  0  # atno 8648 bound_to 6134
    0.3514  -14.0443  -43.0031 LP  0  0  0  0  0  0  0  0  0  0  0  0  # atno 8649 bound_to 6134
    1.9720  -20.5288  -37.5010 LP  0  0  0  0  0  0  0  0  0  0  0  0  # atno 8650 bound_to 2933
    1.8594  -22.2547  -37.5927 LP  0  0  0  0  0  0  0  0  0  0  0  0  # atno 8651 bound_to 2933
    6.1427  -23.3847  -35.1000 LP  0  0  0  0  0  0  0  0  0  0  0  0  # atno 8652 bound_to 3012
    6.0620  -21.6560  -35.0303 LP  0  0  0  0  0  0  0  0  0  0  0  0  # atno 8653 bound_to 3012
    3.8092  -21.9964  -38.6237 LP  0  0  0  0  0  0  0  0  0  0  0  0  # atno 8654 bound_to 3062
    7.9072  -21.1267  -35.2293 LP  0  0  0  0  0  0  0  0  0  0  0  0  # atno 8655 bound_to 3129
   -3.8964  -18.1922  -34.9360 LP  0  0  0  0  0  0  0  0  0  0  0  0  # atno 8656 bound_to 4267
   -3.7721   -5.8190  -33.0488 LP  0  0  0  0  0  0  0  0  0  0  0  0  # atno 8657 bound_to 5387
    2.6988    0.0599  -26.3437 LP  0  0  0  0  0  0  0  0  0  0  0  0  # atno 8658 bound_to 6623
    2.0143   -1.2787  -27.2037 LP  0  0  0  0  0  0  0  0  0  0  0  0  # atno 8659 bound_to 6623
   -7.5655  -11.0215  -30.1592 LP  0  0  0  0  0  0  0  0  0  0  0  0  # atno 8668 bound_to 5340
   -7.3104  -12.1065  -31.3526 LP  0  0  0  0  0  0  0  0  0  0  0  0  # atno 8669 bound_to 5340
    6.0957  -15.9593  -23.9528 LP  0  0  0  0  0  0  0  0  0  0  0  0  # atno 8672 bound_to 596 
    6.4039  -16.8903  -22.6471 LP  0  0  0  0  0  0  0  0  0  0  0  0  # atno 8673 bound_to 596 
   -2.7650  -20.1512  -36.3421 LP  0  0  0  0  0  0  0  0  0  0  0  0  # atno 8674 bound_to 4240
   -3.1112  -20.4066  -34.6643 LP  0  0  0  0  0  0  0  0  0  0  0  0  # atno 8675 bound_to 4240
   -5.3681  -21.4200  -32.8329 LP  0  0  0  0  0  0  0  0  0  0  0  0  # atno 8676 bound_to 4270
   -4.9703  -20.6058  -31.3568 LP  0  0  0  0  0  0  0  0  0  0  0  0  # atno 8677 bound_to 4270
   -1.8572  -25.6301  -33.2680 LP  0  0  0  0  0  0  0  0  0  0  0  0  # atno 8686 bound_to 2901
    0.9672  -23.0303  -34.4364 LP  0  0  0  0  0  0  0  0  0  0  0  0  # atno 8687 bound_to 2904
    0.6163  -24.4009  -35.4356 LP  0  0  0  0  0  0  0  0  0  0  0  0  # atno 8688 bound_to 2904
   -5.2089  -19.5501  -33.3442 LP  0  0  0  0  0  0  0  0  0  0  0  0  # atno 8689 bound_to 4296
   -1.0544  -22.7353  -35.0798 LP  0  0  0  0  0  0  0  0  0  0  0  0  # atno 8694 bound_to 2930
    4.2128  -22.9883  -35.2196 LP  0  0  0  0  0  0  0  0  0  0  0  0  # atno 8695 bound_to 3038
   -9.2817   -8.2372  -32.7375 LP  0  0  0  0  0  0  0  0  0  0  0  0  # atno 8697 bound_to 5334
   -7.7538   -7.2444  -33.9638 LP  0  0  0  0  0  0  0  0  0  0  0  0  # atno 8698 bound_to 5337
   -6.1010   -7.7388  -34.1181 LP  0  0  0  0  0  0  0  0  0  0  0  0  # atno 8699 bound_to 5337
   -9.2331   -7.7555  -29.7527 LP  0  0  0  0  0  0  0  0  0  0  0  0  # atno 8700 bound_to 5320
  -10.6103   -8.7681  -29.4733 LP  0  0  0  0  0  0  0  0  0  0  0  0  # atno 8701 bound_to 5320
   -6.0269   -5.0923  -34.8962 LP  0  0  0  0  0  0  0  0  0  0  0  0  # atno 8702 bound_to 5365
   -4.6806   -4.0682  -34.5241 LP  0  0  0  0  0  0  0  0  0  0  0  0  # atno 8703 bound_to 5365
   -4.9730   -8.0484  -35.0333 LP  0  0  0  0  0  0  0  0  0  0  0  0  # atno 8704 bound_to 5409
   -3.5157   -7.5713  -37.9421 LP  0  0  0  0  0  0  0  0  0  0  0  0  # atno 8705 bound_to 5390
   -3.1451   -5.9417  -37.4873 LP  0  0  0  0  0  0  0  0  0  0  0  0  # atno 8706 bound_to 5390
   -7.3845   -7.0858  -36.9428 LP  0  0  0  0  0  0  0  0  0  0  0  0  # atno 8707 bound_to 5447
   -7.1025   -2.0560  -29.0453 LP  0  0  0  0  0  0  0  0  0  0  0  0  # atno 8708 bound_to 6834
   -6.6795   -3.0962  -30.2309 LP  0  0  0  0  0  0  0  0  0  0  0  0  # atno 8709 bound_to 6834
  -12.7324   -7.2542  -31.2938 LP  0  0  0  0  0  0  0  0  0  0  0  0  # atno 8710 bound_to 5317
   -9.0496  -15.2747  -34.9563 LP  0  0  0  0  0  0  0  0  0  0  0  0  # atno 8711 bound_to 4131
   -9.6902  -14.4819  -33.5559 LP  0  0  0  0  0  0  0  0  0  0  0  0  # atno 8712 bound_to 4131
  -13.7839   -6.1889  -32.9707 LP  0  0  0  0  0  0  0  0  0  0  0  0  # atno 8713 bound_to 5301
  -13.4816   -7.8153  -33.4840 LP  0  0  0  0  0  0  0  0  0  0  0  0  # atno 8714 bound_to 5301
  -11.5849  -10.2417  -35.1470 LP  0  0  0  0  0  0  0  0  0  0  0  0  # atno 8715 bound_to 4086
  -13.1559   -9.7215  -34.6358 LP  0  0  0  0  0  0  0  0  0  0  0  0  # atno 8716 bound_to 4086
  -12.4563  -12.8893  -36.4113 LP  0  0  0  0  0  0  0  0  0  0  0  0  # atno 8717 bound_to 4128
  -16.8914  -15.9198  -30.6489 LP  0  0  0  0  0  0  0  0  0  0  0  0  # atno 8722 bound_to 4839
  -13.7492  -17.3924  -32.1631 LP  0  0  0  0  0  0  0  0  0  0  0  0  # atno 8723 bound_to 4764
  -12.4784  -18.2043  -33.0151 LP  0  0  0  0  0  0  0  0  0  0  0  0  # atno 8724 bound_to 4764
  -11.1682  -14.0740  -36.6060 LP  0  0  0  0  0  0  0  0  0  0  0  0  # atno 8725 bound_to 4156
   -7.2325  -12.4586  -36.1928 LP  0  0  0  0  0  0  0  0  0  0  0  0  # atno 8726 bound_to 4159
   -7.7985  -12.3734  -37.8276 LP  0  0  0  0  0  0  0  0  0  0  0  0  # atno 8727 bound_to 4159
   -7.2947  -15.9620  -37.0062 LP  0  0  0  0  0  0  0  0  0  0  0  0  # atno 8728 bound_to 4195
   -7.5077  -19.8467  -23.1234 LP  0  0  0  0  0  0  0  0  0  0  0  0  # atno 8729 bound_to 485 
   -8.8294  -18.7289  -23.0628 LP  0  0  0  0  0  0  0  0  0  0  0  0  # atno 8730 bound_to 485 
  -16.6450  -18.6479  -30.8004 LP  0  0  0  0  0  0  0  0  0  0  0  0  # atno 8731 bound_to 4821
  -15.7513   -6.1758  -28.4762 LP  0  0  0  0  0  0  0  0  0  0  0  0  # atno 8732 bound_to 5267
  -15.8559   -4.4781  -28.1490 LP  0  0  0  0  0  0  0  0  0  0  0  0  # atno 8733 bound_to 5267
  -14.7379   -4.9677  -30.4876 LP  0  0  0  0  0  0  0  0  0  0  0  0  # atno 8734 bound_to 5298
  -18.1326   -4.4573  -30.2242 LP  0  0  0  0  0  0  0  0  0  0  0  0  # atno 8735 bound_to 5264
  -18.4683  -14.8481  -28.9243 LP  0  0  0  0  0  0  0  0  0  0  0  0  # atno 8736 bound_to 4824
  -17.3998  -15.2051  -27.6087 LP  0  0  0  0  0  0  0  0  0  0  0  0  # atno 8737 bound_to 4824
  -18.6875  -12.4295  -32.7173 LP  0  0  0  0  0  0  0  0  0  0  0  0  # atno 8738 bound_to 4842
  -17.0736  -11.8430  -32.4906 LP  0  0  0  0  0  0  0  0  0  0  0  0  # atno 8739 bound_to 4842
  -17.0455   -4.2612  -32.8629 LP  0  0  0  0  0  0  0  0  0  0  0  0  # atno 8742 bound_to 5246
  -18.5689   -5.0263  -33.1692 LP  0  0  0  0  0  0  0  0  0  0  0  0  # atno 8743 bound_to 5246
  -17.2923  -14.0089  -32.3505 LP  0  0  0  0  0  0  0  0  0  0  0  0  # atno 8752 bound_to 4874
  -21.5834   -6.3073  -30.9362 LP  0  0  0  0  0  0  0  0  0  0  0  0  # atno 8753 bound_to 5213
  -21.1306   -7.3339  -32.2557 LP  0  0  0  0  0  0  0  0  0  0  0  0  # atno 8754 bound_to 5213
  -20.6250   -3.7010  -33.2090 LP  0  0  0  0  0  0  0  0  0  0  0  0  # atno 8755 bound_to 5243
  -21.0070  -13.6344  -32.3436 LP  0  0  0  0  0  0  0  0  0  0  0  0  # atno 8756 bound_to 4877
  -20.4617  -15.2715  -32.1927 LP  0  0  0  0  0  0  0  0  0  0  0  0  # atno 8757 bound_to 4877

> <Gold.Score>
     Fitness  S(hb_ext) S(vdw_ext)  S(hb_int)    S(int)      intcor
     18.83       7.11       9.06       0.00      -0.74      -0.76

> <Gold.Goldscore.Fitness>
18.8313

> <Gold.Goldscore.Internal.Vdw>
-0.9924

> <Gold.Goldscore.Internal.Torsion>
-0.5078

> <Gold.Goldscore.External.Vdw>
9.0577

> <Gold.Goldscore.Internal.HBond>
0.0000

> <Gold.Goldscore.External.HBond>
7.1123

> <Gold.Goldscore.Internal.Correction>
-0.7650

> <Gold.Goldscore.Hbonds>
donor molecule, donor type, donor heavy atom, donor atom, acceptor molecule, acceptor atom, score
      P1  H  4203  4214       L1    11  0.11
      P1  H  4134  4146       L1    11  0.20
      L1  H     8    22       P1   485  0.02
      L1  H    10    23       P1  4303  1.00

> <Gold.Goldscore.Internal.Vdw.Weighted>
-0.9924

> <Gold.Goldscore.Internal.Torsion.Weighted>
-0.5078

> <Gold.Goldscore.External.Vdw.Weighted>
12.4543

> <Gold.Goldscore.Internal.HBond.Weighted>
0.0000

> <Gold.Goldscore.External.HBond.Weighted>
7.1123

> <Gold.Goldscore.Internal.Correction.Weighted>
-0.7650

> <Gold.Rescore>
     Score     S(PLP)   S(hbond)     S(cho)   S(metal)  DE(clash)   DE(tors)     intcor
     12.11      -7.80       1.99       0.00       0.00       0.07       0.80       ----

> <Gold.PLP.Fitness>
12.1140

> <Gold.PLP.PLP>
-7.8045

> <Gold.PLP.part.hbond>
-2.0000

> <Gold.PLP.part.metal>
0.0000

> <Gold.PLP.part.buried>
-1.5185

> <Gold.PLP.part.nonpolar>
-4.9453

> <Gold.PLP.part.repulsive>
0.3019

> <Gold.PLP.ligand.clash>
0.0693

> <Gold.PLP.ligand.torsion>
0.7986

> <Gold.PLP.Chemscore.Hbond>
1.9920

> <Gold.PLP.Chemscore.CHOScore>
0.0000

> <Gold.PLP.Chemscore.Metal>
0.0000

> <Gold.Chemscore.Hbonds>
donor molecule, donor type, donor heavy atom, donor atom, acceptor molecule, acceptor atom, score
      L1  H    10    23       P1  4303  0.47
      P1  H  4203  4214       L1    11  0.75
      P1  H  4134  4146       L1    11  0.99

> <Gold.PLP.Chemscore.Internal.Correction>
   9.000000E+99

