#       Name:                CT1002167954
#       Creating user name   hitesit
#       Creation time:       Sun Apr 16 02:24:04 2023


#       File generated by GOLD software.
#

@<TRIPOS>MOLECULE
CT1002167954|ligand_prepared|mol2|1|dock9
    29    30     1
SMALL
NO_CHARGES


@<TRIPOS>ATOM
      1 C1          -2.1483 -14.4848 -26.4662 C.3            1 RES1               0.0000
      2 C2          -3.0174 -15.5794 -25.8142 C.ar           1 RES1               0.0000
      3 C3          -0.7808 -14.5666 -25.7942 C.2            1 RES1               0.0000
      4 C4          -2.1267 -14.7904 -27.9598 C.2            1 RES1               0.0000
      5 C5          -2.7024 -13.0531 -26.2794 C.3            1 RES1               0.0000
      6 C6          -3.1855 -16.8138 -26.4345 C.ar           1 RES1               0.0000
      7 C7          -3.6542 -15.3709 -24.5937 C.ar           1 RES1               0.0000
      8 N8           0.2457 -15.1035 -26.5138 N.am           1 RES1               0.0000
      9 O9          -0.6148 -14.2021 -24.6366 O.2            1 RES1               0.0000
     10 N10         -0.9309 -15.1492 -28.5246 N.am           1 RES1               0.0000
     11 O11         -3.1378 -14.7398 -28.6493 O.2            1 RES1               0.0000
     12 C12         -2.0772 -12.0272 -27.2114 C.3            1 RES1               0.0000
     13 C13         -3.9596 -17.8050 -25.8542 C.ar           1 RES1               0.0000
     14 C14         -4.4281 -16.3633 -24.0153 C.ar           1 RES1               0.0000
     15 C15          0.2501 -15.3495 -27.8633 C.2            1 RES1               0.0000
     16 C16         -4.5810 -17.5806 -24.6442 C.ar           1 RES1               0.0000
     17 O17          1.2709 -15.7251 -28.4325 O.2            1 RES1               0.0000
     18 H18         -3.7862 -13.0692 -26.4481 H              1 RES1               0.0000
     19 H19         -2.5291 -12.7399 -25.2424 H              1 RES1               0.0000
     20 H20         -2.7062 -17.0077 -27.3883 H              1 RES1               0.0000
     21 H21         -3.5489 -14.4206 -24.0814 H              1 RES1               0.0000
     22 H22          1.0880 -15.3445 -26.0011 H              1 RES1               0.0000
     23 H23         -0.9201 -15.2789 -29.5312 H              1 RES1               0.0000
     24 H24         -2.5013 -11.0402 -27.0388 H              1 RES1               0.0000
     25 H25         -1.0024 -11.9666 -27.0532 H              1 RES1               0.0000
     26 H26         -2.2521 -12.2940 -28.2517 H              1 RES1               0.0000
     27 H27         -4.0779 -18.7608 -26.3539 H              1 RES1               0.0000
     28 H28         -4.9158 -16.1822 -23.0632 H              1 RES1               0.0000
     29 H29         -5.1871 -18.3574 -24.1897 H              1 RES1               0.0000
@<TRIPOS>BOND
    1    1    2 1     
    2    1    3 1     
    3    1    4 1     
    4    1    5 1     
    5    2    6 ar    
    6    2    7 ar    
    7    3    8 1     
    8    3    9 2     
    9    4   10 1     
   10    4   11 2     
   11    5   12 1     
   12    5   18 1     
   13    5   19 1     
   14    6   13 ar    
   15    6   20 1     
   16    7   14 ar    
   17    7   21 1     
   18    8   15 1     
   19    8   22 1     
   20   10   15 1     
   21   10   23 1     
   22   12   24 1     
   23   12   25 1     
   24   12   26 1     
   25   13   16 ar    
   26   13   27 1     
   27   14   16 ar    
   28   14   28 1     
   29   15   17 2     
   30   16   29 1     
@<TRIPOS>SUBSTRUCTURE
      1 RES1           1
@<TRIPOS>SET
DONOR_HYDROGENS      STATIC     ATOMS    <user>   **** ""
2 22 23
ATOM$RED        STATIC     ATOMS    COLORGROUP SYSTEM
2 22 23
@<TRIPOS>COMMENT
> <Gold.Version>
2022.3.0

> <Gold.Id.Protein>
unknown|7kl0_clean|pdb

> <Gold.Protein.RotatedTorsions>
[ 6442 6424 6423 6421 ] final  173.89 input   59.99 | X-H torsion
[ 6434 6413 6414 6415 ] final  -27.41 input   40.09 | X-H torsion
[ 6240 6222 6221 6219 ] final   33.29 input   60.01 | X-H torsion
[ 7213 7207 7208 7209 ] final   88.96 input  101.61 | X-H torsion
[ 7269 7260 7261 7262 ] final   94.99 input  118.90 | X-H torsion
[ 7309 7295 7296 7297 ] final  -49.54 input   89.68 | X-H torsion
[ 7217 7212 7211 7208 ] final  -86.23 input   60.02 | X-H torsion
[ 6577 6553 6554 6555 ] final   81.59 input   19.71 | X-H torsion
[ 6607 6595 6596 6597 ] final  -89.46 input   28.67 | X-H torsion
[ 6530 6510 6511 6512 ] final -166.13 input   51.84 | X-H torsion
[ 6635 6620 6621 6622 ] final  149.66 input  122.94 | X-H torsion
[ 1420 1410 1409 1406 ] final  -42.63 input   60.02 | X-H torsion
[ 1287 1275 1273 1270 ] final   45.95 input   60.01 | X-H torsion
[ 6398 6391 6392 6393 ] final  -29.79 input  -98.70 | X-H torsion
[ 5429 5420 5419 5417 ] final  -49.69 input   59.99 | X-H torsion
[ 3115 3099 3100 3101 ] final  154.01 input  111.82 | X-H torsion
[ 2982 2971 2972 2973 ] final  126.36 input  134.80 | X-H torsion
[ 3018 3009 3010 3011 ] final  -32.06 input  114.19 | X-H torsion
[ 6268 6249 6250 6251 ] final   59.52 input  122.80 | X-H torsion
[ 6306 6287 6288 6289 ] final   46.41 input  127.97 | X-H torsion
[ 3081 3062 3063 3064 ] final -147.03 input  114.53 | X-H torsion
[ 3139 3129 3130 3131 ] final   42.21 input  112.52 | X-H torsion
[ 4214 4203 4202 4201 ] final  -93.28 input   60.00 | X-H torsion
[ 4281 4267 4268 4269 ] final  -74.43 input  109.79 | X-H torsion
[ 5391 5387 5388 5389 ] final  -50.08 input  115.86 | X-H torsion
[ 1596 1580 1579 1578 ] final   59.99 input   59.99 | X-H torsion
[ 5347 5340 5338 5335 ] final  -58.11 input   60.02 | X-H torsion
[  607  596  595  592 ] final  110.65 input   60.02 | X-H torsion
[ 2916 2901 2902 2903 ] final   -9.65 input  112.69 | X-H torsion
[ 4310 4296 4297 4298 ] final   37.19 input   86.41 | X-H torsion
[ 2946 2930 2931 2932 ] final -160.46 input  126.41 | X-H torsion
[ 3050 3038 3039 3040 ] final -148.31 input  116.07 | X-H torsion
[ 5341 5334 5335 5336 ] final  108.54 input   67.75 | X-H torsion
[ 5421 5409 5410 5411 ] final  135.13 input   64.82 | X-H torsion
[ 5455 5447 5448 5449 ] final   81.89 input  110.01 | X-H torsion
[ 6852 6834 6833 6831 ] final  179.53 input   59.99 | X-H torsion
[ 5322 5317 5318 5319 ] final -131.78 input  -36.16 | X-H torsion
[ 4142 4128 4129 4130 ] final   62.62 input   37.30 | X-H torsion
[ 4847 4839 4840 4841 ] final -160.26 input   74.58 | X-H torsion
[ 4166 4156 4157 4158 ] final  -50.88 input  113.65 | X-H torsion
[ 4204 4195 4196 4197 ] final   85.92 input    7.17 | X-H torsion
[ 4825 4821 4822 4823 ] final  128.73 input  114.67 | X-H torsion
[ 5308 5298 5299 5300 ] final -136.85 input   26.27 | X-H torsion
[ 1613 1589 1588 1587 ] final  -31.41 input   59.99 | X-H torsion
[ 5284 5264 5265 5266 ] final  145.37 input   91.93 | X-H torsion
[ 4879 4874 4875 4876 ] final   10.72 input  114.78 | X-H torsion
[ 5250 5243 5244 5245 ] final   73.58 input  -68.46 | X-H torsion
[ 5710 5690 5689 5688 ] final  -93.26 input   60.02 | X-H torsion
[ 7345 7337 7338 7339 ] final  121.99 input  116.36 | X-H torsion
[ 3215 3201 3202 3203 ] final  151.16 input -100.55 | X-H torsion
[ 4227 4194 4193 4192 ] final   33.28 input   60.00 | X-H torsion
[  546  536  537  538 ] final  155.15 input  119.99 | X-H torsion
[ 6843 6822 6821 6819 ] final  -79.25 input   59.97 | X-H torsion
[ 5806 5788 5787 5785 ] final   19.19 input   59.97 | X-H torsion
[ 8545 6453 6452 6451 ] final -156.09 input   -0.00 | X-H torsion
[ 8553 6365 6364 6363 ] final -156.09 input    0.00 | X-H torsion
[ 8555 6394 6393 6392 ] final    2.81 input    0.00 | X-H torsion
[ 8557 6416 6415 6414 ] final   57.66 input    0.00 | X-H torsion
[ 8560 7183 7182 7181 ] final   12.66 input   -0.00 | X-H torsion
[ 8562 7210 7209 7208 ] final -172.97 input    0.00 | X-H torsion
[ 8569 7147 7146 7145 ] final   88.59 input    0.00 | X-H torsion
[ 8574 7233 7232 7231 ] final   95.62 input   -0.00 | X-H torsion
[ 8577 6556 6555 6554 ] final -102.66 input    0.00 | X-H torsion
[ 8581 6513 6512 6511 ] final  156.09 input    0.00 | X-H torsion
[ 8586 6481 6480 6479 ] final   -9.84 input    0.00 | X-H torsion
[ 8588 6598 6597 6596 ] final    9.84 input   -0.00 | X-H torsion
[ 8621 3102 3101 3100 ] final   23.91 input    0.00 | X-H torsion
[ 8626 2974 2973 2972 ] final   61.87 input   -0.00 | X-H torsion
[ 8633 3065 3064 3063 ] final   11.25 input    0.00 | X-H torsion
[ 8635 3204 3203 3202 ] final   88.59 input   -0.00 | X-H torsion
[ 8637 6252 6251 6250 ] final  108.28 input    0.00 | X-H torsion
[ 8646 6101 6100 6099 ] final   59.06 input    0.00 | X-H torsion
[ 8648 6134 6133 6132 ] final   26.72 input    0.00 | X-H torsion
[ 8650 2933 2932 2931 ] final   59.06 input    0.00 | X-H torsion
[ 8652 3012 3011 3010 ] final  101.25 input    0.00 | X-H torsion
[ 8658 6623 6622 6621 ] final  136.41 input    0.00 | X-H torsion
[ 8674 4240 4239 4238 ] final   64.69 input    0.00 | X-H torsion
[ 8676 4270 4269 4268 ] final    5.62 input    0.00 | X-H torsion
[ 8687 2904 2903 2902 ] final -112.50 input    0.00 | X-H torsion
[ 8698 5337 5336 5335 ] final -146.25 input    0.00 | X-H torsion
[ 8700 5320 5319 5318 ] final   -8.44 input    0.00 | X-H torsion
[ 8702 5365 5364 5363 ] final   14.06 input   -0.00 | X-H torsion
[ 8705 5390 5389 5388 ] final -153.28 input   -0.00 | X-H torsion
[ 8711 4131 4130 4129 ] final  -56.25 input    0.00 | X-H torsion
[ 8713 5301 5300 5299 ] final   40.78 input    0.00 | X-H torsion
[ 8715 4086 4085 4084 ] final  -94.22 input    0.00 | X-H torsion
[ 8723 4764 4763 4762 ] final  143.44 input    0.00 | X-H torsion
[ 8726 4159 4158 4157 ] final  -40.78 input    0.00 | X-H torsion
[ 8729  485  484  483 ] final -129.37 input    0.00 | X-H torsion
[ 8732 5267 5266 5265 ] final   90.00 input    0.00 | X-H torsion
[ 8736 4824 4823 4822 ] final -172.97 input   -0.00 | X-H torsion
[ 8738 4842 4841 4840 ] final  -66.09 input    0.00 | X-H torsion
[ 8742 5246 5245 5244 ] final -105.47 input    0.00 | X-H torsion
[ 8753 5213 5212 5211 ] final -171.56 input   -0.00 | X-H torsion
[ 8756 4877 4876 4875 ] final  -15.47 input    0.00 | X-H torsion

> <Gold.Protein.ActiveResidues>
 GLU18   GLY20   LYS21   GLY22   ALA23   PHE24   SER25   VAL26   VAL27   ARG28  
 ILE43   ILE44   ASN45   THR46   LYS47   LYS48   LEU49   SER50   ARG52   ASP53  
 LYS56   ARG59   GLY83   HIS84   GLY95   GLU96   LEU97   PHE98   GLU99   ASP100 
 ILE101  VAL102  ALA103  GLU105  TYR106  HIS133  ARG134  ASN135  LEU136  LYS137 
 PRO138  GLU139  ASN140  ASP156  GLY158  LEU159  ALA160  ILE161  TRP170  PHE171 
 GLY172  PHE173  ALA174  GLY175  THR176  PRO177  GLY178  TYR179  LEU180  VAL184 
 LYS187  TYR190  VAL201  ILE202  TYR204  ILE205  LEU206  VAL208  GLY209  TYR210 
 PRO211  PRO212  PHE213  TRP214  ASP215  GLU216  ASP217  GLN218  HIS219  LEU221 
 TYR222  GLN224  ILE225  ASP231  PHE232  PRO233  SER234  PRO235  GLU236  TRP237 
 ASP238 

> <Gold.Protein.RotatedAtoms>
  -11.6025  -16.1642  -20.8144 H   0  0  0  0  0  0  0  0  0  0  0  0  # atno 546  bound_to 536 
    5.9287  -17.4468  -22.8361 H   0  0  0  0  0  0  0  0  0  0  0  0  # atno 607  bound_to 596 
   16.5909  -16.7801  -30.4479 H   0  0  0  0  0  0  0  0  0  0  0  0  # atno 1287 bound_to 1275
   12.9430   -6.6971  -28.0274 H   0  0  0  0  0  0  0  0  0  0  0  0  # atno 1420 bound_to 1410
    8.6120   -5.7400  -23.1910 H   0  0  0  0  0  0  0  0  0  0  0  0  # atno 1596 bound_to 1580
    7.5770   -6.0880  -21.9440 H   0  0  0  0  0  0  0  0  0  0  0  0  # atno 1597 bound_to 1580
    8.5510   -4.7490  -21.8640 H   0  0  0  0  0  0  0  0  0  0  0  0  # atno 1598 bound_to 1580
  -19.2304  -10.9356  -24.8783 H   0  0  0  0  0  0  0  0  0  0  0  0  # atno 1613 bound_to 1589
  -18.4149  -12.3612  -24.6515 H   0  0  0  0  0  0  0  0  0  0  0  0  # atno 1614 bound_to 1589
  -18.2295  -11.5154  -26.0653 H   0  0  0  0  0  0  0  0  0  0  0  0  # atno 1615 bound_to 1589
   -0.8027  -25.4520  -33.5012 H   0  0  0  0  0  0  0  0  0  0  0  0  # atno 2916 bound_to 2901
   -2.0538  -23.5852  -36.0393 H   0  0  0  0  0  0  0  0  0  0  0  0  # atno 2946 bound_to 2930
   -0.7989  -20.6696  -35.2396 H   0  0  0  0  0  0  0  0  0  0  0  0  # atno 2982 bound_to 2971
    2.4388  -20.8523  -35.1301 H   0  0  0  0  0  0  0  0  0  0  0  0  # atno 3018 bound_to 3009
    3.5967  -23.7188  -35.2444 H   0  0  0  0  0  0  0  0  0  0  0  0  # atno 3050 bound_to 3038
    3.8233  -21.9939  -38.6677 H   0  0  0  0  0  0  0  0  0  0  0  0  # atno 3081 bound_to 3062
    5.2268  -19.3803  -36.4534 H   0  0  0  0  0  0  0  0  0  0  0  0  # atno 3115 bound_to 3099
    7.5962  -21.2789  -36.8977 H   0  0  0  0  0  0  0  0  0  0  0  0  # atno 3139 bound_to 3129
   10.2645  -20.5196  -39.4335 H   0  0  0  0  0  0  0  0  0  0  0  0  # atno 3215 bound_to 3201
  -13.0822  -13.4531  -35.6400 H   0  0  0  0  0  0  0  0  0  0  0  0  # atno 4142 bound_to 4128
  -10.0724  -13.7102  -35.5954 H   0  0  0  0  0  0  0  0  0  0  0  0  # atno 4166 bound_to 4156
   -7.5003  -15.2188  -35.9123 H   0  0  0  0  0  0  0  0  0  0  0  0  # atno 4204 bound_to 4195
   -5.4591  -13.9589  -29.8066 H   0  0  0  0  0  0  0  0  0  0  0  0  # atno 4214 bound_to 4203
   -6.1218  -12.6619  -30.5985 H   0  0  0  0  0  0  0  0  0  0  0  0  # atno 4215 bound_to 4203
   -7.0938  -13.6951  -29.7402 H   0  0  0  0  0  0  0  0  0  0  0  0  # atno 4216 bound_to 4203
   -3.5716  -11.1466  -15.1353 H   0  0  0  0  0  0  0  0  0  0  0  0  # atno 4227 bound_to 4194
   -2.4451  -12.0405  -15.9595 H   0  0  0  0  0  0  0  0  0  0  0  0  # atno 4228 bound_to 4194
   -3.9335  -12.6882  -15.6242 H   0  0  0  0  0  0  0  0  0  0  0  0  # atno 4229 bound_to 4194
   -3.0900  -18.5124  -34.9256 H   0  0  0  0  0  0  0  0  0  0  0  0  # atno 4281 bound_to 4267
   -5.3911  -18.8229  -34.6250 H   0  0  0  0  0  0  0  0  0  0  0  0  # atno 4310 bound_to 4296
  -15.2348  -18.5119  -30.2655 H   0  0  0  0  0  0  0  0  0  0  0  0  # atno 4825 bound_to 4821
  -15.9763  -15.3676  -29.4308 H   0  0  0  0  0  0  0  0  0  0  0  0  # atno 4847 bound_to 4839
  -18.2769  -14.5867  -31.8044 H   0  0  0  0  0  0  0  0  0  0  0  0  # atno 4879 bound_to 4874
  -20.6626   -5.2862  -32.8136 H   0  0  0  0  0  0  0  0  0  0  0  0  # atno 5250 bound_to 5243
  -18.0865   -2.7602  -30.2770 H   0  0  0  0  0  0  0  0  0  0  0  0  # atno 5284 bound_to 5264
  -15.2477   -5.1566  -30.1291 H   0  0  0  0  0  0  0  0  0  0  0  0  # atno 5308 bound_to 5298
  -13.2218   -8.7139  -30.9941 H   0  0  0  0  0  0  0  0  0  0  0  0  # atno 5322 bound_to 5317
   -9.1879   -9.6688  -32.7112 H   0  0  0  0  0  0  0  0  0  0  0  0  # atno 5341 bound_to 5334
   -7.6814  -10.9409  -30.1808 H   0  0  0  0  0  0  0  0  0  0  0  0  # atno 5347 bound_to 5340
   -4.7496   -6.0309  -33.6619 H   0  0  0  0  0  0  0  0  0  0  0  0  # atno 5391 bound_to 5387
   -4.7470   -8.2051  -35.2154 H   0  0  0  0  0  0  0  0  0  0  0  0  # atno 5421 bound_to 5409
   -1.3648  -13.2998  -36.2188 H   0  0  0  0  0  0  0  0  0  0  0  0  # atno 5429 bound_to 5420
   -6.6457   -5.8897  -36.0395 H   0  0  0  0  0  0  0  0  0  0  0  0  # atno 5455 bound_to 5447
  -13.8877    2.0055  -30.4972 H   0  0  0  0  0  0  0  0  0  0  0  0  # atno 5710 bound_to 5690
  -14.2392    3.5809  -30.1234 H   0  0  0  0  0  0  0  0  0  0  0  0  # atno 5711 bound_to 5690
  -14.3882    2.4029  -28.9678 H   0  0  0  0  0  0  0  0  0  0  0  0  # atno 5712 bound_to 5690
  -18.1153   -6.9441  -34.6372 H   0  0  0  0  0  0  0  0  0  0  0  0  # atno 5806 bound_to 5788
    6.0590   -6.4026  -44.2481 H   0  0  0  0  0  0  0  0  0  0  0  0  # atno 6240 bound_to 6222
    0.9506  -12.6977  -43.3260 H   0  0  0  0  0  0  0  0  0  0  0  0  # atno 6268 bound_to 6249
    2.2058  -14.1908  -43.8540 H   0  0  0  0  0  0  0  0  0  0  0  0  # atno 6306 bound_to 6287
    6.2109  -12.9018  -42.4474 H   0  0  0  0  0  0  0  0  0  0  0  0  # atno 6398 bound_to 6391
    5.6877  -12.3099  -40.7807 H   0  0  0  0  0  0  0  0  0  0  0  0  # atno 6434 bound_to 6413
    9.4118   -7.4460  -44.3660 H   0  0  0  0  0  0  0  0  0  0  0  0  # atno 6442 bound_to 6424
    1.1426   -4.4491  -40.5112 H   0  0  0  0  0  0  0  0  0  0  0  0  # atno 6530 bound_to 6510
    2.7829   -3.2569  -37.2884 H   0  0  0  0  0  0  0  0  0  0  0  0  # atno 6577 bound_to 6553
    3.2500   -2.4721  -33.6949 H   0  0  0  0  0  0  0  0  0  0  0  0  # atno 6607 bound_to 6595
    5.1353   -0.6607  -30.8094 H   0  0  0  0  0  0  0  0  0  0  0  0  # atno 6635 bound_to 6620
   -5.8150   -1.5772  -16.9551 H   0  0  0  0  0  0  0  0  0  0  0  0  # atno 6843 bound_to 6822
   -7.7037   -1.9803  -29.1753 H   0  0  0  0  0  0  0  0  0  0  0  0  # atno 6852 bound_to 6834
   12.3107   -3.0005  -48.5033 H   0  0  0  0  0  0  0  0  0  0  0  0  # atno 7213 bound_to 7207
   15.8597   -4.6607  -50.5440 H   0  0  0  0  0  0  0  0  0  0  0  0  # atno 7217 bound_to 7212
   13.2136   -7.7965  -47.6795 H   0  0  0  0  0  0  0  0  0  0  0  0  # atno 7269 bound_to 7260
   11.6463   -9.2796  -49.8146 H   0  0  0  0  0  0  0  0  0  0  0  0  # atno 7309 bound_to 7295
   12.0722   -8.0581  -51.4057 H   0  0  0  0  0  0  0  0  0  0  0  0  # atno 7345 bound_to 7337
    8.7861   -6.1000  -43.6984 LP  0  0  0  0  0  0  0  0  0  0  0  0  # atno 8537 bound_to 6424
    7.8264   -7.1204  -44.5377 LP  0  0  0  0  0  0  0  0  0  0  0  0  # atno 8538 bound_to 6424
    7.3911  -12.2613  -40.3703 LP  0  0  0  0  0  0  0  0  0  0  0  0  # atno 8543 bound_to 6413
    4.0459   -5.6773  -39.9978 LP  0  0  0  0  0  0  0  0  0  0  0  0  # atno 8545 bound_to 6453
    4.9445   -7.0976  -39.5793 LP  0  0  0  0  0  0  0  0  0  0  0  0  # atno 8546 bound_to 6453
    5.0173   -5.2094  -43.8741 LP  0  0  0  0  0  0  0  0  0  0  0  0  # atno 8551 bound_to 6222
    5.3413   -5.5541  -45.4371 LP  0  0  0  0  0  0  0  0  0  0  0  0  # atno 8552 bound_to 6222
    9.1410  -13.4875  -41.6241 LP  0  0  0  0  0  0  0  0  0  0  0  0  # atno 8553 bound_to 6365
    9.4572  -12.3571  -42.8978 LP  0  0  0  0  0  0  0  0  0  0  0  0  # atno 8554 bound_to 6365
    7.4289  -14.3371  -38.4473 LP  0  0  0  0  0  0  0  0  0  0  0  0  # atno 8555 bound_to 6394
    7.1181  -12.7004  -37.9732 LP  0  0  0  0  0  0  0  0  0  0  0  0  # atno 8556 bound_to 6394
    4.4992  -10.9917  -41.4671 LP  0  0  0  0  0  0  0  0  0  0  0  0  # atno 8557 bound_to 6416
    4.5746   -9.2637  -41.5587 LP  0  0  0  0  0  0  0  0  0  0  0  0  # atno 8558 bound_to 6416
    9.9859   -6.0931  -47.8205 LP  0  0  0  0  0  0  0  0  0  0  0  0  # atno 8560 bound_to 7183
   11.6099   -6.4231  -48.3242 LP  0  0  0  0  0  0  0  0  0  0  0  0  # atno 8561 bound_to 7183
   14.9131   -4.6964  -46.2633 LP  0  0  0  0  0  0  0  0  0  0  0  0  # atno 8562 bound_to 7210
   13.6060   -3.7384  -46.8748 LP  0  0  0  0  0  0  0  0  0  0  0  0  # atno 8563 bound_to 7210
   11.3733   -4.4860  -48.4076 LP  0  0  0  0  0  0  0  0  0  0  0  0  # atno 8566 bound_to 7207
   14.1521   -8.4200  -49.0150 LP  0  0  0  0  0  0  0  0  0  0  0  0  # atno 8568 bound_to 7260
    8.6415   -2.9428  -50.0436 LP  0  0  0  0  0  0  0  0  0  0  0  0  # atno 8569 bound_to 7147
    9.0546   -4.6179  -50.1962 LP  0  0  0  0  0  0  0  0  0  0  0  0  # atno 8570 bound_to 7147
   10.9562   -8.0772  -48.7433 LP  0  0  0  0  0  0  0  0  0  0  0  0  # atno 8571 bound_to 7295
   15.1108   -4.0846  -51.8688 LP  0  0  0  0  0  0  0  0  0  0  0  0  # atno 8572 bound_to 7212
   14.5941   -5.4681  -51.1719 LP  0  0  0  0  0  0  0  0  0  0  0  0  # atno 8573 bound_to 7212
   14.1979   -9.4512  -50.9017 LP  0  0  0  0  0  0  0  0  0  0  0  0  # atno 8574 bound_to 7233
   13.0942   -8.1424  -51.1641 LP  0  0  0  0  0  0  0  0  0  0  0  0  # atno 8575 bound_to 7233
    1.1113   -3.0599  -36.8021 LP  0  0  0  0  0  0  0  0  0  0  0  0  # atno 8576 bound_to 6553
    4.7445   -1.3193  -35.2504 LP  0  0  0  0  0  0  0  0  0  0  0  0  # atno 8577 bound_to 6556
    3.3496   -0.8015  -36.1370 LP  0  0  0  0  0  0  0  0  0  0  0  0  # atno 8578 bound_to 6556
    1.3599   -5.6083  -35.9885 LP  0  0  0  0  0  0  0  0  0  0  0  0  # atno 8581 bound_to 6513
   -0.0250   -5.5466  -37.0269 LP  0  0  0  0  0  0  0  0  0  0  0  0  # atno 8582 bound_to 6513
    1.7144   -1.6229  -33.6482 LP  0  0  0  0  0  0  0  0  0  0  0  0  # atno 8583 bound_to 6595
    1.4999   -5.5726  -39.2106 LP  0  0  0  0  0  0  0  0  0  0  0  0  # atno 8585 bound_to 6510
    2.8479   -3.2525  -41.7815 LP  0  0  0  0  0  0  0  0  0  0  0  0  # atno 8586 bound_to 6481
    1.9506   -2.5386  -40.4833 LP  0  0  0  0  0  0  0  0  0  0  0  0  # atno 8587 bound_to 6481
    1.4961   -1.8542  -31.4005 LP  0  0  0  0  0  0  0  0  0  0  0  0  # atno 8588 bound_to 6598
    1.9818   -1.6354  -29.7524 LP  0  0  0  0  0  0  0  0  0  0  0  0  # atno 8589 bound_to 6598
    3.3846   -0.5222  -30.8171 LP  0  0  0  0  0  0  0  0  0  0  0  0  # atno 8590 bound_to 6620
   12.1520   -5.2838  -28.1819 LP  0  0  0  0  0  0  0  0  0  0  0  0  # atno 8605 bound_to 1410
   13.6902   -5.3064  -27.6340 LP  0  0  0  0  0  0  0  0  0  0  0  0  # atno 8606 bound_to 1410
   16.0008  -17.8033  -29.3283 LP  0  0  0  0  0  0  0  0  0  0  0  0  # atno 8617 bound_to 1275
   17.4402  -17.0699  -29.0903 LP  0  0  0  0  0  0  0  0  0  0  0  0  # atno 8618 bound_to 1275
    9.8500  -18.7012  -36.0382 LP  0  0  0  0  0  0  0  0  0  0  0  0  # atno 8621 bound_to 3102
   10.3376  -20.1698  -36.8164 LP  0  0  0  0  0  0  0  0  0  0  0  0  # atno 8622 bound_to 3102
    7.1391  -14.2677  -43.0282 LP  0  0  0  0  0  0  0  0  0  0  0  0  # atno 8623 bound_to 6391
   -1.1334  -12.4813  -34.8317 LP  0  0  0  0  0  0  0  0  0  0  0  0  # atno 8624 bound_to 5420
   -0.5931  -11.8675  -36.2452 LP  0  0  0  0  0  0  0  0  0  0  0  0  # atno 8625 bound_to 5420
    3.6781  -18.7694  -35.1709 LP  0  0  0  0  0  0  0  0  0  0  0  0  # atno 8626 bound_to 2974
    3.9242  -20.1841  -36.1394 LP  0  0  0  0  0  0  0  0  0  0  0  0  # atno 8627 bound_to 2974
    6.2951  -20.2133  -37.5619 LP  0  0  0  0  0  0  0  0  0  0  0  0  # atno 8632 bound_to 3099
    6.9753  -19.1215  -39.7551 LP  0  0  0  0  0  0  0  0  0  0  0  0  # atno 8633 bound_to 3065
    7.9970  -19.1423  -38.3567 LP  0  0  0  0  0  0  0  0  0  0  0  0  # atno 8634 bound_to 3065
    8.5836  -15.9932  -40.9204 LP  0  0  0  0  0  0  0  0  0  0  0  0  # atno 8635 bound_to 3204
    7.2836  -17.0087  -40.3921 LP  0  0  0  0  0  0  0  0  0  0  0  0  # atno 8636 bound_to 3204
    4.4773  -15.4369  -41.8137 LP  0  0  0  0  0  0  0  0  0  0  0  0  # atno 8637 bound_to 6252
    4.9884  -14.1553  -42.8607 LP  0  0  0  0  0  0  0  0  0  0  0  0  # atno 8638 bound_to 6252
    0.3002  -21.0163  -36.5636 LP  0  0  0  0  0  0  0  0  0  0  0  0  # atno 8639 bound_to 2971
    1.5989  -21.3099  -33.6568 LP  0  0  0  0  0  0  0  0  0  0  0  0  # atno 8640 bound_to 3009
    2.0466  -11.3347  -43.2037 LP  0  0  0  0  0  0  0  0  0  0  0  0  # atno 8644 bound_to 6249
    1.9684  -15.0174  -42.3284 LP  0  0  0  0  0  0  0  0  0  0  0  0  # atno 8645 bound_to 6287
   -0.4427  -10.6198  -41.4066 LP  0  0  0  0  0  0  0  0  0  0  0  0  # atno 8646 bound_to 6101
   -0.4617  -11.5805  -42.8477 LP  0  0  0  0  0  0  0  0  0  0  0  0  # atno 8647 bound_to 6101
   -0.4202  -15.1177  -42.2363 LP  0  0  0  0  0  0  0  0  0  0  0  0  # atno 8648 bound_to 6134
    0.2255  -14.4506  -43.6985 LP  0  0  0  0  0  0  0  0  0  0  0  0  # atno 8649 bound_to 6134
    1.5311  -21.2146  -38.3023 LP  0  0  0  0  0  0  0  0  0  0  0  0  # atno 8650 bound_to 2933
    2.3003  -21.5689  -36.7914 LP  0  0  0  0  0  0  0  0  0  0  0  0  # atno 8651 bound_to 2933
    6.1456  -23.3580  -34.8497 LP  0  0  0  0  0  0  0  0  0  0  0  0  # atno 8652 bound_to 3012
    6.0592  -21.6827  -35.2807 LP  0  0  0  0  0  0  0  0  0  0  0  0  # atno 8653 bound_to 3012
    4.3949  -21.4009  -37.1219 LP  0  0  0  0  0  0  0  0  0  0  0  0  # atno 8654 bound_to 3062
    8.1891  -20.8446  -35.3053 LP  0  0  0  0  0  0  0  0  0  0  0  0  # atno 8655 bound_to 3129
   -3.4925  -17.0035  -34.1294 LP  0  0  0  0  0  0  0  0  0  0  0  0  # atno 8656 bound_to 4267
   -3.6003   -7.0692  -32.8482 LP  0  0  0  0  0  0  0  0  0  0  0  0  # atno 8657 bound_to 5387
    2.3235    0.2021  -26.4729 LP  0  0  0  0  0  0  0  0  0  0  0  0  # atno 8658 bound_to 6623
    2.3896   -1.4208  -27.0744 LP  0  0  0  0  0  0  0  0  0  0  0  0  # atno 8659 bound_to 6623
   -7.2256  -12.0907  -31.2384 LP  0  0  0  0  0  0  0  0  0  0  0  0  # atno 8668 bound_to 5340
   -8.5722  -11.2096  -31.5159 LP  0  0  0  0  0  0  0  0  0  0  0  0  # atno 8669 bound_to 5340
    5.3938  -16.7837  -24.2223 LP  0  0  0  0  0  0  0  0  0  0  0  0  # atno 8672 bound_to 596 
    6.5044  -16.0024  -23.3153 LP  0  0  0  0  0  0  0  0  0  0  0  0  # atno 8673 bound_to 596 
   -2.0941  -20.1891  -35.6751 LP  0  0  0  0  0  0  0  0  0  0  0  0  # atno 8674 bound_to 4240
   -3.7821  -20.3688  -35.3313 LP  0  0  0  0  0  0  0  0  0  0  0  0  # atno 8675 bound_to 4240
   -4.4007  -20.8879  -31.7156 LP  0  0  0  0  0  0  0  0  0  0  0  0  # atno 8676 bound_to 4270
   -5.9376  -21.1380  -32.4741 LP  0  0  0  0  0  0  0  0  0  0  0  0  # atno 8677 bound_to 4270
   -1.7286  -25.0080  -32.0843 LP  0  0  0  0  0  0  0  0  0  0  0  0  # atno 8686 bound_to 2901
    1.0029  -22.8793  -35.0133 LP  0  0  0  0  0  0  0  0  0  0  0  0  # atno 8687 bound_to 2904
    0.5805  -24.5519  -34.8587 LP  0  0  0  0  0  0  0  0  0  0  0  0  # atno 8688 bound_to 2904
   -5.5115  -18.8273  -32.8715 LP  0  0  0  0  0  0  0  0  0  0  0  0  # atno 8689 bound_to 4296
   -1.4391  -22.2258  -35.1227 LP  0  0  0  0  0  0  0  0  0  0  0  0  # atno 8694 bound_to 2930
    3.3171  -22.1441  -35.9641 LP  0  0  0  0  0  0  0  0  0  0  0  0  # atno 8695 bound_to 3038
   -9.5867   -8.2222  -31.7993 LP  0  0  0  0  0  0  0  0  0  0  0  0  # atno 8697 bound_to 5334
   -6.1256   -7.1645  -34.0513 LP  0  0  0  0  0  0  0  0  0  0  0  0  # atno 8698 bound_to 5337
   -7.7292   -7.8188  -34.0306 LP  0  0  0  0  0  0  0  0  0  0  0  0  # atno 8699 bound_to 5337
  -10.7704   -8.0898  -29.6242 LP  0  0  0  0  0  0  0  0  0  0  0  0  # atno 8700 bound_to 5320
   -9.0730   -8.4339  -29.6018 LP  0  0  0  0  0  0  0  0  0  0  0  0  # atno 8701 bound_to 5320
   -5.7624   -4.1022  -34.1148 LP  0  0  0  0  0  0  0  0  0  0  0  0  # atno 8702 bound_to 5365
   -4.9451   -5.0584  -35.3055 LP  0  0  0  0  0  0  0  0  0  0  0  0  # atno 8703 bound_to 5365
   -5.0286   -6.6060  -35.8888 LP  0  0  0  0  0  0  0  0  0  0  0  0  # atno 8704 bound_to 5409
   -4.1330   -6.6797  -38.0309 LP  0  0  0  0  0  0  0  0  0  0  0  0  # atno 8705 bound_to 5390
   -2.5278   -6.8332  -37.3985 LP  0  0  0  0  0  0  0  0  0  0  0  0  # atno 8706 bound_to 5390
   -7.5306   -7.3206  -36.5165 LP  0  0  0  0  0  0  0  0  0  0  0  0  # atno 8707 bound_to 5447
   -6.4200   -2.7989  -29.7504 LP  0  0  0  0  0  0  0  0  0  0  0  0  # atno 8708 bound_to 6834
   -7.8755   -2.9419  -30.4769 LP  0  0  0  0  0  0  0  0  0  0  0  0  # atno 8709 bound_to 6834
  -12.2516   -7.2833  -30.6962 LP  0  0  0  0  0  0  0  0  0  0  0  0  # atno 8710 bound_to 5317
   -9.0577  -14.1858  -33.8400 LP  0  0  0  0  0  0  0  0  0  0  0  0  # atno 8711 bound_to 4131
   -9.6821  -15.5707  -34.6721 LP  0  0  0  0  0  0  0  0  0  0  0  0  # atno 8712 bound_to 4131
  -13.9365   -6.2349  -32.9643 LP  0  0  0  0  0  0  0  0  0  0  0  0  # atno 8713 bound_to 5301
  -13.3290   -7.7693  -33.4904 LP  0  0  0  0  0  0  0  0  0  0  0  0  # atno 8714 bound_to 5301
  -11.9220   -9.8768  -35.6249 LP  0  0  0  0  0  0  0  0  0  0  0  0  # atno 8715 bound_to 4086
  -12.8187  -10.0864  -34.1579 LP  0  0  0  0  0  0  0  0  0  0  0  0  # atno 8716 bound_to 4086
  -12.6867  -11.7579  -35.8020 LP  0  0  0  0  0  0  0  0  0  0  0  0  # atno 8717 bound_to 4128
  -16.3670  -15.9332  -31.0455 LP  0  0  0  0  0  0  0  0  0  0  0  0  # atno 8722 bound_to 4839
  -13.6514  -17.7774  -33.2677 LP  0  0  0  0  0  0  0  0  0  0  0  0  # atno 8723 bound_to 4764
  -12.5761  -17.8194  -31.9105 LP  0  0  0  0  0  0  0  0  0  0  0  0  # atno 8724 bound_to 4764
  -10.9737  -13.4136  -37.0675 LP  0  0  0  0  0  0  0  0  0  0  0  0  # atno 8725 bound_to 4156
   -7.9976  -12.3390  -37.7255 LP  0  0  0  0  0  0  0  0  0  0  0  0  # atno 8726 bound_to 4159
   -7.0334  -12.4930  -36.2949 LP  0  0  0  0  0  0  0  0  0  0  0  0  # atno 8727 bound_to 4159
   -7.2884  -15.0660  -37.6543 LP  0  0  0  0  0  0  0  0  0  0  0  0  # atno 8728 bound_to 4195
   -8.2363  -18.4954  -22.7501 LP  0  0  0  0  0  0  0  0  0  0  0  0  # atno 8729 bound_to 485 
   -8.1008  -20.0801  -23.4360 LP  0  0  0  0  0  0  0  0  0  0  0  0  # atno 8730 bound_to 485 
  -16.5793  -17.8831  -31.1992 LP  0  0  0  0  0  0  0  0  0  0  0  0  # atno 8731 bound_to 4821
  -16.5847   -5.6732  -28.4543 LP  0  0  0  0  0  0  0  0  0  0  0  0  # atno 8732 bound_to 5267
  -15.0226   -4.9807  -28.1709 LP  0  0  0  0  0  0  0  0  0  0  0  0  # atno 8733 bound_to 5267
  -15.3303   -5.5887  -31.8275 LP  0  0  0  0  0  0  0  0  0  0  0  0  # atno 8734 bound_to 5298
  -18.1474   -4.4723  -30.6471 LP  0  0  0  0  0  0  0  0  0  0  0  0  # atno 8735 bound_to 5264
  -17.9162  -14.3141  -28.7585 LP  0  0  0  0  0  0  0  0  0  0  0  0  # atno 8736 bound_to 4824
  -17.9518  -15.7391  -27.7745 LP  0  0  0  0  0  0  0  0  0  0  0  0  # atno 8737 bound_to 4824
  -18.3625  -12.0335  -31.8918 LP  0  0  0  0  0  0  0  0  0  0  0  0  # atno 8738 bound_to 4842
  -17.3986  -12.2390  -33.3161 LP  0  0  0  0  0  0  0  0  0  0  0  0  # atno 8739 bound_to 4842
  -17.5402   -5.3818  -32.6499 LP  0  0  0  0  0  0  0  0  0  0  0  0  # atno 8742 bound_to 5246
  -18.0742   -3.9058  -33.3822 LP  0  0  0  0  0  0  0  0  0  0  0  0  # atno 8743 bound_to 5246
  -16.7785  -15.0531  -32.5861 LP  0  0  0  0  0  0  0  0  0  0  0  0  # atno 8752 bound_to 4874
  -20.9218   -6.3609  -31.0050 LP  0  0  0  0  0  0  0  0  0  0  0  0  # atno 8753 bound_to 5213
  -21.7922   -7.2804  -32.1869 LP  0  0  0  0  0  0  0  0  0  0  0  0  # atno 8754 bound_to 5213
  -21.1545   -3.6058  -32.8987 LP  0  0  0  0  0  0  0  0  0  0  0  0  # atno 8755 bound_to 5243
  -20.1818  -15.0708  -32.0171 LP  0  0  0  0  0  0  0  0  0  0  0  0  # atno 8756 bound_to 4877
  -21.2869  -13.8351  -32.5191 LP  0  0  0  0  0  0  0  0  0  0  0  0  # atno 8757 bound_to 4877

> <Gold.Score>
     Fitness  S(hb_ext) S(vdw_ext)  S(hb_int)    S(int)      intcor
     13.04       3.59       7.71       0.00      -1.16      -0.76

> <Gold.Goldscore.Fitness>
13.0406

> <Gold.Goldscore.Internal.Vdw>
-1.1953

> <Gold.Goldscore.Internal.Torsion>
-0.7282

> <Gold.Goldscore.External.Vdw>
7.7129

> <Gold.Goldscore.Internal.HBond>
0.0000

> <Gold.Goldscore.External.HBond>
3.5939

> <Gold.Goldscore.Internal.Correction>
-0.7650

> <Gold.Goldscore.Hbonds>
donor molecule, donor type, donor heavy atom, donor atom, acceptor molecule, acceptor atom, score
      P1  H  4203  4214       L1    11  0.58
      L1  H     8    22       P1   520  0.07

> <Gold.Goldscore.Internal.Vdw.Weighted>
-1.1953

> <Gold.Goldscore.Internal.Torsion.Weighted>
-0.7282

> <Gold.Goldscore.External.Vdw.Weighted>
10.6053

> <Gold.Goldscore.Internal.HBond.Weighted>
0.0000

> <Gold.Goldscore.External.HBond.Weighted>
3.5939

> <Gold.Goldscore.Internal.Correction.Weighted>
-0.7650

> <Gold.Rescore>
     Score     S(PLP)   S(hbond)     S(cho)   S(metal)  DE(clash)   DE(tors)     intcor
     19.99     -17.11       1.77       0.00       0.00       0.29       1.07       ----

> <Gold.PLP.Fitness>
19.9900

> <Gold.PLP.PLP>
-17.1060

> <Gold.PLP.part.hbond>
-2.0000

> <Gold.PLP.part.metal>
0.0000

> <Gold.PLP.part.buried>
-3.4286

> <Gold.PLP.part.nonpolar>
-12.1219

> <Gold.PLP.part.repulsive>
0.5395

> <Gold.PLP.ligand.clash>
0.2890

> <Gold.PLP.ligand.torsion>
1.0655

> <Gold.PLP.Chemscore.Hbond>
1.7680

> <Gold.PLP.Chemscore.CHOScore>
0.0000

> <Gold.PLP.Chemscore.Metal>
0.0000

> <Gold.Chemscore.Hbonds>
donor molecule, donor type, donor heavy atom, donor atom, acceptor molecule, acceptor atom, score
      L1  H     8    22       P1   520  0.25
      L1  H    10    23       P1  4275  0.08

> <Gold.PLP.Chemscore.Internal.Correction>
   9.000000E+99

