#       Name:                CT1002167954
#       Creating user name   hitesit
#       Creation time:       Sun Apr 16 02:23:55 2023


#       File generated by GOLD software.
#

@<TRIPOS>MOLECULE
CT1002167954|ligand_prepared|mol2|1|dock6
    29    30     1
SMALL
NO_CHARGES


@<TRIPOS>ATOM
      1 C1         -11.6752 -12.9362 -25.8921 C.3            1 RES1               0.0000
      2 C2         -12.2281 -14.0319 -26.8261 C.ar           1 RES1               0.0000
      3 C3         -11.6530 -11.6478 -26.7092 C.2            1 RES1               0.0000
      4 C4         -12.6080 -12.8925 -24.6868 C.2            1 RES1               0.0000
      5 C5         -10.2438 -13.2169 -25.3785 C.3            1 RES1               0.0000
      6 C6         -13.5421 -14.4731 -26.7009 C.ar           1 RES1               0.0000
      7 C7         -11.4386 -14.6081 -27.8177 C.ar           1 RES1               0.0000
      8 N8         -12.5973 -10.7049 -26.4279 N.am           1 RES1               0.0000
      9 O9         -10.8441 -11.4782 -27.6131 O.2            1 RES1               0.0000
     10 N10        -13.3514 -11.7582 -24.4909 N.am           1 RES1               0.0000
     11 O11        -12.7182 -13.8366 -23.9143 O.2            1 RES1               0.0000
     12 C12         -9.7738 -12.2426 -24.3099 C.3            1 RES1               0.0000
     13 C13        -14.0493 -15.4526 -27.5385 C.ar           1 RES1               0.0000
     14 C14        -11.9477 -15.5877 -28.6541 C.ar           1 RES1               0.0000
     15 C15        -13.4112 -10.6744 -25.3241 C.2            1 RES1               0.0000
     16 C16        -13.2528 -16.0102 -28.5158 C.ar           1 RES1               0.0000
     17 O17        -14.1455  -9.7146 -25.1083 O.2            1 RES1               0.0000
     18 H18        -10.2086 -14.2340 -24.9691 H              1 RES1               0.0000
     19 H19         -9.5493 -13.1726 -26.2266 H              1 RES1               0.0000
     20 H20        -14.1831 -14.0476 -25.9360 H              1 RES1               0.0000
     21 H21        -10.4087 -14.2920 -27.9441 H              1 RES1               0.0000
     22 H22        -12.7088  -9.9529 -27.1005 H              1 RES1               0.0000
     23 H23        -13.9120 -11.7179 -23.6457 H              1 RES1               0.0000
     24 H24         -8.7641 -12.4844 -23.9846 H              1 RES1               0.0000
     25 H25         -9.7721 -11.2234 -24.6909 H              1 RES1               0.0000
     26 H26        -10.4275 -12.2785 -23.4408 H              1 RES1               0.0000
     27 H27        -15.0766 -15.7826 -27.4247 H              1 RES1               0.0000
     28 H28        -11.3170 -16.0242 -29.4215 H              1 RES1               0.0000
     29 H29        -13.6504 -16.7773 -29.1721 H              1 RES1               0.0000
@<TRIPOS>BOND
    1    1    2 1     
    2    1    3 1     
    3    1    4 1     
    4    1    5 1     
    5    2    6 ar    
    6    2    7 ar    
    7    3    8 1     
    8    3    9 2     
    9    4   10 1     
   10    4   11 2     
   11    5   12 1     
   12    5   18 1     
   13    5   19 1     
   14    6   13 ar    
   15    6   20 1     
   16    7   14 ar    
   17    7   21 1     
   18    8   15 1     
   19    8   22 1     
   20   10   15 1     
   21   10   23 1     
   22   12   24 1     
   23   12   25 1     
   24   12   26 1     
   25   13   16 ar    
   26   13   27 1     
   27   14   16 ar    
   28   14   28 1     
   29   15   17 2     
   30   16   29 1     
@<TRIPOS>SUBSTRUCTURE
      1 RES1           1
@<TRIPOS>SET
DONOR_HYDROGENS      STATIC     ATOMS    <user>   **** ""
2 22 23
ATOM$RED        STATIC     ATOMS    COLORGROUP SYSTEM
2 22 23
@<TRIPOS>COMMENT
> <Gold.Version>
2022.3.0

> <Gold.Id.Protein>
unknown|7kl0_clean|pdb

> <Gold.Protein.RotatedTorsions>
[ 6442 6424 6423 6421 ] final   14.48 input   59.99 | X-H torsion
[ 6434 6413 6414 6415 ] final  -86.09 input   40.09 | X-H torsion
[ 6240 6222 6221 6219 ] final   82.81 input   60.01 | X-H torsion
[ 7213 7207 7208 7209 ] final  158.38 input  101.61 | X-H torsion
[ 7269 7260 7261 7262 ] final -127.09 input  118.90 | X-H torsion
[ 7309 7295 7296 7297 ] final -119.54 input   89.68 | X-H torsion
[ 7217 7212 7211 7208 ] final   94.08 input   60.02 | X-H torsion
[ 6577 6553 6554 6555 ] final  146.46 input   19.71 | X-H torsion
[ 6607 6595 6596 6597 ] final  155.77 input   28.67 | X-H torsion
[ 6530 6510 6511 6512 ] final   31.22 input   51.84 | X-H torsion
[ 6635 6620 6621 6622 ] final   51.84 input  122.94 | X-H torsion
[ 1420 1410 1409 1406 ] final  -18.27 input   60.02 | X-H torsion
[ 1287 1275 1273 1270 ] final -118.65 input   60.01 | X-H torsion
[ 6398 6391 6392 6393 ] final -109.71 input  -98.70 | X-H torsion
[ 5429 5420 5419 5417 ] final  -82.90 input   59.99 | X-H torsion
[ 3115 3099 3100 3101 ] final   98.09 input  111.82 | X-H torsion
[ 2982 2971 2972 2973 ] final  -11.37 input  134.80 | X-H torsion
[ 3018 3009 3010 3011 ] final  129.77 input  114.19 | X-H torsion
[ 6268 6249 6250 6251 ] final  170.72 input  122.80 | X-H torsion
[ 6306 6287 6288 6289 ] final -103.79 input  127.97 | X-H torsion
[ 3081 3062 3063 3064 ] final   73.78 input  114.53 | X-H torsion
[ 3139 3129 3130 3131 ] final  150.54 input  112.52 | X-H torsion
[ 4214 4203 4202 4201 ] final   27.92 input   60.00 | X-H torsion
[ 4281 4267 4268 4269 ] final  107.29 input  109.79 | X-H torsion
[ 5391 5387 5388 5389 ] final  144.17 input  115.86 | X-H torsion
[ 1596 1580 1579 1578 ] final   51.98 input   59.99 | X-H torsion
[ 5347 5340 5338 5335 ] final  168.90 input   60.02 | X-H torsion
[  607  596  595  592 ] final  -85.88 input   60.02 | X-H torsion
[ 2916 2901 2902 2903 ] final  155.46 input  112.69 | X-H torsion
[ 4310 4296 4297 4298 ] final  152.97 input   86.41 | X-H torsion
[ 2946 2930 2931 2932 ] final   66.46 input  126.41 | X-H torsion
[ 3050 3038 3039 3040 ] final -170.39 input  116.07 | X-H torsion
[ 5341 5334 5335 5336 ] final  -34.70 input   67.75 | X-H torsion
[ 5421 5409 5410 5411 ] final   51.14 input   64.82 | X-H torsion
[ 5455 5447 5448 5449 ] final  -98.97 input  110.01 | X-H torsion
[ 6852 6834 6833 6831 ] final  112.60 input   59.99 | X-H torsion
[ 5322 5317 5318 5319 ] final   55.45 input  -36.16 | X-H torsion
[ 4142 4128 4129 4130 ] final  -84.46 input   37.30 | X-H torsion
[ 4847 4839 4840 4841 ] final  155.20 input   74.58 | X-H torsion
[ 4166 4156 4157 4158 ] final  163.25 input  113.65 | X-H torsion
[ 4204 4195 4196 4197 ] final  -54.30 input    7.17 | X-H torsion
[ 4825 4821 4822 4823 ] final  -43.91 input  114.67 | X-H torsion
[ 5308 5298 5299 5300 ] final  167.33 input   26.27 | X-H torsion
[ 1613 1589 1588 1587 ] final   40.47 input   59.99 | X-H torsion
[ 5284 5264 5265 5266 ] final  -63.87 input   91.93 | X-H torsion
[ 4879 4874 4875 4876 ] final -126.61 input  114.78 | X-H torsion
[ 5250 5243 5244 5245 ] final   26.13 input  -68.46 | X-H torsion
[ 5710 5690 5689 5688 ] final -101.44 input   60.02 | X-H torsion
[ 7345 7337 7338 7339 ] final   -3.23 input  116.36 | X-H torsion
[ 3215 3201 3202 3203 ] final   37.25 input -100.55 | X-H torsion
[ 4227 4194 4193 4192 ] final   60.16 input   60.00 | X-H torsion
[  546  536  537  538 ] final  138.26 input  119.99 | X-H torsion
[ 6843 6822 6821 6819 ] final  -93.06 input   59.97 | X-H torsion
[ 5806 5788 5787 5785 ] final  -65.11 input   59.97 | X-H torsion
[ 8545 6453 6452 6451 ] final   18.24 input   -0.00 | X-H torsion
[ 8553 6365 6364 6363 ] final  142.11 input    0.00 | X-H torsion
[ 8555 6394 6393 6392 ] final   86.37 input    0.00 | X-H torsion
[ 8557 6416 6415 6414 ] final -156.70 input    0.00 | X-H torsion
[ 8560 7183 7182 7181 ] final -129.44 input   -0.00 | X-H torsion
[ 8562 7210 7209 7208 ] final -104.11 input    0.00 | X-H torsion
[ 8569 7147 7146 7145 ] final -144.92 input    0.00 | X-H torsion
[ 8574 7233 7232 7231 ] final  -25.42 input   -0.00 | X-H torsion
[ 8577 6556 6555 6554 ] final   46.36 input    0.00 | X-H torsion
[ 8581 6513 6512 6511 ] final  -73.05 input    0.00 | X-H torsion
[ 8586 6481 6480 6479 ] final   -8.36 input    0.00 | X-H torsion
[ 8588 6598 6597 6596 ] final -161.90 input   -0.00 | X-H torsion
[ 8621 3102 3101 3100 ] final -139.89 input    0.00 | X-H torsion
[ 8626 2974 2973 2972 ] final  -45.45 input   -0.00 | X-H torsion
[ 8633 3065 3064 3063 ] final -155.22 input    0.00 | X-H torsion
[ 8635 3204 3203 3202 ] final   83.78 input   -0.00 | X-H torsion
[ 8637 6252 6251 6250 ] final  -18.57 input    0.00 | X-H torsion
[ 8646 6101 6100 6099 ] final   82.54 input    0.00 | X-H torsion
[ 8648 6134 6133 6132 ] final  -59.51 input    0.00 | X-H torsion
[ 8650 2933 2932 2931 ] final    5.36 input    0.00 | X-H torsion
[ 8652 3012 3011 3010 ] final  -10.39 input    0.00 | X-H torsion
[ 8658 6623 6622 6621 ] final  -99.94 input    0.00 | X-H torsion
[ 8674 4240 4239 4238 ] final  -28.67 input    0.00 | X-H torsion
[ 8676 4270 4269 4268 ] final -152.44 input    0.00 | X-H torsion
[ 8687 2904 2903 2902 ] final  -95.99 input    0.00 | X-H torsion
[ 8698 5337 5336 5335 ] final   84.12 input    0.00 | X-H torsion
[ 8700 5320 5319 5318 ] final  -29.95 input    0.00 | X-H torsion
[ 8702 5365 5364 5363 ] final  113.57 input   -0.00 | X-H torsion
[ 8705 5390 5389 5388 ] final   86.86 input   -0.00 | X-H torsion
[ 8711 4131 4130 4129 ] final  -87.45 input    0.00 | X-H torsion
[ 8713 5301 5300 5299 ] final  -79.20 input    0.00 | X-H torsion
[ 8715 4086 4085 4084 ] final -160.77 input    0.00 | X-H torsion
[ 8723 4764 4763 4762 ] final   39.04 input    0.00 | X-H torsion
[ 8726 4159 4158 4157 ] final -167.49 input    0.00 | X-H torsion
[ 8729  485  484  483 ] final   84.20 input    0.00 | X-H torsion
[ 8732 5267 5266 5265 ] final    6.80 input    0.00 | X-H torsion
[ 8736 4824 4823 4822 ] final -160.37 input   -0.00 | X-H torsion
[ 8738 4842 4841 4840 ] final -133.69 input    0.00 | X-H torsion
[ 8742 5246 5245 5244 ] final   58.23 input    0.00 | X-H torsion
[ 8753 5213 5212 5211 ] final -155.00 input   -0.00 | X-H torsion
[ 8756 4877 4876 4875 ] final  -87.50 input    0.00 | X-H torsion

> <Gold.Protein.ActiveResidues>
 GLU18   GLY20   LYS21   GLY22   ALA23   PHE24   SER25   VAL26   VAL27   ARG28  
 ILE43   ILE44   ASN45   THR46   LYS47   LYS48   LEU49   SER50   ARG52   ASP53  
 LYS56   ARG59   GLY83   HIS84   GLY95   GLU96   LEU97   PHE98   GLU99   ASP100 
 ILE101  VAL102  ALA103  GLU105  TYR106  HIS133  ARG134  ASN135  LEU136  LYS137 
 PRO138  GLU139  ASN140  ASP156  GLY158  LEU159  ALA160  ILE161  TRP170  PHE171 
 GLY172  PHE173  ALA174  GLY175  THR176  PRO177  GLY178  TYR179  LEU180  VAL184 
 LYS187  TYR190  VAL201  ILE202  TYR204  ILE205  LEU206  VAL208  GLY209  TYR210 
 PRO211  PRO212  PHE213  TRP214  ASP215  GLU216  ASP217  GLN218  HIS219  LEU221 
 TYR222  GLN224  ILE225  ASP231  PHE232  PRO233  SER234  PRO235  GLU236  TRP237 
 ASP238 

> <Gold.Protein.RotatedAtoms>
  -11.8554  -16.2359  -20.8459 H   0  0  0  0  0  0  0  0  0  0  0  0  # atno 546  bound_to 536 
    6.1387  -15.9483  -23.9048 H   0  0  0  0  0  0  0  0  0  0  0  0  # atno 607  bound_to 596 
   16.5400  -17.7475  -28.8651 H   0  0  0  0  0  0  0  0  0  0  0  0  # atno 1287 bound_to 1275
   13.3055   -6.6194  -27.8909 H   0  0  0  0  0  0  0  0  0  0  0  0  # atno 1420 bound_to 1410
    8.6868   -5.6301  -23.1762 H   0  0  0  0  0  0  0  0  0  0  0  0  # atno 1596 bound_to 1580
    7.5885   -6.1623  -22.0547 H   0  0  0  0  0  0  0  0  0  0  0  0  # atno 1597 bound_to 1580
    8.4648   -4.7846  -21.7682 H   0  0  0  0  0  0  0  0  0  0  0  0  # atno 1598 bound_to 1580
  -18.9150  -11.8598  -24.3229 H   0  0  0  0  0  0  0  0  0  0  0  0  # atno 1613 bound_to 1589
  -18.0100  -12.1575  -25.6798 H   0  0  0  0  0  0  0  0  0  0  0  0  # atno 1614 bound_to 1589
  -18.9500  -10.7947  -25.5924 H   0  0  0  0  0  0  0  0  0  0  0  0  # atno 1615 bound_to 1589
   -1.5457  -24.8968  -32.0019 H   0  0  0  0  0  0  0  0  0  0  0  0  # atno 2916 bound_to 2901
   -2.0319  -22.0600  -35.4520 H   0  0  0  0  0  0  0  0  0  0  0  0  # atno 2946 bound_to 2930
    0.4623  -21.3923  -36.0772 H   0  0  0  0  0  0  0  0  0  0  0  0  # atno 2982 bound_to 2971
    1.5476  -21.5692  -33.7661 H   0  0  0  0  0  0  0  0  0  0  0  0  # atno 3018 bound_to 3009
    3.2801  -23.7595  -35.3705 H   0  0  0  0  0  0  0  0  0  0  0  0  # atno 3050 bound_to 3038
    3.8412  -21.1589  -37.2191 H   0  0  0  0  0  0  0  0  0  0  0  0  # atno 3081 bound_to 3062
    5.4400  -20.1667  -36.2745 H   0  0  0  0  0  0  0  0  0  0  0  0  # atno 3115 bound_to 3099
    7.4781  -21.5663  -35.4781 H   0  0  0  0  0  0  0  0  0  0  0  0  # atno 3139 bound_to 3129
    9.2482  -20.4805  -40.5474 H   0  0  0  0  0  0  0  0  0  0  0  0  # atno 3215 bound_to 3201
  -12.4436  -11.9726  -36.1773 H   0  0  0  0  0  0  0  0  0  0  0  0  # atno 4142 bound_to 4128
  -11.1675  -13.8586  -36.8936 H   0  0  0  0  0  0  0  0  0  0  0  0  # atno 4166 bound_to 4156
   -7.1571  -15.6461  -37.5348 H   0  0  0  0  0  0  0  0  0  0  0  0  # atno 4204 bound_to 4195
   -6.1419  -12.6592  -30.5972 H   0  0  0  0  0  0  0  0  0  0  0  0  # atno 4214 bound_to 4203
   -7.0864  -13.7107  -29.7309 H   0  0  0  0  0  0  0  0  0  0  0  0  # atno 4215 bound_to 4203
   -5.4475  -13.9458  -29.8171 H   0  0  0  0  0  0  0  0  0  0  0  0  # atno 4216 bound_to 4203
   -3.1555  -11.0651  -15.2700 H   0  0  0  0  0  0  0  0  0  0  0  0  # atno 4227 bound_to 4194
   -2.6336  -12.4341  -16.0452 H   0  0  0  0  0  0  0  0  0  0  0  0  # atno 4228 bound_to 4194
   -4.1608  -12.3758  -15.4037 H   0  0  0  0  0  0  0  0  0  0  0  0  # atno 4229 bound_to 4194
   -3.4807  -16.9867  -34.0785 H   0  0  0  0  0  0  0  0  0  0  0  0  # atno 4281 bound_to 4267
   -5.7882  -18.0721  -33.3516 H   0  0  0  0  0  0  0  0  0  0  0  0  # atno 4310 bound_to 4296
  -16.5533  -17.7621  -31.2115 H   0  0  0  0  0  0  0  0  0  0  0  0  # atno 4825 bound_to 4821
  -15.4314  -15.3803  -29.8384 H   0  0  0  0  0  0  0  0  0  0  0  0  # atno 4847 bound_to 4839
  -16.8372  -14.4174  -32.6297 H   0  0  0  0  0  0  0  0  0  0  0  0  # atno 4879 bound_to 4874
  -20.2070   -4.8695  -33.1841 H   0  0  0  0  0  0  0  0  0  0  0  0  # atno 5250 bound_to 5243
  -18.1260   -4.3040  -31.0584 H   0  0  0  0  0  0  0  0  0  0  0  0  # atno 5284 bound_to 5264
  -15.9404   -5.5456  -30.4025 H   0  0  0  0  0  0  0  0  0  0  0  0  # atno 5308 bound_to 5298
  -12.2505   -7.2221  -30.8047 H   0  0  0  0  0  0  0  0  0  0  0  0  # atno 5322 bound_to 5317
   -9.3870   -8.0276  -32.2817 H   0  0  0  0  0  0  0  0  0  0  0  0  # atno 5341 bound_to 5334
   -7.3587  -12.1022  -31.4039 H   0  0  0  0  0  0  0  0  0  0  0  0  # atno 5347 bound_to 5340
   -3.4739   -6.8951  -32.8047 H   0  0  0  0  0  0  0  0  0  0  0  0  # atno 5391 bound_to 5387
   -5.5994   -7.3754  -34.9992 H   0  0  0  0  0  0  0  0  0  0  0  0  # atno 5421 bound_to 5409
   -1.4801  -13.3701  -35.7013 H   0  0  0  0  0  0  0  0  0  0  0  0  # atno 5429 bound_to 5420
   -7.5559   -7.3366  -36.5103 H   0  0  0  0  0  0  0  0  0  0  0  0  # atno 5455 bound_to 5447
  -13.9028    1.9154  -30.3959 H   0  0  0  0  0  0  0  0  0  0  0  0  # atno 5710 bound_to 5690
  -14.1974    3.5390  -30.2463 H   0  0  0  0  0  0  0  0  0  0  0  0  # atno 5711 bound_to 5690
  -14.4149    2.5349  -28.9462 H   0  0  0  0  0  0  0  0  0  0  0  0  # atno 5712 bound_to 5690
  -19.3192   -6.5988  -34.5339 H   0  0  0  0  0  0  0  0  0  0  0  0  # atno 5806 bound_to 5788
    5.9948   -6.3149  -45.0249 H   0  0  0  0  0  0  0  0  0  0  0  0  # atno 6240 bound_to 6222
    1.2610  -11.4446  -42.6089 H   0  0  0  0  0  0  0  0  0  0  0  0  # atno 6268 bound_to 6249
    2.4123  -14.9331  -42.3127 H   0  0  0  0  0  0  0  0  0  0  0  0  # atno 6306 bound_to 6287
    5.8628  -13.9414  -42.7723 H   0  0  0  0  0  0  0  0  0  0  0  0  # atno 6398 bound_to 6391
    5.9827  -12.7959  -40.1139 H   0  0  0  0  0  0  0  0  0  0  0  0  # atno 6434 bound_to 6413
    8.1807   -6.1656  -43.8745 H   0  0  0  0  0  0  0  0  0  0  0  0  # atno 6442 bound_to 6424
    1.2350   -5.6324  -39.1870 H   0  0  0  0  0  0  0  0  0  0  0  0  # atno 6530 bound_to 6510
    2.1862   -3.9993  -37.1884 H   0  0  0  0  0  0  0  0  0  0  0  0  # atno 6577 bound_to 6553
    2.3467   -1.4342  -34.3283 H   0  0  0  0  0  0  0  0  0  0  0  0  # atno 6607 bound_to 6595
    4.1849    0.3013  -30.6896 H   0  0  0  0  0  0  0  0  0  0  0  0  # atno 6635 bound_to 6620
   -5.7650   -1.4259  -17.1142 H   0  0  0  0  0  0  0  0  0  0  0  0  # atno 6843 bound_to 6822
   -6.7109   -2.2641  -29.1721 H   0  0  0  0  0  0  0  0  0  0  0  0  # atno 6852 bound_to 6834
   11.7216   -3.3732  -49.2643 H   0  0  0  0  0  0  0  0  0  0  0  0  # atno 7213 bound_to 7207
   14.5202   -4.8089  -51.8434 H   0  0  0  0  0  0  0  0  0  0  0  0  # atno 7217 bound_to 7212
   14.4360   -8.5683  -48.4752 H   0  0  0  0  0  0  0  0  0  0  0  0  # atno 7269 bound_to 7260
   11.0291   -9.4830  -49.0237 H   0  0  0  0  0  0  0  0  0  0  0  0  # atno 7309 bound_to 7295
   10.9677   -9.0198  -51.9911 H   0  0  0  0  0  0  0  0  0  0  0  0  # atno 7345 bound_to 7337
    8.2511   -7.5621  -44.7073 LP  0  0  0  0  0  0  0  0  0  0  0  0  # atno 8537 bound_to 6424
    9.6005   -6.9471  -44.0236 LP  0  0  0  0  0  0  0  0  0  0  0  0  # atno 8538 bound_to 6424
    7.1080  -11.7948  -41.0104 LP  0  0  0  0  0  0  0  0  0  0  0  0  # atno 8543 bound_to 6413
    4.9206   -7.0837  -39.4984 LP  0  0  0  0  0  0  0  0  0  0  0  0  # atno 8545 bound_to 6453
    4.0697   -5.6912  -40.0788 LP  0  0  0  0  0  0  0  0  0  0  0  0  # atno 8546 bound_to 6453
    5.4952   -5.7639  -43.5774 LP  0  0  0  0  0  0  0  0  0  0  0  0  # atno 8551 bound_to 6222
    4.9282   -5.0879  -44.9515 LP  0  0  0  0  0  0  0  0  0  0  0  0  # atno 8552 bound_to 6222
    8.9025  -12.6342  -41.5470 LP  0  0  0  0  0  0  0  0  0  0  0  0  # atno 8553 bound_to 6365
    9.6956  -13.2105  -42.9749 LP  0  0  0  0  0  0  0  0  0  0  0  0  # atno 8554 bound_to 6365
    8.1117  -13.4081  -38.3977 LP  0  0  0  0  0  0  0  0  0  0  0  0  # atno 8555 bound_to 6394
    6.4353  -13.6294  -38.0228 LP  0  0  0  0  0  0  0  0  0  0  0  0  # atno 8556 bound_to 6394
    4.0932   -9.3877  -41.4384 LP  0  0  0  0  0  0  0  0  0  0  0  0  # atno 8557 bound_to 6416
    4.9806  -10.8677  -41.5874 LP  0  0  0  0  0  0  0  0  0  0  0  0  # atno 8558 bound_to 6416
   11.5906   -6.4173  -47.7620 LP  0  0  0  0  0  0  0  0  0  0  0  0  # atno 8560 bound_to 7183
   10.0053   -6.0989  -48.3828 LP  0  0  0  0  0  0  0  0  0  0  0  0  # atno 8561 bound_to 7183
   15.0252   -3.8731  -46.7817 LP  0  0  0  0  0  0  0  0  0  0  0  0  # atno 8562 bound_to 7210
   13.4939   -4.5616  -46.3564 LP  0  0  0  0  0  0  0  0  0  0  0  0  # atno 8563 bound_to 7210
   11.9271   -4.1356  -47.6923 LP  0  0  0  0  0  0  0  0  0  0  0  0  # atno 8566 bound_to 7207
   12.9584   -7.6663  -48.2381 LP  0  0  0  0  0  0  0  0  0  0  0  0  # atno 8568 bound_to 7260
    9.5722   -4.1602  -49.8348 LP  0  0  0  0  0  0  0  0  0  0  0  0  # atno 8569 bound_to 7147
    8.1238   -3.4006  -50.4050 LP  0  0  0  0  0  0  0  0  0  0  0  0  # atno 8570 bound_to 7147
   11.5507   -7.8813  -49.5051 LP  0  0  0  0  0  0  0  0  0  0  0  0  # atno 8571 bound_to 7295
   15.2656   -5.3938  -50.5205 LP  0  0  0  0  0  0  0  0  0  0  0  0  # atno 8572 bound_to 7212
   15.7887   -4.0096  -51.2112 LP  0  0  0  0  0  0  0  0  0  0  0  0  # atno 8573 bound_to 7212
   13.9086   -8.0581  -51.4008 LP  0  0  0  0  0  0  0  0  0  0  0  0  # atno 8574 bound_to 7233
   13.3835   -9.5355  -50.6650 LP  0  0  0  0  0  0  0  0  0  0  0  0  # atno 8575 bound_to 7233
    1.6853   -2.3457  -36.8983 LP  0  0  0  0  0  0  0  0  0  0  0  0  # atno 8576 bound_to 6553
    3.4941   -1.1869  -36.3481 LP  0  0  0  0  0  0  0  0  0  0  0  0  # atno 8577 bound_to 6556
    4.6000   -0.9339  -35.0393 LP  0  0  0  0  0  0  0  0  0  0  0  0  # atno 8578 bound_to 6556
   -0.1180   -5.2340  -36.3848 LP  0  0  0  0  0  0  0  0  0  0  0  0  # atno 8581 bound_to 6513
    1.4529   -5.9210  -36.6306 LP  0  0  0  0  0  0  0  0  0  0  0  0  # atno 8582 bound_to 6513
    2.5740   -2.6106  -33.0455 LP  0  0  0  0  0  0  0  0  0  0  0  0  # atno 8583 bound_to 6595
    1.4120   -4.4474  -40.4699 LP  0  0  0  0  0  0  0  0  0  0  0  0  # atno 8585 bound_to 6510
    2.8298   -3.2504  -41.7947 LP  0  0  0  0  0  0  0  0  0  0  0  0  # atno 8586 bound_to 6481
    1.9687   -2.5407  -40.4700 LP  0  0  0  0  0  0  0  0  0  0  0  0  # atno 8587 bound_to 6481
    1.9225   -1.5259  -29.7589 LP  0  0  0  0  0  0  0  0  0  0  0  0  # atno 8588 bound_to 6598
    1.5555   -1.9637  -31.3940 LP  0  0  0  0  0  0  0  0  0  0  0  0  # atno 8589 bound_to 6598
    4.2865   -1.4352  -30.9308 LP  0  0  0  0  0  0  0  0  0  0  0  0  # atno 8590 bound_to 6620
   12.0430   -5.6596  -28.2543 LP  0  0  0  0  0  0  0  0  0  0  0  0  # atno 8605 bound_to 1410
   13.4340   -5.0089  -27.6991 LP  0  0  0  0  0  0  0  0  0  0  0  0  # atno 8606 bound_to 1410
   17.4599  -16.6967  -29.7007 LP  0  0  0  0  0  0  0  0  0  0  0  0  # atno 8617 bound_to 1275
   16.0324  -17.2021  -30.3119 LP  0  0  0  0  0  0  0  0  0  0  0  0  # atno 8618 bound_to 1275
   10.2540  -20.0525  -37.0135 LP  0  0  0  0  0  0  0  0  0  0  0  0  # atno 8621 bound_to 3102
    9.9335  -18.8185  -35.8411 LP  0  0  0  0  0  0  0  0  0  0  0  0  # atno 8622 bound_to 3102
    7.4756  -13.2631  -42.7142 LP  0  0  0  0  0  0  0  0  0  0  0  0  # atno 8623 bound_to 6391
   -0.8725  -12.0379  -34.9916 LP  0  0  0  0  0  0  0  0  0  0  0  0  # atno 8624 bound_to 5420
   -0.7378  -12.2400  -36.6065 LP  0  0  0  0  0  0  0  0  0  0  0  0  # atno 8625 bound_to 5420
    3.3676  -19.3608  -36.3959 LP  0  0  0  0  0  0  0  0  0  0  0  0  # atno 8626 bound_to 2974
    4.2346  -19.5927  -34.9145 LP  0  0  0  0  0  0  0  0  0  0  0  0  # atno 8627 bound_to 2974
    6.0887  -19.4525  -37.7350 LP  0  0  0  0  0  0  0  0  0  0  0  0  # atno 8632 bound_to 3099
    8.0306  -19.3353  -38.4138 LP  0  0  0  0  0  0  0  0  0  0  0  0  # atno 8633 bound_to 3065
    6.9418  -18.9286  -39.6980 LP  0  0  0  0  0  0  0  0  0  0  0  0  # atno 8634 bound_to 3065
    8.6087  -15.9951  -40.8521 LP  0  0  0  0  0  0  0  0  0  0  0  0  # atno 8635 bound_to 3204
    7.2585  -17.0068  -40.4603 LP  0  0  0  0  0  0  0  0  0  0  0  0  # atno 8636 bound_to 3204
    4.9261  -13.9838  -42.1076 LP  0  0  0  0  0  0  0  0  0  0  0  0  # atno 8637 bound_to 6252
    4.5397  -15.6085  -42.5668 LP  0  0  0  0  0  0  0  0  0  0  0  0  # atno 8638 bound_to 6252
   -0.8994  -20.3289  -35.7669 LP  0  0  0  0  0  0  0  0  0  0  0  0  # atno 8639 bound_to 2971
    2.4437  -20.6303  -34.9498 LP  0  0  0  0  0  0  0  0  0  0  0  0  # atno 8640 bound_to 3009
    1.7491  -12.5361  -43.8912 LP  0  0  0  0  0  0  0  0  0  0  0  0  # atno 8644 bound_to 6249
    1.7693  -14.3018  -43.8144 LP  0  0  0  0  0  0  0  0  0  0  0  0  # atno 8645 bound_to 6287
   -0.4527  -10.9465  -41.2749 LP  0  0  0  0  0  0  0  0  0  0  0  0  # atno 8646 bound_to 6101
   -0.4517  -11.2538  -42.9795 LP  0  0  0  0  0  0  0  0  0  0  0  0  # atno 8647 bound_to 6101
    0.2045  -14.1405  -42.4729 LP  0  0  0  0  0  0  0  0  0  0  0  0  # atno 8648 bound_to 6134
   -0.3993  -15.4278  -43.4620 LP  0  0  0  0  0  0  0  0  0  0  0  0  # atno 8649 bound_to 6134
    1.6020  -21.9696  -38.1104 LP  0  0  0  0  0  0  0  0  0  0  0  0  # atno 8650 bound_to 2933
    2.2294  -20.8138  -36.9832 LP  0  0  0  0  0  0  0  0  0  0  0  0  # atno 8651 bound_to 2933
    6.0897  -22.0108  -34.3650 LP  0  0  0  0  0  0  0  0  0  0  0  0  # atno 8652 bound_to 3012
    6.1151  -23.0299  -35.7653 LP  0  0  0  0  0  0  0  0  0  0  0  0  # atno 8653 bound_to 3012
    4.3776  -22.2052  -38.5173 LP  0  0  0  0  0  0  0  0  0  0  0  0  # atno 8654 bound_to 3062
    8.3021  -20.5698  -36.6629 LP  0  0  0  0  0  0  0  0  0  0  0  0  # atno 8655 bound_to 3129
   -3.1175  -18.4680  -34.9426 LP  0  0  0  0  0  0  0  0  0  0  0  0  # atno 8656 bound_to 4267
   -4.8366   -6.2317  -33.6789 LP  0  0  0  0  0  0  0  0  0  0  0  0  # atno 8657 bound_to 5387
    1.7201   -0.9779  -27.2310 LP  0  0  0  0  0  0  0  0  0  0  0  0  # atno 8658 bound_to 6623
    2.9930   -0.2409  -26.3163 LP  0  0  0  0  0  0  0  0  0  0  0  0  # atno 8659 bound_to 6623
   -8.6123  -11.0652  -31.3639 LP  0  0  0  0  0  0  0  0  0  0  0  0  # atno 8668 bound_to 5340
   -7.5105  -11.0655  -30.1587 LP  0  0  0  0  0  0  0  0  0  0  0  0  # atno 8669 bound_to 5340
    6.3721  -16.9470  -22.6416 LP  0  0  0  0  0  0  0  0  0  0  0  0  # atno 8672 bound_to 596 
    5.3146  -17.3486  -23.8194 LP  0  0  0  0  0  0  0  0  0  0  0  0  # atno 8673 bound_to 596 
   -3.1690  -20.1844  -36.3325 LP  0  0  0  0  0  0  0  0  0  0  0  0  # atno 8674 bound_to 4240
   -2.7071  -20.3735  -34.6739 LP  0  0  0  0  0  0  0  0  0  0  0  0  # atno 8675 bound_to 4240
   -5.7370  -21.2885  -32.6878 LP  0  0  0  0  0  0  0  0  0  0  0  0  # atno 8676 bound_to 4270
   -4.6014  -20.7374  -31.5018 LP  0  0  0  0  0  0  0  0  0  0  0  0  # atno 8677 bound_to 4270
   -1.0092  -25.5456  -33.5359 LP  0  0  0  0  0  0  0  0  0  0  0  0  # atno 8686 bound_to 2901
    1.0006  -22.8927  -34.7650 LP  0  0  0  0  0  0  0  0  0  0  0  0  # atno 8687 bound_to 2904
    0.5829  -24.5385  -35.1070 LP  0  0  0  0  0  0  0  0  0  0  0  0  # atno 8688 bound_to 2904
   -5.1366  -19.5361  -34.0737 LP  0  0  0  0  0  0  0  0  0  0  0  0  # atno 8689 bound_to 4296
   -1.4603  -23.6979  -35.6894 LP  0  0  0  0  0  0  0  0  0  0  0  0  # atno 8694 bound_to 2930
    3.6201  -22.1052  -35.8435 LP  0  0  0  0  0  0  0  0  0  0  0  0  # atno 8695 bound_to 3038
   -9.3975   -9.7820  -32.2075 LP  0  0  0  0  0  0  0  0  0  0  0  0  # atno 8697 bound_to 5334
   -7.6878   -7.0873  -33.9499 LP  0  0  0  0  0  0  0  0  0  0  0  0  # atno 8698 bound_to 5337
   -6.1670   -7.8959  -34.1320 LP  0  0  0  0  0  0  0  0  0  0  0  0  # atno 8699 bound_to 5337
  -10.6489   -7.7988  -29.6953 LP  0  0  0  0  0  0  0  0  0  0  0  0  # atno 8700 bound_to 5320
   -9.1945   -8.7248  -29.5307 LP  0  0  0  0  0  0  0  0  0  0  0  0  # atno 8701 bound_to 5320
   -4.5750   -4.2022  -34.6873 LP  0  0  0  0  0  0  0  0  0  0  0  0  # atno 8702 bound_to 5365
   -6.1326   -4.9584  -34.7330 LP  0  0  0  0  0  0  0  0  0  0  0  0  # atno 8703 bound_to 5365
   -4.2235   -7.3896  -36.0930 LP  0  0  0  0  0  0  0  0  0  0  0  0  # atno 8704 bound_to 5409
   -2.9451   -7.5320  -37.6999 LP  0  0  0  0  0  0  0  0  0  0  0  0  # atno 8705 bound_to 5390
   -3.7156   -5.9810  -37.7295 LP  0  0  0  0  0  0  0  0  0  0  0  0  # atno 8706 bound_to 5390
   -6.6454   -5.9135  -36.0587 LP  0  0  0  0  0  0  0  0  0  0  0  0  # atno 8707 bound_to 5447
   -7.0654   -3.1735  -30.4743 LP  0  0  0  0  0  0  0  0  0  0  0  0  # atno 8708 bound_to 6834
   -8.2297   -2.2816  -29.7563 LP  0  0  0  0  0  0  0  0  0  0  0  0  # atno 8709 bound_to 6834
  -13.1793   -8.7083  -30.8771 LP  0  0  0  0  0  0  0  0  0  0  0  0  # atno 8710 bound_to 5317
   -8.7630  -14.2638  -34.1923 LP  0  0  0  0  0  0  0  0  0  0  0  0  # atno 8711 bound_to 4131
   -9.9768  -15.4928  -34.3199 LP  0  0  0  0  0  0  0  0  0  0  0  0  # atno 8712 bound_to 4131
  -14.1773   -7.6642  -33.3498 LP  0  0  0  0  0  0  0  0  0  0  0  0  # atno 8713 bound_to 5301
  -13.0881   -6.3400  -33.1049 LP  0  0  0  0  0  0  0  0  0  0  0  0  # atno 8714 bound_to 5301
  -11.5899  -10.3566  -34.8749 LP  0  0  0  0  0  0  0  0  0  0  0  0  # atno 8715 bound_to 4086
  -13.1508   -9.6066  -34.9079 LP  0  0  0  0  0  0  0  0  0  0  0  0  # atno 8716 bound_to 4086
  -13.3080  -13.1984  -35.2792 LP  0  0  0  0  0  0  0  0  0  0  0  0  # atno 8717 bound_to 4128
  -16.8865  -15.9211  -30.6569 LP  0  0  0  0  0  0  0  0  0  0  0  0  # atno 8722 bound_to 4839
  -12.4052  -18.1965  -32.8881 LP  0  0  0  0  0  0  0  0  0  0  0  0  # atno 8723 bound_to 4764
  -13.8224  -17.4003  -32.2901 LP  0  0  0  0  0  0  0  0  0  0  0  0  # atno 8724 bound_to 4764
   -9.9182  -13.2706  -35.8162 LP  0  0  0  0  0  0  0  0  0  0  0  0  # atno 8725 bound_to 4156
   -6.6623  -12.5603  -36.9740 LP  0  0  0  0  0  0  0  0  0  0  0  0  # atno 8726 bound_to 4159
   -8.3687  -12.2718  -37.0464 LP  0  0  0  0  0  0  0  0  0  0  0  0  # atno 8727 bound_to 4159
   -7.6084  -14.6675  -36.1414 LP  0  0  0  0  0  0  0  0  0  0  0  0  # atno 8728 bound_to 4195
   -8.5676  -19.9236  -23.5248 LP  0  0  0  0  0  0  0  0  0  0  0  0  # atno 8729 bound_to 485 
   -7.7694  -18.6519  -22.6614 LP  0  0  0  0  0  0  0  0  0  0  0  0  # atno 8730 bound_to 485 
  -15.3169  -18.6010  -30.2935 LP  0  0  0  0  0  0  0  0  0  0  0  0  # atno 8731 bound_to 4821
  -16.2591   -4.5975  -28.2104 LP  0  0  0  0  0  0  0  0  0  0  0  0  # atno 8732 bound_to 5267
  -15.3481   -6.0564  -28.4149 LP  0  0  0  0  0  0  0  0  0  0  0  0  # atno 8733 bound_to 5267
  -14.6694   -5.2177  -31.5666 LP  0  0  0  0  0  0  0  0  0  0  0  0  # atno 8734 bound_to 5298
  -18.1094   -2.9911  -29.8973 LP  0  0  0  0  0  0  0  0  0  0  0  0  # atno 8735 bound_to 5264
  -18.0636  -14.3962  -28.8461 LP  0  0  0  0  0  0  0  0  0  0  0  0  # atno 8736 bound_to 4824
  -17.8044  -15.6570  -27.6870 LP  0  0  0  0  0  0  0  0  0  0  0  0  # atno 8737 bound_to 4824
  -18.6897  -12.4269  -32.7082 LP  0  0  0  0  0  0  0  0  0  0  0  0  # atno 8738 bound_to 4842
  -17.0714  -11.8456  -32.4997 LP  0  0  0  0  0  0  0  0  0  0  0  0  # atno 8739 bound_to 4842
  -18.2797   -4.0366  -33.4137 LP  0  0  0  0  0  0  0  0  0  0  0  0  # atno 8742 bound_to 5246
  -17.3347   -5.2510  -32.6184 LP  0  0  0  0  0  0  0  0  0  0  0  0  # atno 8743 bound_to 5246
  -18.1571  -15.2152  -31.7958 LP  0  0  0  0  0  0  0  0  0  0  0  0  # atno 8752 bound_to 4874
  -21.1533   -6.3038  -30.9316 LP  0  0  0  0  0  0  0  0  0  0  0  0  # atno 8753 bound_to 5213
  -21.5607   -7.3375  -32.2603 LP  0  0  0  0  0  0  0  0  0  0  0  0  # atno 8754 bound_to 5213
  -21.5911   -4.0053  -32.5435 LP  0  0  0  0  0  0  0  0  0  0  0  0  # atno 8755 bound_to 5243
  -21.0555  -15.2169  -32.5198 LP  0  0  0  0  0  0  0  0  0  0  0  0  # atno 8756 bound_to 4877
  -20.4132  -13.6891  -32.0165 LP  0  0  0  0  0  0  0  0  0  0  0  0  # atno 8757 bound_to 4877

> <Gold.Score>
     Fitness  S(hb_ext) S(vdw_ext)  S(hb_int)    S(int)      intcor
     16.78       0.00      13.24       0.00      -1.43      -0.76

> <Gold.Goldscore.Fitness>
16.7797

> <Gold.Goldscore.Internal.Vdw>
-1.7236

> <Gold.Goldscore.Internal.Torsion>
-0.4693

> <Gold.Goldscore.External.Vdw>
13.2419

> <Gold.Goldscore.Internal.HBond>
0.0000

> <Gold.Goldscore.External.HBond>
0.0000

> <Gold.Goldscore.Internal.Correction>
-0.7650

> <Gold.Goldscore.Internal.Vdw.Weighted>
-1.7236

> <Gold.Goldscore.Internal.Torsion.Weighted>
-0.4693

> <Gold.Goldscore.External.Vdw.Weighted>
18.2076

> <Gold.Goldscore.Internal.HBond.Weighted>
0.0000

> <Gold.Goldscore.External.HBond.Weighted>
0.0000

> <Gold.Goldscore.Internal.Correction.Weighted>
-0.7650

> <Gold.Rescore>
     Score     S(PLP)   S(hbond)     S(cho)   S(metal)  DE(clash)   DE(tors)     intcor
      6.50      -8.91       0.00       0.00       0.00       1.68       0.36       ----

> <Gold.PLP.Fitness>
6.5044

> <Gold.PLP.PLP>
-8.9141

> <Gold.PLP.part.hbond>
0.0000

> <Gold.PLP.part.metal>
0.0000

> <Gold.PLP.part.buried>
5.4503

> <Gold.PLP.part.nonpolar>
-18.3702

> <Gold.PLP.part.repulsive>
0.0705

> <Gold.PLP.ligand.clash>
1.6836

> <Gold.PLP.ligand.torsion>
0.3630

> <Gold.PLP.Chemscore.Hbond>
0.0000

> <Gold.PLP.Chemscore.CHOScore>
0.0000

> <Gold.PLP.Chemscore.Metal>
0.0000

> <Gold.PLP.Chemscore.Internal.Correction>
   9.000000E+99

