#       Name:                CT1002167954
#       Creating user name   hitesit
#       Creation time:       Sun Apr 16 02:23:58 2023


#       File generated by GOLD software.
#

@<TRIPOS>MOLECULE
CT1002167954|ligand_prepared|mol2|1|dock7
    29    30     1
SMALL
NO_CHARGES


@<TRIPOS>ATOM
      1 C1           5.9549  -1.5997 -38.5660 C.3            1 RES1               0.0000
      2 C2           5.1627  -0.3926 -39.1085 C.ar           1 RES1               0.0000
      3 C3           5.0252  -2.8050 -38.6722 C.2            1 RES1               0.0000
      4 C4           7.2112  -1.7056 -39.4234 C.2            1 RES1               0.0000
      5 C5           6.3944  -1.4468 -37.0913 C.3            1 RES1               0.0000
      6 C6           4.6797  -0.3908 -40.4137 C.ar           1 RES1               0.0000
      7 C7           4.9052   0.7230 -38.3163 C.ar           1 RES1               0.0000
      8 N8           5.2830  -3.7174 -39.6525 N.am           1 RES1               0.0000
      9 O9           4.0574  -2.9325 -37.9324 O.2            1 RES1               0.0000
     10 N10          7.3533  -2.8112 -40.2204 N.am           1 RES1               0.0000
     11 O11          8.0714  -0.8337 -39.4285 O.2            1 RES1               0.0000
     12 C12          7.1684  -2.6408 -36.5552 C.3            1 RES1               0.0000
     13 C13          3.9627   0.6861 -40.9081 C.ar           1 RES1               0.0000
     14 C14          4.1880   1.7990 -38.8129 C.ar           1 RES1               0.0000
     15 C15          6.4317  -3.8071 -40.3968 C.2            1 RES1               0.0000
     16 C16          3.7160   1.7814 -40.1081 C.ar           1 RES1               0.0000
     17 O17          6.6088  -4.7416 -41.1730 O.2            1 RES1               0.0000
     18 H18          7.0205  -0.5505 -37.0005 H              1 RES1               0.0000
     19 H19          5.5023  -1.2968 -36.4706 H              1 RES1               0.0000
     20 H20          4.8661  -1.2428 -41.0589 H              1 RES1               0.0000
     21 H21          5.2677   0.7593 -37.2947 H              1 RES1               0.0000
     22 H22          4.5543  -4.3957 -39.8504 H              1 RES1               0.0000
     23 H23          8.2272  -2.9002 -40.7291 H              1 RES1               0.0000
     24 H24          7.4526  -2.4817 -35.5171 H              1 RES1               0.0000
     25 H25          6.5664  -3.5456 -36.6069 H              1 RES1               0.0000
     26 H26          8.0755  -2.8037 -37.1337 H              1 RES1               0.0000
     27 H27          3.5945   0.6679 -41.9286 H              1 RES1               0.0000
     28 H28          3.9968   2.6592 -38.1799 H              1 RES1               0.0000
     29 H29          3.1539   2.6247 -40.4955 H              1 RES1               0.0000
@<TRIPOS>BOND
    1    1    2 1     
    2    1    3 1     
    3    1    4 1     
    4    1    5 1     
    5    2    6 ar    
    6    2    7 ar    
    7    3    8 1     
    8    3    9 2     
    9    4   10 1     
   10    4   11 2     
   11    5   12 1     
   12    5   18 1     
   13    5   19 1     
   14    6   13 ar    
   15    6   20 1     
   16    7   14 ar    
   17    7   21 1     
   18    8   15 1     
   19    8   22 1     
   20   10   15 1     
   21   10   23 1     
   22   12   24 1     
   23   12   25 1     
   24   12   26 1     
   25   13   16 ar    
   26   13   27 1     
   27   14   16 ar    
   28   14   28 1     
   29   15   17 2     
   30   16   29 1     
@<TRIPOS>SUBSTRUCTURE
      1 RES1           1
@<TRIPOS>SET
DONOR_HYDROGENS      STATIC     ATOMS    <user>   **** ""
2 22 23
ATOM$RED        STATIC     ATOMS    COLORGROUP SYSTEM
2 22 23
@<TRIPOS>COMMENT
> <Gold.Version>
2022.3.0

> <Gold.Id.Protein>
unknown|7kl0_clean|pdb

> <Gold.Protein.RotatedTorsions>
[ 6442 6424 6423 6421 ] final   48.91 input   59.99 | X-H torsion
[ 6434 6413 6414 6415 ] final    4.28 input   40.09 | X-H torsion
[ 6240 6222 6221 6219 ] final  107.88 input   60.01 | X-H torsion
[ 7213 7207 7208 7209 ] final    8.22 input  101.61 | X-H torsion
[ 7269 7260 7261 7262 ] final  -36.68 input  118.90 | X-H torsion
[ 7309 7295 7296 7297 ] final  -39.21 input   89.68 | X-H torsion
[ 7217 7212 7211 7208 ] final -109.65 input   60.02 | X-H torsion
[ 6577 6553 6554 6555 ] final   -6.06 input   19.71 | X-H torsion
[ 6607 6595 6596 6597 ] final -123.07 input   28.67 | X-H torsion
[ 6530 6510 6511 6512 ] final  -70.90 input   51.84 | X-H torsion
[ 6635 6620 6621 6622 ] final  120.52 input  122.94 | X-H torsion
[ 1420 1410 1409 1406 ] final   25.20 input   60.02 | X-H torsion
[ 1287 1275 1273 1270 ] final  -25.50 input   60.01 | X-H torsion
[ 6398 6391 6392 6393 ] final -134.98 input  -98.70 | X-H torsion
[ 5429 5420 5419 5417 ] final    5.32 input   59.99 | X-H torsion
[ 3115 3099 3100 3101 ] final  135.87 input  111.82 | X-H torsion
[ 2982 2971 2972 2973 ] final  -84.88 input  134.80 | X-H torsion
[ 3018 3009 3010 3011 ] final -103.63 input  114.19 | X-H torsion
[ 6268 6249 6250 6251 ] final  103.24 input  122.80 | X-H torsion
[ 6306 6287 6288 6289 ] final   76.11 input  127.97 | X-H torsion
[ 3081 3062 3063 3064 ] final -100.59 input  114.53 | X-H torsion
[ 3139 3129 3130 3131 ] final  -11.34 input  112.52 | X-H torsion
[ 4214 4203 4202 4201 ] final  -37.11 input   60.00 | X-H torsion
[ 4281 4267 4268 4269 ] final   26.72 input  109.79 | X-H torsion
[ 5391 5387 5388 5389 ] final -147.14 input  115.86 | X-H torsion
[ 1596 1580 1579 1578 ] final -139.73 input   59.99 | X-H torsion
[ 5347 5340 5338 5335 ] final -169.37 input   60.02 | X-H torsion
[  607  596  595  592 ] final -169.31 input   60.02 | X-H torsion
[ 2916 2901 2902 2903 ] final  125.35 input  112.69 | X-H torsion
[ 4310 4296 4297 4298 ] final -141.43 input   86.41 | X-H torsion
[ 2946 2930 2931 2932 ] final  109.48 input  126.41 | X-H torsion
[ 3050 3038 3039 3040 ] final   69.52 input  116.07 | X-H torsion
[ 5341 5334 5335 5336 ] final  102.41 input   67.75 | X-H torsion
[ 5421 5409 5410 5411 ] final   86.93 input   64.82 | X-H torsion
[ 5455 5447 5448 5449 ] final -170.24 input  110.01 | X-H torsion
[ 6852 6834 6833 6831 ] final  -44.48 input   59.99 | X-H torsion
[ 5322 5317 5318 5319 ] final -136.40 input  -36.16 | X-H torsion
[ 4142 4128 4129 4130 ] final  176.16 input   37.30 | X-H torsion
[ 4847 4839 4840 4841 ] final   16.56 input   74.58 | X-H torsion
[ 4166 4156 4157 4158 ] final  162.47 input  113.65 | X-H torsion
[ 4204 4195 4196 4197 ] final -140.87 input    7.17 | X-H torsion
[ 4825 4821 4822 4823 ] final  -31.41 input  114.67 | X-H torsion
[ 5308 5298 5299 5300 ] final   11.77 input   26.27 | X-H torsion
[ 1613 1589 1588 1587 ] final   48.38 input   59.99 | X-H torsion
[ 5284 5264 5265 5266 ] final -147.52 input   91.93 | X-H torsion
[ 4879 4874 4875 4876 ] final -135.93 input  114.78 | X-H torsion
[ 5250 5243 5244 5245 ] final -150.17 input  -68.46 | X-H torsion
[ 5710 5690 5689 5688 ] final  147.44 input   60.02 | X-H torsion
[ 7345 7337 7338 7339 ] final   23.28 input  116.36 | X-H torsion
[ 3215 3201 3202 3203 ] final  -27.72 input -100.55 | X-H torsion
[ 4227 4194 4193 4192 ] final -124.79 input   60.00 | X-H torsion
[  546  536  537  538 ] final   19.73 input  119.99 | X-H torsion
[ 6843 6822 6821 6819 ] final  100.26 input   59.97 | X-H torsion
[ 5806 5788 5787 5785 ] final -143.08 input   59.97 | X-H torsion
[ 8545 6453 6452 6451 ] final -177.60 input   -0.00 | X-H torsion
[ 8553 6365 6364 6363 ] final -129.82 input    0.00 | X-H torsion
[ 8555 6394 6393 6392 ] final  102.20 input    0.00 | X-H torsion
[ 8557 6416 6415 6414 ] final  138.74 input    0.00 | X-H torsion
[ 8560 7183 7182 7181 ] final   68.43 input   -0.00 | X-H torsion
[ 8562 7210 7209 7208 ] final  130.30 input    0.00 | X-H torsion
[ 8569 7147 7146 7145 ] final  130.29 input    0.00 | X-H torsion
[ 8574 7233 7232 7231 ] final   38.86 input   -0.00 | X-H torsion
[ 8577 6556 6555 6554 ] final  -38.34 input    0.00 | X-H torsion
[ 8581 6513 6512 6511 ] final  -83.37 input    0.00 | X-H torsion
[ 8586 6481 6480 6479 ] final  -72.09 input    0.00 | X-H torsion
[ 8588 6598 6597 6596 ] final   41.78 input   -0.00 | X-H torsion
[ 8621 3102 3101 3100 ] final  103.70 input    0.00 | X-H torsion
[ 8626 2974 2973 2972 ] final -162.12 input   -0.00 | X-H torsion
[ 8633 3065 3064 3063 ] final   57.25 input    0.00 | X-H torsion
[ 8635 3204 3203 3202 ] final -174.79 input   -0.00 | X-H torsion
[ 8637 6252 6251 6250 ] final  -77.82 input    0.00 | X-H torsion
[ 8646 6101 6100 6099 ] final   40.30 input    0.00 | X-H torsion
[ 8648 6134 6133 6132 ] final  176.83 input    0.00 | X-H torsion
[ 8650 2933 2932 2931 ] final  140.12 input    0.00 | X-H torsion
[ 8652 3012 3011 3010 ] final  -41.28 input    0.00 | X-H torsion
[ 8658 6623 6622 6621 ] final  -73.71 input    0.00 | X-H torsion
[ 8674 4240 4239 4238 ] final  -98.92 input    0.00 | X-H torsion
[ 8676 4270 4269 4268 ] final   81.08 input    0.00 | X-H torsion
[ 8687 2904 2903 2902 ] final  144.35 input    0.00 | X-H torsion
[ 8698 5337 5336 5335 ] final -136.92 input    0.00 | X-H torsion
[ 8700 5320 5319 5318 ] final -167.85 input    0.00 | X-H torsion
[ 8702 5365 5364 5363 ] final  138.64 input   -0.00 | X-H torsion
[ 8705 5390 5389 5388 ] final   43.01 input   -0.00 | X-H torsion
[ 8711 4131 4130 4129 ] final -179.98 input    0.00 | X-H torsion
[ 8713 5301 5300 5299 ] final  -46.96 input    0.00 | X-H torsion
[ 8715 4086 4085 4084 ] final  152.27 input    0.00 | X-H torsion
[ 8723 4764 4763 4762 ] final  -70.81 input    0.00 | X-H torsion
[ 8726 4159 4158 4157 ] final    4.78 input    0.00 | X-H torsion
[ 8729  485  484  483 ] final   53.63 input    0.00 | X-H torsion
[ 8732 5267 5266 5265 ] final   79.44 input    0.00 | X-H torsion
[ 8736 4824 4823 4822 ] final  -68.22 input   -0.00 | X-H torsion
[ 8738 4842 4841 4840 ] final   41.70 input    0.00 | X-H torsion
[ 8742 5246 5245 5244 ] final   79.49 input    0.00 | X-H torsion
[ 8753 5213 5212 5211 ] final -137.09 input   -0.00 | X-H torsion
[ 8756 4877 4876 4875 ] final  159.61 input    0.00 | X-H torsion

> <Gold.Protein.ActiveResidues>
 GLU18   GLY20   LYS21   GLY22   ALA23   PHE24   SER25   VAL26   VAL27   ARG28  
 ILE43   ILE44   ASN45   THR46   LYS47   LYS48   LEU49   SER50   ARG52   ASP53  
 LYS56   ARG59   GLY83   HIS84   GLY95   GLU96   LEU97   PHE98   GLU99   ASP100 
 ILE101  VAL102  ALA103  GLU105  TYR106  HIS133  ARG134  ASN135  LEU136  LYS137 
 PRO138  GLU139  ASN140  ASP156  GLY158  LEU159  ALA160  ILE161  TRP170  PHE171 
 GLY172  PHE173  ALA174  GLY175  THR176  PRO177  GLY178  TYR179  LEU180  VAL184 
 LYS187  TYR190  VAL201  ILE202  TYR204  ILE205  LEU206  VAL208  GLY209  TYR210 
 PRO211  PRO212  PHE213  TRP214  ASP215  GLU216  ASP217  GLN218  HIS219  LEU221 
 TYR222  GLN224  ILE225  ASP231  PHE232  PRO233  SER234  PRO235  GLU236  TRP237 
 ASP238 

> <Gold.Protein.RotatedAtoms>
  -12.2176  -17.4926  -20.0146 H   0  0  0  0  0  0  0  0  0  0  0  0  # atno 546  bound_to 536 
    6.5679  -16.4267  -22.8377 H   0  0  0  0  0  0  0  0  0  0  0  0  # atno 607  bound_to 596 
   15.8669  -17.4759  -30.0152 H   0  0  0  0  0  0  0  0  0  0  0  0  # atno 1287 bound_to 1275
   13.7506   -6.1285  -27.6881 H   0  0  0  0  0  0  0  0  0  0  0  0  # atno 1420 bound_to 1410
    7.7131   -5.5850  -21.5404 H   0  0  0  0  0  0  0  0  0  0  0  0  # atno 1596 bound_to 1580
    8.8644   -4.8028  -22.4404 H   0  0  0  0  0  0  0  0  0  0  0  0  # atno 1597 bound_to 1580
    8.1618   -6.1891  -23.0170 H   0  0  0  0  0  0  0  0  0  0  0  0  # atno 1598 bound_to 1580
  -18.8376  -11.9656  -24.3382 H   0  0  0  0  0  0  0  0  0  0  0  0  # atno 1613 bound_to 1589
  -18.0186  -12.0675  -25.7760 H   0  0  0  0  0  0  0  0  0  0  0  0  # atno 1614 bound_to 1589
  -19.0188  -10.7789  -25.4809 H   0  0  0  0  0  0  0  0  0  0  0  0  # atno 1615 bound_to 1589
   -1.0964  -24.7930  -32.0255 H   0  0  0  0  0  0  0  0  0  0  0  0  # atno 2916 bound_to 2901
   -2.4394  -22.4035  -35.8298 H   0  0  0  0  0  0  0  0  0  0  0  0  # atno 2946 bound_to 2930
    0.0792  -20.6288  -36.7321 H   0  0  0  0  0  0  0  0  0  0  0  0  # atno 2982 bound_to 2971
    2.4439  -20.3122  -34.2249 H   0  0  0  0  0  0  0  0  0  0  0  0  # atno 3018 bound_to 3009
    2.8537  -22.4521  -36.0911 H   0  0  0  0  0  0  0  0  0  0  0  0  # atno 3050 bound_to 3038
    4.4733  -22.2119  -38.5101 H   0  0  0  0  0  0  0  0  0  0  0  0  # atno 3081 bound_to 3062
    5.2433  -19.6274  -36.3217 H   0  0  0  0  0  0  0  0  0  0  0  0  # atno 3115 bound_to 3099
    8.1778  -20.7197  -36.8663 H   0  0  0  0  0  0  0  0  0  0  0  0  # atno 3139 bound_to 3129
    8.5551  -20.2374  -39.9193 H   0  0  0  0  0  0  0  0  0  0  0  0  # atno 3215 bound_to 3201
  -13.2324  -12.0864  -35.0859 H   0  0  0  0  0  0  0  0  0  0  0  0  # atno 4142 bound_to 4128
  -11.1654  -13.8491  -36.9011 H   0  0  0  0  0  0  0  0  0  0  0  0  # atno 4166 bound_to 4156
   -7.3365  -14.4212  -37.3721 H   0  0  0  0  0  0  0  0  0  0  0  0  # atno 4204 bound_to 4195
   -5.3324  -13.2330  -30.3251 H   0  0  0  0  0  0  0  0  0  0  0  0  # atno 4214 bound_to 4203
   -6.9520  -12.8795  -30.3230 H   0  0  0  0  0  0  0  0  0  0  0  0  # atno 4215 bound_to 4203
   -6.3907  -14.2030  -29.4973 H   0  0  0  0  0  0  0  0  0  0  0  0  # atno 4216 bound_to 4203
   -3.4005  -12.8517  -15.9060 H   0  0  0  0  0  0  0  0  0  0  0  0  # atno 4227 bound_to 4194
   -4.0471  -11.5495  -15.1098 H   0  0  0  0  0  0  0  0  0  0  0  0  # atno 4228 bound_to 4194
   -2.5015  -11.4742  -15.7038 H   0  0  0  0  0  0  0  0  0  0  0  0  # atno 4229 bound_to 4194
   -4.1780  -17.7037  -34.6589 H   0  0  0  0  0  0  0  0  0  0  0  0  # atno 4281 bound_to 4267
   -5.5655  -18.8682  -32.8270 H   0  0  0  0  0  0  0  0  0  0  0  0  # atno 4310 bound_to 4296
  -16.4155  -17.6257  -31.2320 H   0  0  0  0  0  0  0  0  0  0  0  0  # atno 4825 bound_to 4821
  -16.4313  -15.9099  -31.0809 H   0  0  0  0  0  0  0  0  0  0  0  0  # atno 4847 bound_to 4839
  -16.7857  -14.5518  -32.6518 H   0  0  0  0  0  0  0  0  0  0  0  0  # atno 4879 bound_to 4874
  -21.5799   -3.9324  -32.5231 H   0  0  0  0  0  0  0  0  0  0  0  0  # atno 5250 bound_to 5243
  -18.1212   -3.1193  -31.1974 H   0  0  0  0  0  0  0  0  0  0  0  0  # atno 5284 bound_to 5264
  -14.8827   -5.4242  -31.7971 H   0  0  0  0  0  0  0  0  0  0  0  0  # atno 5308 bound_to 5298
  -13.2501   -8.6793  -31.0508 H   0  0  0  0  0  0  0  0  0  0  0  0  # atno 5322 bound_to 5317
   -9.1662   -9.6104  -32.7845 H   0  0  0  0  0  0  0  0  0  0  0  0  # atno 5341 bound_to 5334
   -7.1580  -12.0531  -31.1177 H   0  0  0  0  0  0  0  0  0  0  0  0  # atno 5347 bound_to 5340
   -3.6188   -5.9167  -32.9682 H   0  0  0  0  0  0  0  0  0  0  0  0  # atno 5391 bound_to 5387
   -5.3311   -7.8564  -34.9295 H   0  0  0  0  0  0  0  0  0  0  0  0  # atno 5421 bound_to 5409
   -0.9693  -12.6919  -36.6897 H   0  0  0  0  0  0  0  0  0  0  0  0  # atno 5429 bound_to 5420
   -7.3598   -7.0293  -35.5438 H   0  0  0  0  0  0  0  0  0  0  0  0  # atno 5455 bound_to 5447
  -14.3856    2.3910  -28.9709 H   0  0  0  0  0  0  0  0  0  0  0  0  # atno 5710 bound_to 5690
  -13.8864    2.0137  -30.5050 H   0  0  0  0  0  0  0  0  0  0  0  0  # atno 5711 bound_to 5690
  -14.2428    3.5837  -30.1130 H   0  0  0  0  0  0  0  0  0  0  0  0  # atno 5712 bound_to 5690
  -19.1632   -5.5440  -34.0327 H   0  0  0  0  0  0  0  0  0  0  0  0  # atno 5806 bound_to 5788
    5.8079   -6.0951  -45.3111 H   0  0  0  0  0  0  0  0  0  0  0  0  # atno 6240 bound_to 6222
    0.7642  -12.2716  -42.8488 H   0  0  0  0  0  0  0  0  0  0  0  0  # atno 6268 bound_to 6249
    1.7653  -14.3129  -43.8542 H   0  0  0  0  0  0  0  0  0  0  0  0  # atno 6306 bound_to 6287
    6.0841  -14.2374  -42.8949 H   0  0  0  0  0  0  0  0  0  0  0  0  # atno 6398 bound_to 6391
    5.8912  -11.9945  -41.0931 H   0  0  0  0  0  0  0  0  0  0  0  0  # atno 6434 bound_to 6413
    8.7052   -6.0932  -43.7097 H   0  0  0  0  0  0  0  0  0  0  0  0  # atno 6442 bound_to 6424
    2.1760   -4.7524  -39.7330 H   0  0  0  0  0  0  0  0  0  0  0  0  # atno 6530 bound_to 6510
    2.0904   -2.2799  -36.9805 H   0  0  0  0  0  0  0  0  0  0  0  0  # atno 6577 bound_to 6553
    3.2411   -2.1549  -34.1068 H   0  0  0  0  0  0  0  0  0  0  0  0  # atno 6607 bound_to 6595
    5.0559   -0.2174  -30.7600 H   0  0  0  0  0  0  0  0  0  0  0  0  # atno 6635 bound_to 6620
   -7.3460   -1.8463  -17.9989 H   0  0  0  0  0  0  0  0  0  0  0  0  # atno 6843 bound_to 6822
   -7.6471   -3.0531  -30.5394 H   0  0  0  0  0  0  0  0  0  0  0  0  # atno 6852 bound_to 6834
   12.2373   -3.7986  -47.6456 H   0  0  0  0  0  0  0  0  0  0  0  0  # atno 7213 bound_to 7207
   15.9221   -4.3519  -50.7562 H   0  0  0  0  0  0  0  0  0  0  0  0  # atno 7217 bound_to 7212
   13.5571   -8.0850  -49.2290 H   0  0  0  0  0  0  0  0  0  0  0  0  # atno 7269 bound_to 7260
   11.7127   -9.1538  -49.8893 H   0  0  0  0  0  0  0  0  0  0  0  0  # atno 7309 bound_to 7295
   11.3482   -9.0967  -51.8680 H   0  0  0  0  0  0  0  0  0  0  0  0  # atno 7345 bound_to 7337
    7.8612   -7.1870  -44.5700 LP  0  0  0  0  0  0  0  0  0  0  0  0  # atno 8537 bound_to 6424
    9.4625   -7.3950  -44.3267 LP  0  0  0  0  0  0  0  0  0  0  0  0  # atno 8538 bound_to 6424
    7.1959  -12.5640  -40.0705 LP  0  0  0  0  0  0  0  0  0  0  0  0  # atno 8543 bound_to 6413
    4.1577   -5.7654  -40.2878 LP  0  0  0  0  0  0  0  0  0  0  0  0  # atno 8545 bound_to 6453
    4.8326   -7.0094  -39.2893 LP  0  0  0  0  0  0  0  0  0  0  0  0  # atno 8546 bound_to 6453
    5.7553   -6.0610  -43.6849 LP  0  0  0  0  0  0  0  0  0  0  0  0  # atno 8551 bound_to 6222
    4.8563   -5.0122  -44.5557 LP  0  0  0  0  0  0  0  0  0  0  0  0  # atno 8552 bound_to 6222
    9.3189  -13.7081  -41.8973 LP  0  0  0  0  0  0  0  0  0  0  0  0  # atno 8553 bound_to 6365
    9.2792  -12.1366  -42.6246 LP  0  0  0  0  0  0  0  0  0  0  0  0  # atno 8554 bound_to 6365
    8.0631  -13.1843  -38.3314 LP  0  0  0  0  0  0  0  0  0  0  0  0  # atno 8555 bound_to 6394
    6.4839  -13.8532  -38.0892 LP  0  0  0  0  0  0  0  0  0  0  0  0  # atno 8556 bound_to 6394
    3.6997  -10.2148  -41.3092 LP  0  0  0  0  0  0  0  0  0  0  0  0  # atno 8557 bound_to 6416
    5.3741  -10.0406  -41.7166 LP  0  0  0  0  0  0  0  0  0  0  0  0  # atno 8558 bound_to 6416
   10.1367   -6.1262  -48.6159 LP  0  0  0  0  0  0  0  0  0  0  0  0  # atno 8560 bound_to 7183
   11.4592   -6.3900  -47.5289 LP  0  0  0  0  0  0  0  0  0  0  0  0  # atno 8561 bound_to 7183
   14.1430   -4.9436  -46.1119 LP  0  0  0  0  0  0  0  0  0  0  0  0  # atno 8562 bound_to 7210
   14.3761   -3.4911  -47.0262 LP  0  0  0  0  0  0  0  0  0  0  0  0  # atno 8563 bound_to 7210
   11.4423   -3.7358  -49.2136 LP  0  0  0  0  0  0  0  0  0  0  0  0  # atno 8566 bound_to 7207
   13.8166   -8.1383  -47.5019 LP  0  0  0  0  0  0  0  0  0  0  0  0  # atno 8568 bound_to 7260
    9.1914   -3.0572  -49.7895 LP  0  0  0  0  0  0  0  0  0  0  0  0  # atno 8569 bound_to 7147
    8.5046   -4.5035  -50.4503 LP  0  0  0  0  0  0  0  0  0  0  0  0  # atno 8570 bound_to 7147
   10.8922   -8.1984  -48.6714 LP  0  0  0  0  0  0  0  0  0  0  0  0  # atno 8571 bound_to 7295
   14.8256   -4.3236  -51.9581 LP  0  0  0  0  0  0  0  0  0  0  0  0  # atno 8572 bound_to 7212
   14.8163   -5.5403  -50.8689 LP  0  0  0  0  0  0  0  0  0  0  0  0  # atno 8573 bound_to 7212
   14.4827   -8.7637  -51.2541 LP  0  0  0  0  0  0  0  0  0  0  0  0  # atno 8574 bound_to 7233
   12.8094   -8.8299  -50.8117 LP  0  0  0  0  0  0  0  0  0  0  0  0  # atno 8575 bound_to 7233
    1.7775   -3.9997  -37.0983 LP  0  0  0  0  0  0  0  0  0  0  0  0  # atno 8576 bound_to 6553
    4.4281   -1.7827  -35.9819 LP  0  0  0  0  0  0  0  0  0  0  0  0  # atno 8577 bound_to 6556
    3.6660   -0.3380  -35.4056 LP  0  0  0  0  0  0  0  0  0  0  0  0  # atno 8578 bound_to 6556
   -0.0630   -5.1936  -36.2448 LP  0  0  0  0  0  0  0  0  0  0  0  0  # atno 8581 bound_to 6513
    1.3979   -5.9613  -36.7706 LP  0  0  0  0  0  0  0  0  0  0  0  0  # atno 8582 bound_to 6513
    1.7228   -1.9248  -33.2563 LP  0  0  0  0  0  0  0  0  0  0  0  0  # atno 8583 bound_to 6595
    0.5172   -5.2841  -39.9506 LP  0  0  0  0  0  0  0  0  0  0  0  0  # atno 8585 bound_to 6510
    3.2184   -3.1290  -40.9759 LP  0  0  0  0  0  0  0  0  0  0  0  0  # atno 8586 bound_to 6481
    1.5801   -2.6621  -41.2888 LP  0  0  0  0  0  0  0  0  0  0  0  0  # atno 8587 bound_to 6481
    1.7423   -2.2451  -31.2833 LP  0  0  0  0  0  0  0  0  0  0  0  0  # atno 8588 bound_to 6598
    1.7357   -1.2445  -29.8695 LP  0  0  0  0  0  0  0  0  0  0  0  0  # atno 8589 bound_to 6598
    3.4600   -0.9430  -30.8640 LP  0  0  0  0  0  0  0  0  0  0  0  0  # atno 8590 bound_to 6620
   12.2354   -6.3307  -28.2453 LP  0  0  0  0  0  0  0  0  0  0  0  0  # atno 8605 bound_to 1410
   12.7932   -4.8324  -27.9125 LP  0  0  0  0  0  0  0  0  0  0  0  0  # atno 8606 bound_to 1410
   16.9270  -17.5631  -28.7836 LP  0  0  0  0  0  0  0  0  0  0  0  0  # atno 8617 bound_to 1275
   17.2433  -16.6093  -30.0708 LP  0  0  0  0  0  0  0  0  0  0  0  0  # atno 8618 bound_to 1275
   10.3111  -19.6161  -35.6087 LP  0  0  0  0  0  0  0  0  0  0  0  0  # atno 8621 bound_to 3102
    9.8764  -19.2549  -37.2459 LP  0  0  0  0  0  0  0  0  0  0  0  0  # atno 8622 bound_to 3102
    7.2617  -12.9770  -42.5958 LP  0  0  0  0  0  0  0  0  0  0  0  0  # atno 8623 bound_to 6391
   -1.4547  -13.1919  -35.2193 LP  0  0  0  0  0  0  0  0  0  0  0  0  # atno 8624 bound_to 5420
   -0.6701  -11.7692  -35.3833 LP  0  0  0  0  0  0  0  0  0  0  0  0  # atno 8625 bound_to 5420
    4.2317  -20.2233  -35.5695 LP  0  0  0  0  0  0  0  0  0  0  0  0  # atno 8626 bound_to 2974
    3.3705  -18.7303  -35.7409 LP  0  0  0  0  0  0  0  0  0  0  0  0  # atno 8627 bound_to 2974
    6.2791  -19.9742  -37.6894 LP  0  0  0  0  0  0  0  0  0  0  0  0  # atno 8632 bound_to 3099
    6.9845  -18.5305  -39.4256 LP  0  0  0  0  0  0  0  0  0  0  0  0  # atno 8633 bound_to 3065
    7.9878  -19.7333  -38.6862 LP  0  0  0  0  0  0  0  0  0  0  0  0  # atno 8634 bound_to 3065
    7.5345  -16.5588  -41.4226 LP  0  0  0  0  0  0  0  0  0  0  0  0  # atno 8635 bound_to 3204
    8.3327  -16.4431  -39.8899 LP  0  0  0  0  0  0  0  0  0  0  0  0  # atno 8636 bound_to 3204
    4.9816  -14.2158  -42.9300 LP  0  0  0  0  0  0  0  0  0  0  0  0  # atno 8637 bound_to 6252
    4.4841  -15.3764  -41.7444 LP  0  0  0  0  0  0  0  0  0  0  0  0  # atno 8638 bound_to 6252
   -0.5350  -21.0550  -35.1439 LP  0  0  0  0  0  0  0  0  0  0  0  0  # atno 8639 bound_to 2971
    1.5941  -21.8219  -34.5149 LP  0  0  0  0  0  0  0  0  0  0  0  0  # atno 8640 bound_to 3009
    2.2253  -11.7433  -43.6612 LP  0  0  0  0  0  0  0  0  0  0  0  0  # atno 8644 bound_to 6249
    2.3931  -14.8997  -42.3283 LP  0  0  0  0  0  0  0  0  0  0  0  0  # atno 8645 bound_to 6287
   -0.4358  -10.4137  -41.5994 LP  0  0  0  0  0  0  0  0  0  0  0  0  # atno 8646 bound_to 6101
   -0.4687  -11.7866  -42.6549 LP  0  0  0  0  0  0  0  0  0  0  0  0  # atno 8647 bound_to 6101
    0.0212  -14.8273  -43.8242 LP  0  0  0  0  0  0  0  0  0  0  0  0  # atno 8648 bound_to 6134
   -0.2160  -14.7410  -42.1106 LP  0  0  0  0  0  0  0  0  0  0  0  0  # atno 8649 bound_to 6134
    1.9613  -20.5273  -37.5217 LP  0  0  0  0  0  0  0  0  0  0  0  0  # atno 8650 bound_to 2933
    1.8701  -22.2562  -37.5720 LP  0  0  0  0  0  0  0  0  0  0  0  0  # atno 8651 bound_to 2933
    6.0702  -21.7242  -34.7260 LP  0  0  0  0  0  0  0  0  0  0  0  0  # atno 8652 bound_to 3012
    6.1345  -23.3166  -35.4043 LP  0  0  0  0  0  0  0  0  0  0  0  0  # atno 8653 bound_to 3012
    3.7687  -21.1909  -37.2736 LP  0  0  0  0  0  0  0  0  0  0  0  0  # atno 8654 bound_to 3062
    7.6329  -21.3793  -35.3353 LP  0  0  0  0  0  0  0  0  0  0  0  0  # atno 8655 bound_to 3129
   -2.4482  -17.7798  -34.3854 LP  0  0  0  0  0  0  0  0  0  0  0  0  # atno 8656 bound_to 4267
   -4.6961   -7.1799  -33.5205 LP  0  0  0  0  0  0  0  0  0  0  0  0  # atno 8657 bound_to 5387
    1.9905   -1.2624  -27.2090 LP  0  0  0  0  0  0  0  0  0  0  0  0  # atno 8658 bound_to 6623
    2.7226    0.0437  -26.3383 LP  0  0  0  0  0  0  0  0  0  0  0  0  # atno 8659 bound_to 6623
   -8.5235  -11.3129  -31.6030 LP  0  0  0  0  0  0  0  0  0  0  0  0  # atno 8668 bound_to 5340
   -7.8014  -10.8672  -30.2079 LP  0  0  0  0  0  0  0  0  0  0  0  0  # atno 8669 bound_to 5340
    5.5185  -17.5758  -23.3127 LP  0  0  0  0  0  0  0  0  0  0  0  0  # atno 8672 bound_to 596 
    5.7359  -16.2378  -24.2232 LP  0  0  0  0  0  0  0  0  0  0  0  0  # atno 8673 bound_to 596 
   -3.7991  -20.3369  -35.5755 LP  0  0  0  0  0  0  0  0  0  0  0  0  # atno 8674 bound_to 4240
   -2.0770  -20.2209  -35.4308 LP  0  0  0  0  0  0  0  0  0  0  0  0  # atno 8675 bound_to 4240
   -5.3518  -20.5681  -31.3746 LP  0  0  0  0  0  0  0  0  0  0  0  0  # atno 8676 bound_to 4270
   -4.9865  -21.4578  -32.8151 LP  0  0  0  0  0  0  0  0  0  0  0  0  # atno 8677 bound_to 4270
   -1.4443  -25.6461  -33.5131 LP  0  0  0  0  0  0  0  0  0  0  0  0  # atno 8686 bound_to 2901
    0.7219  -23.9780  -35.7584 LP  0  0  0  0  0  0  0  0  0  0  0  0  # atno 8687 bound_to 2904
    0.8615  -23.4533  -34.1137 LP  0  0  0  0  0  0  0  0  0  0  0  0  # atno 8688 bound_to 2904
   -5.3469  -18.7846  -34.5690 LP  0  0  0  0  0  0  0  0  0  0  0  0  # atno 8689 bound_to 4296
   -1.0669  -23.3663  -35.3249 LP  0  0  0  0  0  0  0  0  0  0  0  0  # atno 8694 bound_to 2930
    4.0282  -23.3564  -35.1538 LP  0  0  0  0  0  0  0  0  0  0  0  0  # atno 8695 bound_to 3038
   -9.6073   -8.2777  -31.7296 LP  0  0  0  0  0  0  0  0  0  0  0  0  # atno 8697 bound_to 5334
   -6.0838   -7.2979  -34.0690 LP  0  0  0  0  0  0  0  0  0  0  0  0  # atno 8698 bound_to 5337
   -7.7710   -7.6853  -34.0129 LP  0  0  0  0  0  0  0  0  0  0  0  0  # atno 8699 bound_to 5337
   -9.0674   -8.1323  -29.6715 LP  0  0  0  0  0  0  0  0  0  0  0  0  # atno 8700 bound_to 5320
  -10.7760   -8.3913  -29.5546 LP  0  0  0  0  0  0  0  0  0  0  0  0  # atno 8701 bound_to 5320
   -4.5280   -4.4700  -34.9468 LP  0  0  0  0  0  0  0  0  0  0  0  0  # atno 8702 bound_to 5365
   -6.1795   -4.6905  -34.4734 LP  0  0  0  0  0  0  0  0  0  0  0  0  # atno 8703 bound_to 5365
   -4.4769   -6.9353  -36.1588 LP  0  0  0  0  0  0  0  0  0  0  0  0  # atno 8704 bound_to 5409
   -2.5647   -7.0687  -37.4573 LP  0  0  0  0  0  0  0  0  0  0  0  0  # atno 8705 bound_to 5390
   -4.0961   -6.4443  -37.9720 LP  0  0  0  0  0  0  0  0  0  0  0  0  # atno 8706 bound_to 5390
   -6.8361   -6.2124  -36.9986 LP  0  0  0  0  0  0  0  0  0  0  0  0  # atno 8707 bound_to 5447
   -7.9239   -2.0239  -29.3096 LP  0  0  0  0  0  0  0  0  0  0  0  0  # atno 8708 bound_to 6834
   -6.4286   -2.6367  -29.5443 LP  0  0  0  0  0  0  0  0  0  0  0  0  # atno 8709 bound_to 6834
  -12.2245   -7.3163  -30.6420 LP  0  0  0  0  0  0  0  0  0  0  0  0  # atno 8710 bound_to 5317
   -8.9976  -15.2271  -34.9559 LP  0  0  0  0  0  0  0  0  0  0  0  0  # atno 8711 bound_to 4131
   -9.7422  -14.5295  -33.5563 LP  0  0  0  0  0  0  0  0  0  0  0  0  # atno 8712 bound_to 4131
  -14.4480   -7.2934  -33.2066 LP  0  0  0  0  0  0  0  0  0  0  0  0  # atno 8713 bound_to 5301
  -12.8174   -6.7108  -33.2480 LP  0  0  0  0  0  0  0  0  0  0  0  0  # atno 8714 bound_to 5301
  -11.9475  -10.4399  -34.2905 LP  0  0  0  0  0  0  0  0  0  0  0  0  # atno 8715 bound_to 4086
  -12.7933   -9.5233  -35.4923 LP  0  0  0  0  0  0  0  0  0  0  0  0  # atno 8716 bound_to 4086
  -12.5406  -13.0876  -36.3411 LP  0  0  0  0  0  0  0  0  0  0  0  0  # atno 8717 bound_to 4128
  -15.9331  -15.4162  -29.4722 LP  0  0  0  0  0  0  0  0  0  0  0  0  # atno 8722 bound_to 4839
  -13.0034  -17.5875  -31.7564 LP  0  0  0  0  0  0  0  0  0  0  0  0  # atno 8723 bound_to 4764
  -13.2241  -18.0093  -33.4217 LP  0  0  0  0  0  0  0  0  0  0  0  0  # atno 8724 bound_to 4764
   -9.9202  -13.2797  -35.8090 LP  0  0  0  0  0  0  0  0  0  0  0  0  # atno 8725 bound_to 4156
   -8.3562  -12.2746  -37.1625 LP  0  0  0  0  0  0  0  0  0  0  0  0  # atno 8726 bound_to 4159
   -6.6748  -12.5574  -36.8579 LP  0  0  0  0  0  0  0  0  0  0  0  0  # atno 8727 bound_to 4159
   -7.4411  -15.8097  -36.2932 LP  0  0  0  0  0  0  0  0  0  0  0  0  # atno 8728 bound_to 4195
   -8.1441  -20.0767  -23.4494 LP  0  0  0  0  0  0  0  0  0  0  0  0  # atno 8729 bound_to 485 
   -8.1929  -18.4988  -22.7368 LP  0  0  0  0  0  0  0  0  0  0  0  0  # atno 8730 bound_to 485 
  -15.4489  -18.7315  -30.2739 LP  0  0  0  0  0  0  0  0  0  0  0  0  # atno 8731 bound_to 4821
  -16.6384   -5.5252  -28.4299 LP  0  0  0  0  0  0  0  0  0  0  0  0  # atno 8732 bound_to 5267
  -14.9688   -5.1287  -28.1953 LP  0  0  0  0  0  0  0  0  0  0  0  0  # atno 8733 bound_to 5267
  -15.6785   -5.3335  -30.2362 LP  0  0  0  0  0  0  0  0  0  0  0  0  # atno 8734 bound_to 5298
  -18.1141   -4.1278  -29.7640 LP  0  0  0  0  0  0  0  0  0  0  0  0  # atno 8735 bound_to 5264
  -18.5901  -15.4959  -28.5818 LP  0  0  0  0  0  0  0  0  0  0  0  0  # atno 8736 bound_to 4824
  -17.2779  -14.5574  -27.9513 LP  0  0  0  0  0  0  0  0  0  0  0  0  # atno 8737 bound_to 4824
  -17.0891  -11.8280  -32.4347 LP  0  0  0  0  0  0  0  0  0  0  0  0  # atno 8738 bound_to 4842
  -18.6720  -12.4445  -32.7732 LP  0  0  0  0  0  0  0  0  0  0  0  0  # atno 8739 bound_to 4842
  -18.0067   -3.8774  -33.3667 LP  0  0  0  0  0  0  0  0  0  0  0  0  # atno 8742 bound_to 5246
  -17.6077   -5.4101  -32.6654 LP  0  0  0  0  0  0  0  0  0  0  0  0  # atno 8743 bound_to 5246
  -18.2064  -15.0865  -31.7746 LP  0  0  0  0  0  0  0  0  0  0  0  0  # atno 8752 bound_to 4874
  -21.4220   -6.2903  -30.9144 LP  0  0  0  0  0  0  0  0  0  0  0  0  # atno 8753 bound_to 5213
  -21.2920   -7.3509  -32.2776 LP  0  0  0  0  0  0  0  0  0  0  0  0  # atno 8754 bound_to 5213
  -20.2752   -4.9035  -33.1772 LP  0  0  0  0  0  0  0  0  0  0  0  0  # atno 8755 bound_to 5243
  -21.2405  -13.7857  -32.4885 LP  0  0  0  0  0  0  0  0  0  0  0  0  # atno 8756 bound_to 4877
  -20.2281  -15.1202  -32.0477 LP  0  0  0  0  0  0  0  0  0  0  0  0  # atno 8757 bound_to 4877

> <Gold.Score>
     Fitness  S(hb_ext) S(vdw_ext)  S(hb_int)    S(int)      intcor
     21.71       0.34      15.56       0.00      -0.02      -0.76

> <Gold.Goldscore.Fitness>
21.7090

> <Gold.Goldscore.Internal.Vdw>
-0.4217

> <Gold.Goldscore.Internal.Torsion>
-0.3674

> <Gold.Goldscore.External.Vdw>
15.5573

> <Gold.Goldscore.Internal.HBond>
0.0000

> <Gold.Goldscore.External.HBond>
0.3418

> <Gold.Goldscore.Internal.Correction>
-0.7650

> <Gold.Goldscore.Hbonds>
donor molecule, donor type, donor heavy atom, donor atom, acceptor molecule, acceptor atom, score
      L1  H     8    22       P1  6453  0.17

> <Gold.Goldscore.Internal.Vdw.Weighted>
-0.4217

> <Gold.Goldscore.Internal.Torsion.Weighted>
-0.3674

> <Gold.Goldscore.External.Vdw.Weighted>
21.3913

> <Gold.Goldscore.Internal.HBond.Weighted>
0.0000

> <Gold.Goldscore.External.HBond.Weighted>
0.3418

> <Gold.Goldscore.Internal.Correction.Weighted>
-0.7650

> <Gold.Rescore>
     Score     S(PLP)   S(hbond)     S(cho)   S(metal)  DE(clash)   DE(tors)     intcor
     22.83     -19.30       1.20       0.00       0.00       0.00       0.04       ----

> <Gold.PLP.Fitness>
22.8337

> <Gold.PLP.PLP>
-19.3034

> <Gold.PLP.part.hbond>
-3.3175

> <Gold.PLP.part.metal>
0.0000

> <Gold.PLP.part.buried>
-5.7758

> <Gold.PLP.part.nonpolar>
-11.5583

> <Gold.PLP.part.repulsive>
1.6673

> <Gold.PLP.ligand.clash>
0.0000

> <Gold.PLP.ligand.torsion>
0.0357

> <Gold.PLP.Chemscore.Hbond>
1.2006

> <Gold.PLP.Chemscore.CHOScore>
0.0000

> <Gold.PLP.Chemscore.Metal>
0.0000

> <Gold.Chemscore.Hbonds>
donor molecule, donor type, donor heavy atom, donor atom, acceptor molecule, acceptor atom, score
      L1  H     8    22       P1  6453  0.39

> <Gold.PLP.Chemscore.Internal.Correction>
   9.000000E+99

