#       Name:                CT1002167954
#       Creating user name   hitesit
#       Creation time:       Sun Apr 16 02:23:43 2023


#       File generated by GOLD software.
#

@<TRIPOS>MOLECULE
CT1002167954|ligand_prepared|mol2|1|dock2
    29    30     1
SMALL
NO_CHARGES


@<TRIPOS>ATOM
      1 C1          -8.8859  -5.1084 -26.0918 C.3            1 RES1               0.0000
      2 C2         -10.2576  -4.6727 -25.5373 C.ar           1 RES1               0.0000
      3 C3          -9.1294  -6.3954 -26.8745 C.2            1 RES1               0.0000
      4 C4          -8.3820  -3.9484 -26.9433 C.2            1 RES1               0.0000
      5 C5          -7.8308  -5.3913 -24.9972 C.3            1 RES1               0.0000
      6 C6         -11.4344  -5.1869 -26.0735 C.ar           1 RES1               0.0000
      7 C7         -10.3619  -3.7611 -24.4901 C.ar           1 RES1               0.0000
      8 N8          -9.0927  -6.3235 -28.2359 N.am           1 RES1               0.0000
      9 O9          -9.3887  -7.4493 -26.3066 O.2            1 RES1               0.0000
     10 N10         -8.2518  -4.1511 -28.2922 N.am           1 RES1               0.0000
     11 O11         -8.1122  -2.8554 -26.4605 O.2            1 RES1               0.0000
     12 C12         -6.5467  -6.0086 -25.5283 C.3            1 RES1               0.0000
     13 C13        -12.6707  -4.8059 -25.5787 C.ar           1 RES1               0.0000
     14 C14        -11.5993  -3.3813 -23.9970 C.ar           1 RES1               0.0000
     15 C15         -8.6136  -5.2765 -28.9814 C.2            1 RES1               0.0000
     16 C16        -12.7540  -3.9033 -24.5400 C.ar           1 RES1               0.0000
     17 O17         -8.5170  -5.3636 -30.2021 O.2            1 RES1               0.0000
     18 H18         -7.5866  -4.4496 -24.4904 H              1 RES1               0.0000
     19 H19         -8.2669  -6.0692 -24.2531 H              1 RES1               0.0000
     20 H20        -11.3887  -5.8965 -26.8929 H              1 RES1               0.0000
     21 H21         -9.4669  -3.3366 -24.0482 H              1 RES1               0.0000
     22 H22         -9.4552  -7.1221 -28.7469 H              1 RES1               0.0000
     23 H23         -7.8477  -3.3929 -28.8327 H              1 RES1               0.0000
     24 H24         -5.8410  -6.1866 -24.7196 H              1 RES1               0.0000
     25 H25         -6.7490  -6.9595 -26.0169 H              1 RES1               0.0000
     26 H26         -6.0727  -5.3495 -26.2527 H              1 RES1               0.0000
     27 H27        -13.5765  -5.2186 -26.0105 H              1 RES1               0.0000
     28 H28        -11.6601  -2.6701 -23.1798 H              1 RES1               0.0000
     29 H29        -13.7226  -3.6053 -24.1524 H              1 RES1               0.0000
@<TRIPOS>BOND
    1    1    2 1     
    2    1    3 1     
    3    1    4 1     
    4    1    5 1     
    5    2    6 ar    
    6    2    7 ar    
    7    3    8 1     
    8    3    9 2     
    9    4   10 1     
   10    4   11 2     
   11    5   12 1     
   12    5   18 1     
   13    5   19 1     
   14    6   13 ar    
   15    6   20 1     
   16    7   14 ar    
   17    7   21 1     
   18    8   15 1     
   19    8   22 1     
   20   10   15 1     
   21   10   23 1     
   22   12   24 1     
   23   12   25 1     
   24   12   26 1     
   25   13   16 ar    
   26   13   27 1     
   27   14   16 ar    
   28   14   28 1     
   29   15   17 2     
   30   16   29 1     
@<TRIPOS>SUBSTRUCTURE
      1 RES1           1
@<TRIPOS>SET
DONOR_HYDROGENS      STATIC     ATOMS    <user>   **** ""
2 22 23
ATOM$RED        STATIC     ATOMS    COLORGROUP SYSTEM
2 22 23
@<TRIPOS>COMMENT
> <Gold.Version>
2022.3.0

> <Gold.Id.Protein>
unknown|7kl0_clean|pdb

> <Gold.Protein.RotatedTorsions>
[ 6442 6424 6423 6421 ] final    2.50 input   59.99 | X-H torsion
[ 6434 6413 6414 6415 ] final  157.01 input   40.09 | X-H torsion
[ 6240 6222 6221 6219 ] final -145.11 input   60.01 | X-H torsion
[ 7213 7207 7208 7209 ] final -169.46 input  101.61 | X-H torsion
[ 7269 7260 7261 7262 ] final  -72.21 input  118.90 | X-H torsion
[ 7309 7295 7296 7297 ] final   85.91 input   89.68 | X-H torsion
[ 7217 7212 7211 7208 ] final   58.71 input   60.02 | X-H torsion
[ 6577 6553 6554 6555 ] final -123.62 input   19.71 | X-H torsion
[ 6607 6595 6596 6597 ] final  -79.53 input   28.67 | X-H torsion
[ 6530 6510 6511 6512 ] final   55.79 input   51.84 | X-H torsion
[ 6635 6620 6621 6622 ] final  -19.03 input  122.94 | X-H torsion
[ 1420 1410 1409 1406 ] final   34.77 input   60.02 | X-H torsion
[ 1287 1275 1273 1270 ] final -173.38 input   60.01 | X-H torsion
[ 6398 6391 6392 6393 ] final  110.86 input  -98.70 | X-H torsion
[ 5429 5420 5419 5417 ] final   96.60 input   59.99 | X-H torsion
[ 3115 3099 3100 3101 ] final  -83.61 input  111.82 | X-H torsion
[ 2982 2971 2972 2973 ] final   60.30 input  134.80 | X-H torsion
[ 3018 3009 3010 3011 ] final   67.82 input  114.19 | X-H torsion
[ 6268 6249 6250 6251 ] final   96.12 input  122.80 | X-H torsion
[ 6306 6287 6288 6289 ] final  -22.47 input  127.97 | X-H torsion
[ 3081 3062 3063 3064 ] final   -7.79 input  114.53 | X-H torsion
[ 3139 3129 3130 3131 ] final -119.49 input  112.52 | X-H torsion
[ 4214 4203 4202 4201 ] final  128.94 input   60.00 | X-H torsion
[ 4281 4267 4268 4269 ] final -177.07 input  109.79 | X-H torsion
[ 5391 5387 5388 5389 ] final -168.18 input  115.86 | X-H torsion
[ 1596 1580 1579 1578 ] final  100.80 input   59.99 | X-H torsion
[ 5347 5340 5338 5335 ] final   20.67 input   60.02 | X-H torsion
[  607  596  595  592 ] final   45.97 input   60.02 | X-H torsion
[ 2916 2901 2902 2903 ] final  -47.60 input  112.69 | X-H torsion
[ 4310 4296 4297 4298 ] final -107.63 input   86.41 | X-H torsion
[ 2946 2930 2931 2932 ] final  179.86 input  126.41 | X-H torsion
[ 3050 3038 3039 3040 ] final  117.37 input  116.07 | X-H torsion
[ 5341 5334 5335 5336 ] final    1.68 input   67.75 | X-H torsion
[ 5421 5409 5410 5411 ] final   94.36 input   64.82 | X-H torsion
[ 5455 5447 5448 5449 ] final -154.38 input  110.01 | X-H torsion
[ 6852 6834 6833 6831 ] final   68.26 input   59.99 | X-H torsion
[ 5322 5317 5318 5319 ] final  100.27 input  -36.16 | X-H torsion
[ 4142 4128 4129 4130 ] final  177.95 input   37.30 | X-H torsion
[ 4847 4839 4840 4841 ] final   98.51 input   74.58 | X-H torsion
[ 4166 4156 4157 4158 ] final  -70.55 input  113.65 | X-H torsion
[ 4204 4195 4196 4197 ] final  147.81 input    7.17 | X-H torsion
[ 4825 4821 4822 4823 ] final   83.75 input  114.67 | X-H torsion
[ 5308 5298 5299 5300 ] final  103.63 input   26.27 | X-H torsion
[ 1613 1589 1588 1587 ] final -114.37 input   59.99 | X-H torsion
[ 5284 5264 5265 5266 ] final   21.63 input   91.93 | X-H torsion
[ 4879 4874 4875 4876 ] final   -8.96 input  114.78 | X-H torsion
[ 5250 5243 5244 5245 ] final  160.77 input  -68.46 | X-H torsion
[ 5710 5690 5689 5688 ] final   93.76 input   60.02 | X-H torsion
[ 7345 7337 7338 7339 ] final -145.19 input  116.36 | X-H torsion
[ 3215 3201 3202 3203 ] final  -28.84 input -100.55 | X-H torsion
[ 4227 4194 4193 4192 ] final  159.83 input   60.00 | X-H torsion
[  546  536  537  538 ] final  142.47 input  119.99 | X-H torsion
[ 6843 6822 6821 6819 ] final   -3.32 input   59.97 | X-H torsion
[ 5806 5788 5787 5785 ] final  173.86 input   59.97 | X-H torsion
[ 8545 6453 6452 6451 ] final  123.73 input   -0.00 | X-H torsion
[ 8553 6365 6364 6363 ] final    7.01 input    0.00 | X-H torsion
[ 8555 6394 6393 6392 ] final  -16.90 input    0.00 | X-H torsion
[ 8557 6416 6415 6414 ] final   -7.06 input    0.00 | X-H torsion
[ 8560 7183 7182 7181 ] final -115.36 input   -0.00 | X-H torsion
[ 8562 7210 7209 7208 ] final -158.96 input    0.00 | X-H torsion
[ 8569 7147 7146 7145 ] final  170.11 input    0.00 | X-H torsion
[ 8574 7233 7232 7231 ] final   63.22 input   -0.00 | X-H torsion
[ 8577 6556 6555 6554 ] final   -1.47 input    0.00 | X-H torsion
[ 8581 6513 6512 6511 ] final  -11.31 input    0.00 | X-H torsion
[ 8586 6481 6480 6479 ] final  178.53 input    0.00 | X-H torsion
[ 8588 6598 6597 6596 ] final   74.45 input   -0.00 | X-H torsion
[ 8621 3102 3101 3100 ] final  140.53 input    0.00 | X-H torsion
[ 8626 2974 2973 2972 ] final  134.93 input   -0.00 | X-H torsion
[ 8633 3065 3064 3063 ] final   92.64 input    0.00 | X-H torsion
[ 8635 3204 3203 3202 ] final  -29.66 input   -0.00 | X-H torsion
[ 8637 6252 6251 6250 ] final  -63.39 input    0.00 | X-H torsion
[ 8646 6101 6100 6099 ] final  141.92 input    0.00 | X-H torsion
[ 8648 6134 6133 6132 ] final   51.86 input    0.00 | X-H torsion
[ 8650 2933 2932 2931 ] final   35.05 input    0.00 | X-H torsion
[ 8652 3012 3011 3010 ] final  -24.08 input    0.00 | X-H torsion
[ 8658 6623 6622 6621 ] final -177.37 input    0.00 | X-H torsion
[ 8674 4240 4239 4238 ] final -122.49 input    0.00 | X-H torsion
[ 8676 4270 4269 4268 ] final  141.89 input    0.00 | X-H torsion
[ 8687 2904 2903 2902 ] final -147.82 input    0.00 | X-H torsion
[ 8698 5337 5336 5335 ] final   32.15 input    0.00 | X-H torsion
[ 8700 5320 5319 5318 ] final   33.33 input    0.00 | X-H torsion
[ 8702 5365 5364 5363 ] final -121.17 input   -0.00 | X-H torsion
[ 8705 5390 5389 5388 ] final  112.28 input   -0.00 | X-H torsion
[ 8711 4131 4130 4129 ] final   27.96 input    0.00 | X-H torsion
[ 8713 5301 5300 5299 ] final  130.54 input    0.00 | X-H torsion
[ 8715 4086 4085 4084 ] final  136.19 input    0.00 | X-H torsion
[ 8723 4764 4763 4762 ] final    6.78 input    0.00 | X-H torsion
[ 8726 4159 4158 4157 ] final  -38.22 input    0.00 | X-H torsion
[ 8729  485  484  483 ] final  -36.82 input    0.00 | X-H torsion
[ 8732 5267 5266 5265 ] final  -43.86 input    0.00 | X-H torsion
[ 8736 4824 4823 4822 ] final   82.70 input   -0.00 | X-H torsion
[ 8738 4842 4841 4840 ] final -145.09 input    0.00 | X-H torsion
[ 8742 5246 5245 5244 ] final  123.49 input    0.00 | X-H torsion
[ 8753 5213 5212 5211 ] final  -46.67 input   -0.00 | X-H torsion
[ 8756 4877 4876 4875 ] final   78.48 input    0.00 | X-H torsion

> <Gold.Protein.ActiveResidues>
 GLU18   GLY20   LYS21   GLY22   ALA23   PHE24   SER25   VAL26   VAL27   ARG28  
 ILE43   ILE44   ASN45   THR46   LYS47   LYS48   LEU49   SER50   ARG52   ASP53  
 LYS56   ARG59   GLY83   HIS84   GLY95   GLU96   LEU97   PHE98   GLU99   ASP100 
 ILE101  VAL102  ALA103  GLU105  TYR106  HIS133  ARG134  ASN135  LEU136  LYS137 
 PRO138  GLU139  ASN140  ASP156  GLY158  LEU159  ALA160  ILE161  TRP170  PHE171 
 GLY172  PHE173  ALA174  GLY175  THR176  PRO177  GLY178  TYR179  LEU180  VAL184 
 LYS187  TYR190  VAL201  ILE202  TYR204  ILE205  LEU206  VAL208  GLY209  TYR210 
 PRO211  PRO212  PHE213  TRP214  ASP215  GLU216  ASP217  GLN218  HIS219  LEU221 
 TYR222  GLN224  ILE225  ASP231  PHE232  PRO233  SER234  PRO235  GLU236  TRP237 
 ASP238 

> <Gold.Protein.RotatedAtoms>
  -11.7935  -16.2125  -20.8427 H   0  0  0  0  0  0  0  0  0  0  0  0  # atno 546  bound_to 536 
    5.3617  -17.4510  -23.6614 H   0  0  0  0  0  0  0  0  0  0  0  0  # atno 607  bound_to 596 
   17.2659  -17.2863  -28.8995 H   0  0  0  0  0  0  0  0  0  0  0  0  # atno 1287 bound_to 1275
   13.7923   -5.9807  -27.6600 H   0  0  0  0  0  0  0  0  0  0  0  0  # atno 1420 bound_to 1410
    8.1559   -6.1932  -23.0126 H   0  0  0  0  0  0  0  0  0  0  0  0  # atno 1596 bound_to 1580
    7.7165   -5.5775  -21.5377 H   0  0  0  0  0  0  0  0  0  0  0  0  # atno 1597 bound_to 1580
    8.8672   -4.8066  -22.4486 H   0  0  0  0  0  0  0  0  0  0  0  0  # atno 1598 bound_to 1580
  -18.5923  -11.0375  -25.9689 H   0  0  0  0  0  0  0  0  0  0  0  0  # atno 1613 bound_to 1589
  -19.1735  -11.3650  -24.4511 H   0  0  0  0  0  0  0  0  0  0  0  0  # atno 1614 bound_to 1589
  -18.1091  -12.4098  -25.1749 H   0  0  0  0  0  0  0  0  0  0  0  0  # atno 1615 bound_to 1589
   -1.3492  -25.6273  -33.5712 H   0  0  0  0  0  0  0  0  0  0  0  0  # atno 2916 bound_to 2901
   -2.2725  -23.3811  -36.0958 H   0  0  0  0  0  0  0  0  0  0  0  0  # atno 2946 bound_to 2930
   -0.1100  -21.3656  -35.1936 H   0  0  0  0  0  0  0  0  0  0  0  0  # atno 2982 bound_to 2971
    1.6639  -21.8797  -34.6325 H   0  0  0  0  0  0  0  0  0  0  0  0  # atno 3018 bound_to 3009
    2.6375  -23.1235  -35.9168 H   0  0  0  0  0  0  0  0  0  0  0  0  # atno 3050 bound_to 3038
    4.8470  -21.7273  -37.3724 H   0  0  0  0  0  0  0  0  0  0  0  0  # atno 3081 bound_to 3062
    6.1028  -19.4115  -37.7426 H   0  0  0  0  0  0  0  0  0  0  0  0  # atno 3115 bound_to 3099
    8.3909  -20.6885  -35.4308 H   0  0  0  0  0  0  0  0  0  0  0  0  # atno 3139 bound_to 3129
    8.5510  -20.2339  -39.9025 H   0  0  0  0  0  0  0  0  0  0  0  0  # atno 3215 bound_to 3201
  -13.2203  -12.0643  -35.0975 H   0  0  0  0  0  0  0  0  0  0  0  0  # atno 4142 bound_to 4128
  -10.2623  -13.9482  -35.5889 H   0  0  0  0  0  0  0  0  0  0  0  0  # atno 4166 bound_to 4156
   -7.5285  -14.3804  -36.3287 H   0  0  0  0  0  0  0  0  0  0  0  0  # atno 4204 bound_to 4195
   -7.1695  -13.4542  -29.8947 H   0  0  0  0  0  0  0  0  0  0  0  0  # atno 4214 bound_to 4203
   -5.6670  -14.1166  -29.6667 H   0  0  0  0  0  0  0  0  0  0  0  0  # atno 4215 bound_to 4203
   -5.8390  -12.7459  -30.5833 H   0  0  0  0  0  0  0  0  0  0  0  0  # atno 4216 bound_to 4203
   -2.4741  -12.1416  -15.9885 H   0  0  0  0  0  0  0  0  0  0  0  0  # atno 4227 bound_to 4194
   -4.0034  -12.6245  -15.5697 H   0  0  0  0  0  0  0  0  0  0  0  0  # atno 4228 bound_to 4194
   -3.4717  -11.1087  -15.1612 H   0  0  0  0  0  0  0  0  0  0  0  0  # atno 4229 bound_to 4194
   -2.5089  -17.4848  -34.1803 H   0  0  0  0  0  0  0  0  0  0  0  0  # atno 4281 bound_to 4267
   -5.3853  -19.3370  -32.9808 H   0  0  0  0  0  0  0  0  0  0  0  0  # atno 4310 bound_to 4296
  -15.0957  -17.9032  -30.5480 H   0  0  0  0  0  0  0  0  0  0  0  0  # atno 4825 bound_to 4821
  -15.3758  -15.5986  -30.6611 H   0  0  0  0  0  0  0  0  0  0  0  0  # atno 4847 bound_to 4839
  -18.1692  -14.3104  -31.8802 H   0  0  0  0  0  0  0  0  0  0  0  0  # atno 4879 bound_to 4874
  -21.6162   -4.6543  -32.3505 H   0  0  0  0  0  0  0  0  0  0  0  0  # atno 5250 bound_to 5243
  -18.0839   -4.2774  -29.8454 H   0  0  0  0  0  0  0  0  0  0  0  0  # atno 5284 bound_to 5264
  -16.0109   -5.8141  -31.3083 H   0  0  0  0  0  0  0  0  0  0  0  0  # atno 5308 bound_to 5298
  -12.6900   -7.2295  -31.3286 H   0  0  0  0  0  0  0  0  0  0  0  0  # atno 5322 bound_to 5317
   -9.2181   -8.2253  -32.7799 H   0  0  0  0  0  0  0  0  0  0  0  0  # atno 5341 bound_to 5334
   -8.5546  -10.8245  -30.9783 H   0  0  0  0  0  0  0  0  0  0  0  0  # atno 5347 bound_to 5340
   -3.4661   -6.1790  -32.8537 H   0  0  0  0  0  0  0  0  0  0  0  0  # atno 5391 bound_to 5387
   -5.2506   -7.9398  -34.9468 H   0  0  0  0  0  0  0  0  0  0  0  0  # atno 5421 bound_to 5409
   -0.5843  -11.7322  -35.8399 H   0  0  0  0  0  0  0  0  0  0  0  0  # atno 5429 bound_to 5420
   -7.4574   -7.1838  -35.7062 H   0  0  0  0  0  0  0  0  0  0  0  0  # atno 5455 bound_to 5447
  -14.4643    3.2320  -29.1517 H   0  0  0  0  0  0  0  0  0  0  0  0  # atno 5710 bound_to 5690
  -14.0690    1.7237  -29.7119 H   0  0  0  0  0  0  0  0  0  0  0  0  # atno 5711 bound_to 5690
  -13.9816    3.0322  -30.7248 H   0  0  0  0  0  0  0  0  0  0  0  0  # atno 5712 bound_to 5690
  -18.5261   -5.3240  -33.8988 H   0  0  0  0  0  0  0  0  0  0  0  0  # atno 5806 bound_to 5788
    4.8823   -5.0409  -44.7651 H   0  0  0  0  0  0  0  0  0  0  0  0  # atno 6240 bound_to 6222
    0.7659  -12.3589  -42.9175 H   0  0  0  0  0  0  0  0  0  0  0  0  # atno 6268 bound_to 6249
    2.9306  -14.3446  -43.1700 H   0  0  0  0  0  0  0  0  0  0  0  0  # atno 6306 bound_to 6287
    7.5253  -13.8419  -42.8939 H   0  0  0  0  0  0  0  0  0  0  0  0  # atno 6398 bound_to 6391
    7.4061  -12.2810  -40.2910 H   0  0  0  0  0  0  0  0  0  0  0  0  # atno 6434 bound_to 6413
    8.0309   -6.2546  -43.9629 H   0  0  0  0  0  0  0  0  0  0  0  0  # atno 6442 bound_to 6424
    0.8856   -5.6285  -39.3430 H   0  0  0  0  0  0  0  0  0  0  0  0  # atno 6530 bound_to 6510
    1.1170   -3.4446  -36.8126 H   0  0  0  0  0  0  0  0  0  0  0  0  # atno 6577 bound_to 6553
    3.2006   -2.5407  -33.5642 H   0  0  0  0  0  0  0  0  0  0  0  0  # atno 6607 bound_to 6595
    3.3708   -0.3505  -30.7472 H   0  0  0  0  0  0  0  0  0  0  0  0  # atno 6635 bound_to 6620
   -6.6861   -2.3070  -16.7673 H   0  0  0  0  0  0  0  0  0  0  0  0  # atno 6843 bound_to 6822
   -6.4216   -2.7090  -29.6388 H   0  0  0  0  0  0  0  0  0  0  0  0  # atno 6852 bound_to 6834
   11.4561   -3.7989  -49.2806 H   0  0  0  0  0  0  0  0  0  0  0  0  # atno 7213 bound_to 7207
   14.4701   -5.2550  -51.4941 H   0  0  0  0  0  0  0  0  0  0  0  0  # atno 7217 bound_to 7212
   14.0162   -8.3539  -49.1398 H   0  0  0  0  0  0  0  0  0  0  0  0  # atno 7269 bound_to 7260
   11.3086   -7.7761  -49.2204 H   0  0  0  0  0  0  0  0  0  0  0  0  # atno 7309 bound_to 7295
   11.0120   -7.3744  -51.6583 H   0  0  0  0  0  0  0  0  0  0  0  0  # atno 7345 bound_to 7337
    8.4308   -7.6419  -44.7141 LP  0  0  0  0  0  0  0  0  0  0  0  0  # atno 8537 bound_to 6424
    9.5716   -6.7778  -43.9277 LP  0  0  0  0  0  0  0  0  0  0  0  0  # atno 8538 bound_to 6424
    5.7417  -12.2891  -40.8404 LP  0  0  0  0  0  0  0  0  0  0  0  0  # atno 8543 bound_to 6413
    4.6351   -6.3704  -40.6430 LP  0  0  0  0  0  0  0  0  0  0  0  0  # atno 8545 bound_to 6453
    4.3552   -6.4045  -38.9341 LP  0  0  0  0  0  0  0  0  0  0  0  0  # atno 8546 bound_to 6453
    5.9196   -6.2232  -45.1831 LP  0  0  0  0  0  0  0  0  0  0  0  0  # atno 8551 bound_to 6222
    5.6242   -5.9117  -43.6075 LP  0  0  0  0  0  0  0  0  0  0  0  0  # atno 8552 bound_to 6222
    9.5565  -12.5647  -43.0065 LP  0  0  0  0  0  0  0  0  0  0  0  0  # atno 8553 bound_to 6365
    9.0417  -13.2800  -41.5154 LP  0  0  0  0  0  0  0  0  0  0  0  0  # atno 8554 bound_to 6365
    7.1412  -14.3578  -38.3788 LP  0  0  0  0  0  0  0  0  0  0  0  0  # atno 8555 bound_to 6394
    7.4058  -12.6796  -38.0417 LP  0  0  0  0  0  0  0  0  0  0  0  0  # atno 8556 bound_to 6394
    5.2817  -10.5395  -41.6733 LP  0  0  0  0  0  0  0  0  0  0  0  0  # atno 8557 bound_to 6416
    3.7921   -9.7159  -41.3525 LP  0  0  0  0  0  0  0  0  0  0  0  0  # atno 8558 bound_to 6416
   11.4929   -6.3969  -47.5747 LP  0  0  0  0  0  0  0  0  0  0  0  0  # atno 8560 bound_to 7183
   10.1029   -6.1192  -48.5701 LP  0  0  0  0  0  0  0  0  0  0  0  0  # atno 8561 bound_to 7183
   15.0312   -4.5480  -46.3562 LP  0  0  0  0  0  0  0  0  0  0  0  0  # atno 8562 bound_to 7210
   13.4879   -3.8868  -46.7819 LP  0  0  0  0  0  0  0  0  0  0  0  0  # atno 8563 bound_to 7210
   12.1766   -3.7356  -47.6770 LP  0  0  0  0  0  0  0  0  0  0  0  0  # atno 8566 bound_to 7207
   13.3683   -7.8757  -47.5891 LP  0  0  0  0  0  0  0  0  0  0  0  0  # atno 8568 bound_to 7260
    9.5573   -3.5114  -49.7021 LP  0  0  0  0  0  0  0  0  0  0  0  0  # atno 8569 bound_to 7147
    8.1387   -4.0494  -50.5377 LP  0  0  0  0  0  0  0  0  0  0  0  0  # atno 8570 bound_to 7147
   11.2814   -9.5253  -49.3156 LP  0  0  0  0  0  0  0  0  0  0  0  0  # atno 8571 bound_to 7295
   15.6769   -5.0051  -50.4316 LP  0  0  0  0  0  0  0  0  0  0  0  0  # atno 8572 bound_to 7212
   15.4279   -3.9490  -51.6520 LP  0  0  0  0  0  0  0  0  0  0  0  0  # atno 8573 bound_to 7212
   14.4542   -9.0983  -51.1099 LP  0  0  0  0  0  0  0  0  0  0  0  0  # atno 8574 bound_to 7233
   12.8379   -8.4952  -50.9559 LP  0  0  0  0  0  0  0  0  0  0  0  0  # atno 8575 bound_to 7233
    2.7138   -2.8793  -37.2598 LP  0  0  0  0  0  0  0  0  0  0  0  0  # atno 8576 bound_to 6553
    3.9975   -1.6743  -36.3025 LP  0  0  0  0  0  0  0  0  0  0  0  0  # atno 8577 bound_to 6556
    4.0966   -0.4465  -35.0849 LP  0  0  0  0  0  0  0  0  0  0  0  0  # atno 8578 bound_to 6556
    0.0875   -5.6406  -37.1478 LP  0  0  0  0  0  0  0  0  0  0  0  0  # atno 8581 bound_to 6513
    1.2474   -5.5144  -35.8676 LP  0  0  0  0  0  0  0  0  0  0  0  0  # atno 8582 bound_to 6513
    1.7613   -1.5577  -33.7727 LP  0  0  0  0  0  0  0  0  0  0  0  0  # atno 8583 bound_to 6595
    1.7443   -4.4510  -40.3216 LP  0  0  0  0  0  0  0  0  0  0  0  0  # atno 8585 bound_to 6510
    2.0559   -2.5535  -40.4147 LP  0  0  0  0  0  0  0  0  0  0  0  0  # atno 8586 bound_to 6481
    2.7426   -3.2376  -41.8501 LP  0  0  0  0  0  0  0  0  0  0  0  0  # atno 8587 bound_to 6481
    1.9924   -2.4874  -30.9428 LP  0  0  0  0  0  0  0  0  0  0  0  0  # atno 8588 bound_to 6598
    1.4855   -1.0021  -30.2100 LP  0  0  0  0  0  0  0  0  0  0  0  0  # atno 8589 bound_to 6598
    5.0591   -0.8166  -30.8761 LP  0  0  0  0  0  0  0  0  0  0  0  0  # atno 8590 bound_to 6620
   12.3375   -6.4475  -28.2192 LP  0  0  0  0  0  0  0  0  0  0  0  0  # atno 8605 bound_to 1410
   12.6491   -4.8645  -27.9669 LP  0  0  0  0  0  0  0  0  0  0  0  0  # atno 8606 bound_to 1410
   16.8899  -16.6572  -30.3526 LP  0  0  0  0  0  0  0  0  0  0  0  0  # atno 8617 bound_to 1275
   15.8712  -17.7061  -29.6255 LP  0  0  0  0  0  0  0  0  0  0  0  0  # atno 8618 bound_to 1275
   10.4397  -20.0468  -35.9207 LP  0  0  0  0  0  0  0  0  0  0  0  0  # atno 8621 bound_to 3102
    9.7478  -18.8242  -36.9339 LP  0  0  0  0  0  0  0  0  0  0  0  0  # atno 8622 bound_to 3102
    5.8690  -13.3593  -42.5967 LP  0  0  0  0  0  0  0  0  0  0  0  0  # atno 8623 bound_to 6391
   -1.1924  -13.0712  -36.5361 LP  0  0  0  0  0  0  0  0  0  0  0  0  # atno 8624 bound_to 5420
   -1.3202  -12.8565  -34.9224 LP  0  0  0  0  0  0  0  0  0  0  0  0  # atno 8625 bound_to 5420
    4.2363  -19.5978  -34.9163 LP  0  0  0  0  0  0  0  0  0  0  0  0  # atno 8626 bound_to 2974
    3.3659  -19.3557  -36.3941 LP  0  0  0  0  0  0  0  0  0  0  0  0  # atno 8627 bound_to 2974
    5.4476  -20.1831  -36.3146 LP  0  0  0  0  0  0  0  0  0  0  0  0  # atno 8632 bound_to 3099
    7.2080  -18.3136  -39.0009 LP  0  0  0  0  0  0  0  0  0  0  0  0  # atno 8633 bound_to 3065
    7.7644  -19.9502  -39.1109 LP  0  0  0  0  0  0  0  0  0  0  0  0  # atno 8634 bound_to 3065
    7.9136  -16.7418  -39.8246 LP  0  0  0  0  0  0  0  0  0  0  0  0  # atno 8635 bound_to 3204
    7.9536  -16.2601  -41.4879 LP  0  0  0  0  0  0  0  0  0  0  0  0  # atno 8636 bound_to 3204
    4.9929  -14.0846  -42.7567 LP  0  0  0  0  0  0  0  0  0  0  0  0  # atno 8637 bound_to 6252
    4.4728  -15.5077  -41.9177 LP  0  0  0  0  0  0  0  0  0  0  0  0  # atno 8638 bound_to 6252
   -0.3551  -20.3543  -36.6073 LP  0  0  0  0  0  0  0  0  0  0  0  0  # atno 8639 bound_to 2971
    2.3334  -20.3359  -34.1285 LP  0  0  0  0  0  0  0  0  0  0  0  0  # atno 8640 bound_to 3009
    2.2237  -11.6595  -43.5954 LP  0  0  0  0  0  0  0  0  0  0  0  0  # atno 8644 bound_to 6249
    1.2696  -14.8691  -42.9879 LP  0  0  0  0  0  0  0  0  0  0  0  0  # atno 8645 bound_to 6287
   -0.4740  -11.7550  -41.5609 LP  0  0  0  0  0  0  0  0  0  0  0  0  # atno 8646 bound_to 6101
   -0.4305  -10.4453  -42.6934 LP  0  0  0  0  0  0  0  0  0  0  0  0  # atno 8647 bound_to 6101
   -0.5272  -15.3695  -42.4956 LP  0  0  0  0  0  0  0  0  0  0  0  0  # atno 8648 bound_to 6134
    0.3325  -14.1988  -43.4392 LP  0  0  0  0  0  0  0  0  0  0  0  0  # atno 8649 bound_to 6134
    1.5210  -21.5746  -38.2956 LP  0  0  0  0  0  0  0  0  0  0  0  0  # atno 8650 bound_to 2933
    2.3105  -21.2088  -36.7980 LP  0  0  0  0  0  0  0  0  0  0  0  0  # atno 8651 bound_to 2933
    6.0802  -21.8598  -34.5056 LP  0  0  0  0  0  0  0  0  0  0  0  0  # atno 8652 bound_to 3012
    6.1245  -23.1809  -35.6247 LP  0  0  0  0  0  0  0  0  0  0  0  0  # atno 8653 bound_to 3012
    3.4088  -21.6577  -38.3696 LP  0  0  0  0  0  0  0  0  0  0  0  0  # atno 8654 bound_to 3062
    7.4292  -21.4091  -36.7081 LP  0  0  0  0  0  0  0  0  0  0  0  0  # atno 8655 bound_to 3129
   -4.0503  -17.9899  -34.8448 LP  0  0  0  0  0  0  0  0  0  0  0  0  # atno 8656 bound_to 4267
   -4.8441   -6.9256  -33.6315 LP  0  0  0  0  0  0  0  0  0  0  0  0  # atno 8657 bound_to 5387
    1.7658    0.0223  -26.8178 LP  0  0  0  0  0  0  0  0  0  0  0  0  # atno 8658 bound_to 6623
    2.9473   -1.2411  -26.7296 LP  0  0  0  0  0  0  0  0  0  0  0  0  # atno 8659 bound_to 6623
   -7.2051  -11.3918  -30.2674 LP  0  0  0  0  0  0  0  0  0  0  0  0  # atno 8668 bound_to 5340
   -7.7134  -12.0257  -31.6839 LP  0  0  0  0  0  0  0  0  0  0  0  0  # atno 8669 bound_to 5340
    6.0088  -16.0061  -24.0369 LP  0  0  0  0  0  0  0  0  0  0  0  0  # atno 8672 bound_to 596 
    6.4606  -16.7758  -22.6694 LP  0  0  0  0  0  0  0  0  0  0  0  0  # atno 8673 bound_to 596 
   -3.7528  -20.3806  -35.2275 LP  0  0  0  0  0  0  0  0  0  0  0  0  # atno 8674 bound_to 4240
   -2.1234  -20.1773  -35.7788 LP  0  0  0  0  0  0  0  0  0  0  0  0  # atno 8675 bound_to 4240
   -5.9927  -20.8080  -31.9224 LP  0  0  0  0  0  0  0  0  0  0  0  0  # atno 8676 bound_to 4270
   -4.3456  -21.2179  -32.2672 LP  0  0  0  0  0  0  0  0  0  0  0  0  # atno 8677 bound_to 4270
   -1.1995  -24.8383  -32.0165 LP  0  0  0  0  0  0  0  0  0  0  0  0  # atno 8686 bound_to 2901
    0.9511  -23.0760  -35.4978 LP  0  0  0  0  0  0  0  0  0  0  0  0  # atno 8687 bound_to 2904
    0.6323  -24.3552  -34.3743 LP  0  0  0  0  0  0  0  0  0  0  0  0  # atno 8688 bound_to 2904
   -5.5170  -18.3420  -34.4237 LP  0  0  0  0  0  0  0  0  0  0  0  0  # atno 8689 bound_to 4296
   -1.2280  -22.4227  -35.0681 LP  0  0  0  0  0  0  0  0  0  0  0  0  # atno 8694 bound_to 2930
    4.2351  -22.7138  -35.3206 LP  0  0  0  0  0  0  0  0  0  0  0  0  # atno 8695 bound_to 3038
   -9.5580   -9.5942  -31.7340 LP  0  0  0  0  0  0  0  0  0  0  0  0  # atno 8697 bound_to 5334
   -7.7199   -7.8408  -34.0336 LP  0  0  0  0  0  0  0  0  0  0  0  0  # atno 8698 bound_to 5337
   -6.1350   -7.1424  -34.0482 LP  0  0  0  0  0  0  0  0  0  0  0  0  # atno 8699 bound_to 5337
  -10.6680   -8.6838  -29.4908 LP  0  0  0  0  0  0  0  0  0  0  0  0  # atno 8700 bound_to 5320
   -9.1754   -7.8398  -29.7352 LP  0  0  0  0  0  0  0  0  0  0  0  0  # atno 8701 bound_to 5320
   -5.5715   -5.2461  -35.2194 LP  0  0  0  0  0  0  0  0  0  0  0  0  # atno 8702 bound_to 5365
   -5.1360   -3.9145  -34.2009 LP  0  0  0  0  0  0  0  0  0  0  0  0  # atno 8703 bound_to 5365
   -4.5529   -6.8566  -36.1425 LP  0  0  0  0  0  0  0  0  0  0  0  0  # atno 8704 bound_to 5409
   -3.2847   -7.6100  -37.8542 LP  0  0  0  0  0  0  0  0  0  0  0  0  # atno 8705 bound_to 5390
   -3.3761   -5.9030  -37.5752 LP  0  0  0  0  0  0  0  0  0  0  0  0  # atno 8706 bound_to 5390
   -6.7412   -6.0620  -36.8406 LP  0  0  0  0  0  0  0  0  0  0  0  0  # atno 8707 bound_to 5447
   -7.7564   -3.0096  -30.5200 LP  0  0  0  0  0  0  0  0  0  0  0  0  # atno 8708 bound_to 6834
   -7.8300   -1.9975  -29.2406 LP  0  0  0  0  0  0  0  0  0  0  0  0  # atno 8709 bound_to 6834
  -12.7595   -8.7012  -30.3767 LP  0  0  0  0  0  0  0  0  0  0  0  0  # atno 8710 bound_to 5317
   -9.9911  -14.8511  -33.6533 LP  0  0  0  0  0  0  0  0  0  0  0  0  # atno 8711 bound_to 4131
   -8.7487  -14.9055  -34.8589 LP  0  0  0  0  0  0  0  0  0  0  0  0  # atno 8712 bound_to 4131
  -12.8301   -6.6770  -33.2366 LP  0  0  0  0  0  0  0  0  0  0  0  0  # atno 8713 bound_to 5301
  -14.4354   -7.3272  -33.2181 LP  0  0  0  0  0  0  0  0  0  0  0  0  # atno 8714 bound_to 5301
  -12.1503  -10.3985  -34.1649 LP  0  0  0  0  0  0  0  0  0  0  0  0  # atno 8715 bound_to 4086
  -12.5904   -9.5648  -35.6179 LP  0  0  0  0  0  0  0  0  0  0  0  0  # atno 8716 bound_to 4086
  -12.5523  -13.1091  -36.3298 LP  0  0  0  0  0  0  0  0  0  0  0  0  # atno 8717 bound_to 4128
  -16.9395  -15.7130  -29.8726 LP  0  0  0  0  0  0  0  0  0  0  0  0  # atno 8722 bound_to 4839
  -12.3153  -18.0920  -32.4270 LP  0  0  0  0  0  0  0  0  0  0  0  0  # atno 8723 bound_to 4764
  -13.9122  -17.5048  -32.7512 LP  0  0  0  0  0  0  0  0  0  0  0  0  # atno 8724 bound_to 4764
  -10.7906  -13.1842  -37.0737 LP  0  0  0  0  0  0  0  0  0  0  0  0  # atno 8725 bound_to 4156
   -8.0285  -12.3336  -37.7030 LP  0  0  0  0  0  0  0  0  0  0  0  0  # atno 8726 bound_to 4159
   -7.0025  -12.4984  -36.3174 LP  0  0  0  0  0  0  0  0  0  0  0  0  # atno 8727 bound_to 4159
   -7.2621  -15.8477  -37.2661 LP  0  0  0  0  0  0  0  0  0  0  0  0  # atno 8728 bound_to 4195
   -7.3427  -19.3670  -22.8447 LP  0  0  0  0  0  0  0  0  0  0  0  0  # atno 8729 bound_to 485 
   -8.9944  -19.2086  -23.3415 LP  0  0  0  0  0  0  0  0  0  0  0  0  # atno 8730 bound_to 485 
  -16.7124  -18.4658  -30.9287 LP  0  0  0  0  0  0  0  0  0  0  0  0  # atno 8731 bound_to 4821
  -15.5260   -4.5276  -28.1280 LP  0  0  0  0  0  0  0  0  0  0  0  0  # atno 8732 bound_to 5267
  -16.0812   -6.1262  -28.4972 LP  0  0  0  0  0  0  0  0  0  0  0  0  # atno 8733 bound_to 5267
  -14.6023   -4.9615  -30.7025 LP  0  0  0  0  0  0  0  0  0  0  0  0  # atno 8734 bound_to 5298
  -18.1498   -3.0167  -31.0612 LP  0  0  0  0  0  0  0  0  0  0  0  0  # atno 8735 bound_to 5264
  -17.2857  -14.9145  -27.7034 LP  0  0  0  0  0  0  0  0  0  0  0  0  # atno 8736 bound_to 4824
  -18.5823  -15.1387  -28.8297 LP  0  0  0  0  0  0  0  0  0  0  0  0  # atno 8737 bound_to 4824
  -18.6366  -12.4668  -32.8669 LP  0  0  0  0  0  0  0  0  0  0  0  0  # atno 8738 bound_to 4842
  -17.1245  -11.8057  -32.3410 LP  0  0  0  0  0  0  0  0  0  0  0  0  # atno 8739 bound_to 4842
  -17.4016   -3.8875  -33.1326 LP  0  0  0  0  0  0  0  0  0  0  0  0  # atno 8742 bound_to 5246
  -18.2128   -5.4000  -32.8995 LP  0  0  0  0  0  0  0  0  0  0  0  0  # atno 8743 bound_to 5246
  -16.8816  -15.3177  -32.5135 LP  0  0  0  0  0  0  0  0  0  0  0  0  # atno 8752 bound_to 4874
  -22.2201   -6.8645  -31.6523 LP  0  0  0  0  0  0  0  0  0  0  0  0  # atno 8753 bound_to 5213
  -20.4939   -6.7768  -31.5396 LP  0  0  0  0  0  0  0  0  0  0  0  0  # atno 8754 bound_to 5213
  -20.2404   -4.2115  -33.3426 LP  0  0  0  0  0  0  0  0  0  0  0  0  # atno 8755 bound_to 5243
  -20.2568  -13.8091  -31.9403 LP  0  0  0  0  0  0  0  0  0  0  0  0  # atno 8756 bound_to 4877
  -21.2118  -15.0968  -32.5960 LP  0  0  0  0  0  0  0  0  0  0  0  0  # atno 8757 bound_to 4877

> <Gold.Score>
     Fitness  S(hb_ext) S(vdw_ext)  S(hb_int)    S(int)      intcor
     17.68       4.26      10.74       0.00      -1.35      -0.78

> <Gold.Goldscore.Fitness>
17.6815

> <Gold.Goldscore.Internal.Vdw>
-1.6515

> <Gold.Goldscore.Internal.Torsion>
-0.4782

> <Gold.Goldscore.External.Vdw>
10.7438

> <Gold.Goldscore.Internal.HBond>
0.0000

> <Gold.Goldscore.External.HBond>
4.2617

> <Gold.Goldscore.Internal.Correction>
-0.7769

> <Gold.Goldscore.Hbonds>
donor molecule, donor type, donor heavy atom, donor atom, acceptor molecule, acceptor atom, score
      P1  H  6681  6697       L1    11  0.79
      L1  H     8    22       P1  5320  0.91
      L1  H    10    23       P1  6834  0.43

> <Gold.Goldscore.Internal.Vdw.Weighted>
-1.6515

> <Gold.Goldscore.Internal.Torsion.Weighted>
-0.4782

> <Gold.Goldscore.External.Vdw.Weighted>
14.7727

> <Gold.Goldscore.Internal.HBond.Weighted>
0.0000

> <Gold.Goldscore.External.HBond.Weighted>
4.2617

> <Gold.Goldscore.Internal.Correction.Weighted>
-0.7769

> <Gold.Rescore>
     Score     S(PLP)   S(hbond)     S(cho)   S(metal)  DE(clash)   DE(tors)     intcor
     20.22     -13.78       2.94       0.00       0.00       0.87       0.76       ----

> <Gold.PLP.Fitness>
20.2243

> <Gold.PLP.PLP>
-13.7833

> <Gold.PLP.part.hbond>
-3.2645

> <Gold.PLP.part.metal>
0.0000

> <Gold.PLP.part.buried>
0.5075

> <Gold.PLP.part.nonpolar>
-12.3490

> <Gold.PLP.part.repulsive>
0.3819

> <Gold.PLP.ligand.clash>
0.8676

> <Gold.PLP.ligand.torsion>
0.7617

> <Gold.PLP.Chemscore.Hbond>
2.9440

> <Gold.PLP.Chemscore.CHOScore>
0.0000

> <Gold.PLP.Chemscore.Metal>
0.0000

> <Gold.Chemscore.Hbonds>
donor molecule, donor type, donor heavy atom, donor atom, acceptor molecule, acceptor atom, score
      L1  H     8    22       P1  5320  1.00
      P1  H  6681  6697       L1    11  1.00

> <Gold.PLP.Chemscore.Internal.Correction>
   9.000000E+99

