#       Name:                CT1002167954
#       Creating user name   hitesit
#       Creation time:       Sun Apr 16 02:22:08 2023


#       File generated by GOLD software.
#

@<TRIPOS>MOLECULE
CT1002167954|ligand_prepared|mol2|1|dock10
    29    30     1
SMALL
NO_CHARGES


@<TRIPOS>ATOM
      1 C1         -19.1257   8.4442  -0.6617 C.3            1 RES1               0.0000
      2 C2         -19.9650   8.6588   0.6143 C.ar           1 RES1               0.0000
      3 C3         -19.4219   7.0243  -1.1356 C.2            1 RES1               0.0000
      4 C4         -19.5552   9.5297  -1.6424 C.2            1 RES1               0.0000
      5 C5         -17.6016   8.5791  -0.4370 C.3            1 RES1               0.0000
      6 C6         -19.4261   9.3194   1.7143 C.ar           1 RES1               0.0000
      7 C7         -21.2782   8.2050   0.7054 C.ar           1 RES1               0.0000
      8 N8         -20.2123   6.8779  -2.2373 N.am           1 RES1               0.0000
      9 O9         -19.0010   6.0472  -0.5287 O.2            1 RES1               0.0000
     10 N10        -20.1925   9.1412  -2.7916 N.am           1 RES1               0.0000
     11 O11        -19.3623  10.7191  -1.4226 O.2            1 RES1               0.0000
     12 C12        -16.7667   8.1892  -1.6466 C.3            1 RES1               0.0000
     13 C13        -20.1737   9.5217   2.8625 C.ar           1 RES1               0.0000
     14 C14        -22.0240   8.4082   1.8547 C.ar           1 RES1               0.0000
     15 C15        -20.5679   7.8668  -3.1190 C.2            1 RES1               0.0000
     16 C16        -21.4731   9.0667   2.9334 C.ar           1 RES1               0.0000
     17 O17        -21.1870   7.6033  -4.1459 O.2            1 RES1               0.0000
     18 H18        -17.3745   9.6190  -0.1715 H              1 RES1               0.0000
     19 H19        -17.3122   7.9458   0.4106 H              1 RES1               0.0000
     20 H20        -18.4043   9.6824   1.6778 H              1 RES1               0.0000
     21 H21        -21.7319   7.6834  -0.1305 H              1 RES1               0.0000
     22 H22        -20.5724   5.9472  -2.4226 H              1 RES1               0.0000
     23 H23        -20.4068   9.8694  -3.4654 H              1 RES1               0.0000
     24 H24        -15.7054   8.3023  -1.4354 H              1 RES1               0.0000
     25 H25        -16.9487   7.1528  -1.9231 H              1 RES1               0.0000
     26 H26        -17.0106   8.8161  -2.5019 H              1 RES1               0.0000
     27 H27        -19.7350  10.0394   3.7092 H              1 RES1               0.0000
     28 H28        -23.0461   8.0478   1.9063 H              1 RES1               0.0000
     29 H29        -22.0587   9.2257   3.8328 H              1 RES1               0.0000
@<TRIPOS>BOND
    1    1    2 1     
    2    1    3 1     
    3    1    4 1     
    4    1    5 1     
    5    2    6 ar    
    6    2    7 ar    
    7    3    8 1     
    8    3    9 2     
    9    4   10 1     
   10    4   11 2     
   11    5   12 1     
   12    5   18 1     
   13    5   19 1     
   14    6   13 ar    
   15    6   20 1     
   16    7   14 ar    
   17    7   21 1     
   18    8   15 1     
   19    8   22 1     
   20   10   15 1     
   21   10   23 1     
   22   12   24 1     
   23   12   25 1     
   24   12   26 1     
   25   13   16 ar    
   26   13   27 1     
   27   14   16 ar    
   28   14   28 1     
   29   15   17 2     
   30   16   29 1     
@<TRIPOS>SUBSTRUCTURE
      1 RES1           1
@<TRIPOS>SET
DONOR_HYDROGENS      STATIC     ATOMS    <user>   **** ""
2 22 23
ATOM$RED        STATIC     ATOMS    COLORGROUP SYSTEM
2 22 23
@<TRIPOS>COMMENT
> <Gold.Version>
2022.3.0

> <Gold.Id.Protein>
unknown|3ama_clean|pdb

> <Gold.Protein.RotatedTorsions>
[ 3844 3837 3836 3834 ] final    1.18 input   59.99 | X-H torsion
[ 3766 3757 3756 3754 ] final   41.69 input   60.00 | X-H torsion
[ 4043 4034 4033 4031 ] final  120.87 input   60.00 | X-H torsion
[ 3307 3300 3298 3295 ] final   10.00 input   60.01 | X-H torsion
[ 2771 2760 2759 2758 ] final  -83.33 input   59.98 | X-H torsion
[ 2112 2107 2106 2103 ] final  -98.03 input   60.00 | X-H torsion
[ 5355 5346 5345 5343 ] final  138.44 input   60.01 | X-H torsion
[  804  797  795  792 ] final   -4.23 input   59.99 | X-H torsion
[ 3357 3348 3347 3345 ] final   22.58 input   59.98 | X-H torsion
[  822  817  816  813 ] final  -81.33 input   60.00 | X-H torsion
[ 1427 1420 1418 1415 ] final  -16.70 input   60.03 | X-H torsion

> <Gold.Protein.ActiveResidues>
 LEU49   GLY50   THR51   GLY52   SER53   PHE54   LYS72   LEU74   VAL79   LYS81  
 LEU82   LYS83   GLN84   HIS87   THR88   GLY126  GLU127  MET128  PHE129  SER130 
 HIS131  LEU132  ARG133  ARG134  ILE135  GLY136  ARG137  ARG165  ASP166  LEU167 
 LYS168  PRO169  GLU170  ASN171  ASP184  GLY186  PHE187  TRP196  TPO197  LEU198 
 CYS199  GLY200  THR201  PRO202  GLU203  TYR204  LEU205  ILE209  ILE210  VAL226 
 LEU227  TYR229  GLU230  ALA233  GLY234  TYR235  PRO236  PRO237  PHE238  PHE239 
 ALA240  ASP241  GLN242  PRO243  ILE244  GLN245  ILE246  TYR247  LYS249  ARG256 
 PHE257  PRO258  SER259  HIS260  ASP328  TYR330 

> <Gold.Protein.RotatedAtoms>
  -20.1765   13.1688    6.5927 H   0  0  0  0  0  0  0  0  0  0  0  0  # atno 804  bound_to 797 
  -17.7728   11.8172   -1.6747 H   0  0  0  0  0  0  0  0  0  0  0  0  # atno 822  bound_to 817 
  -21.3116   13.2168   -8.8543 H   0  0  0  0  0  0  0  0  0  0  0  0  # atno 1427 bound_to 1420
  -25.4006    5.5608   12.5616 H   0  0  0  0  0  0  0  0  0  0  0  0  # atno 2112 bound_to 2107
  -18.9082    4.3249    1.8657 H   0  0  0  0  0  0  0  0  0  0  0  0  # atno 2771 bound_to 2760
  -18.3976    3.3162    0.6534 H   0  0  0  0  0  0  0  0  0  0  0  0  # atno 2772 bound_to 2760
  -19.1557    4.7420    0.2812 H   0  0  0  0  0  0  0  0  0  0  0  0  # atno 2773 bound_to 2760
  -17.3285    2.6837   -1.4615 H   0  0  0  0  0  0  0  0  0  0  0  0  # atno 3307 bound_to 3300
  -20.6286   -3.9741    4.5225 H   0  0  0  0  0  0  0  0  0  0  0  0  # atno 3357 bound_to 3348
  -16.1693  -13.7131    8.8360 H   0  0  0  0  0  0  0  0  0  0  0  0  # atno 3766 bound_to 3757
  -15.6052  -14.1537   11.5315 H   0  0  0  0  0  0  0  0  0  0  0  0  # atno 3844 bound_to 3837
   -8.6782    0.7679   -1.6781 H   0  0  0  0  0  0  0  0  0  0  0  0  # atno 4043 bound_to 4034
  -22.9036   11.8103   10.9892 H   0  0  0  0  0  0  0  0  0  0  0  0  # atno 5355 bound_to 5346
  -16.9136  -14.0465   12.4931 LP  0  0  0  0  0  0  0  0  0  0  0  0  # atno 5685 bound_to 3837
  -15.4203  -13.8167   13.1128 LP  0  0  0  0  0  0  0  0  0  0  0  0  # atno 5686 bound_to 3837
  -15.1091  -13.4314    7.6341 LP  0  0  0  0  0  0  0  0  0  0  0  0  # atno 5693 bound_to 3757
  -15.8521  -14.8811    7.7484 LP  0  0  0  0  0  0  0  0  0  0  0  0  # atno 5694 bound_to 3757
  -10.0751    0.1406   -2.2277 LP  0  0  0  0  0  0  0  0  0  0  0  0  # atno 5743 bound_to 4034
   -8.9673    0.7198   -3.2784 LP  0  0  0  0  0  0  0  0  0  0  0  0  # atno 5744 bound_to 4034
  -17.4576    2.9718    0.1351 LP  0  0  0  0  0  0  0  0  0  0  0  0  # atno 5749 bound_to 3300
  -18.5740    2.0535   -0.6246 LP  0  0  0  0  0  0  0  0  0  0  0  0  # atno 5750 bound_to 3300
  -26.6437    5.5141   11.5128 LP  0  0  0  0  0  0  0  0  0  0  0  0  # atno 5763 bound_to 2107
  -25.2976    4.6347   11.2277 LP  0  0  0  0  0  0  0  0  0  0  0  0  # atno 5764 bound_to 2107
  -21.5934   12.2957   10.1556 LP  0  0  0  0  0  0  0  0  0  0  0  0  # atno 5765 bound_to 5346
  -23.0687   12.3304    9.4564 LP  0  0  0  0  0  0  0  0  0  0  0  0  # atno 5766 bound_to 5346
  -19.6407   14.3527    7.5712 LP  0  0  0  0  0  0  0  0  0  0  0  0  # atno 5773 bound_to 797 
  -18.7745   13.9217    6.2557 LP  0  0  0  0  0  0  0  0  0  0  0  0  # atno 5774 bound_to 797 
  -20.5995   -5.5445    4.0969 LP  0  0  0  0  0  0  0  0  0  0  0  0  # atno 5791 bound_to 3348
  -21.8514   -4.5969    3.6480 LP  0  0  0  0  0  0  0  0  0  0  0  0  # atno 5792 bound_to 3348
  -16.8958   12.3322   -2.9447 LP  0  0  0  0  0  0  0  0  0  0  0  0  # atno 5799 bound_to 817 
  -18.1016   13.2599   -2.3513 LP  0  0  0  0  0  0  0  0  0  0  0  0  # atno 5800 bound_to 817 
  -21.3648   14.7901   -8.4421 LP  0  0  0  0  0  0  0  0  0  0  0  0  # atno 5832 bound_to 1420
  -20.3287   14.2801   -9.5967 LP  0  0  0  0  0  0  0  0  0  0  0  0  # atno 5833 bound_to 1420

> <Gold.Score>
     Fitness  S(hb_ext) S(vdw_ext)  S(hb_int)    S(int)      intcor
     28.57      11.76      12.79       0.00      -0.78      -0.76

> <Gold.Goldscore.Fitness>
28.5652

> <Gold.Goldscore.Internal.Vdw>
-1.0731

> <Gold.Goldscore.Internal.Torsion>
-0.4640

> <Gold.Goldscore.External.Vdw>
12.7913

> <Gold.Goldscore.Internal.HBond>
0.0000

> <Gold.Goldscore.External.HBond>
11.7559

> <Gold.Goldscore.Internal.Correction>
-0.7585

> <Gold.Goldscore.Hbonds>
donor molecule, donor type, donor heavy atom, donor atom, acceptor molecule, acceptor atom, score
      P1  H  2760  2773       L1     9  1.00
      P1  H   812   818       L1    11  0.96
      P1  H   817   822       L1    11  0.26
      L1  H     8    22       P1  2728  0.56

> <Gold.Goldscore.Internal.Vdw.Weighted>
-1.0731

> <Gold.Goldscore.Internal.Torsion.Weighted>
-0.4640

> <Gold.Goldscore.External.Vdw.Weighted>
17.5880

> <Gold.Goldscore.Internal.HBond.Weighted>
0.0000

> <Gold.Goldscore.External.HBond.Weighted>
11.7559

> <Gold.Goldscore.Internal.Correction.Weighted>
-0.7585

> <Gold.Rescore>
     Score     S(PLP)   S(hbond)     S(cho)   S(metal)  DE(clash)   DE(tors)     intcor
     29.83     -18.08       4.00       0.00       0.00       0.00       0.13       ----

> <Gold.PLP.Fitness>
29.8308

> <Gold.PLP.PLP>
-18.0830

> <Gold.PLP.part.hbond>
-3.9610

> <Gold.PLP.part.metal>
0.0000

> <Gold.PLP.part.buried>
-5.6251

> <Gold.PLP.part.nonpolar>
-9.2688

> <Gold.PLP.part.repulsive>
0.3653

> <Gold.PLP.ligand.clash>
0.0000

> <Gold.PLP.ligand.torsion>
0.1261

> <Gold.PLP.Chemscore.Hbond>
4.0000

> <Gold.PLP.Chemscore.CHOScore>
0.0000

> <Gold.PLP.Chemscore.Metal>
0.0000

> <Gold.Chemscore.Hbonds>
donor molecule, donor type, donor heavy atom, donor atom, acceptor molecule, acceptor atom, score
      L1  H     8    22       P1  2728  1.00
      P1  H  2760  2773       L1     9  0.86
      P1  H   812   818       L1    11  0.37
      P1  H   817   822       L1    11  0.93

> <Gold.PLP.Chemscore.Internal.Correction>
   9.000000E+99

