#       Name:                CT1002167954
#       Creating user name   hitesit
#       Creation time:       Sun Apr 16 02:22:03 2023


#       File generated by GOLD software.
#

@<TRIPOS>MOLECULE
CT1002167954|ligand_prepared|mol2|1|dock6
    29    30     1
SMALL
NO_CHARGES


@<TRIPOS>ATOM
      1 C1         -18.8559   9.2741  -2.8682 C.3            1 RES1               0.0000
      2 C2         -17.5037   9.2209  -3.6082 C.ar           1 RES1               0.0000
      3 C3         -19.5951   7.9903  -3.2337 C.2            1 RES1               0.0000
      4 C4         -18.5260   9.4014  -1.3851 C.2            1 RES1               0.0000
      5 C5         -19.7390  10.4797  -3.2663 C.3            1 RES1               0.0000
      6 C6         -17.3607   9.7999  -4.8656 C.ar           1 RES1               0.0000
      7 C7         -16.3916   8.5998  -3.0460 C.ar           1 RES1               0.0000
      8 N8         -19.6839   7.0191  -2.2804 N.am           1 RES1               0.0000
      9 O9         -20.0587   7.8167  -4.3541 O.2            1 RES1               0.0000
     10 N10        -18.8660   8.3614  -0.5602 N.am           1 RES1               0.0000
     11 O11        -17.9597  10.3857  -0.9262 O.2            1 RES1               0.0000
     12 C12        -20.9012  10.7281  -2.3178 C.3            1 RES1               0.0000
     13 C13        -16.1491   9.7620  -5.5355 C.ar           1 RES1               0.0000
     14 C14        -15.1809   8.5629  -3.7178 C.ar           1 RES1               0.0000
     15 C15        -19.4023   7.1630  -0.9456 C.2            1 RES1               0.0000
     16 C16        -15.0584   9.1440  -4.9620 C.ar           1 RES1               0.0000
     17 O17        -19.6301   6.2548  -0.1516 O.2            1 RES1               0.0000
     18 H18        -19.1129  11.3798  -3.3011 H              1 RES1               0.0000
     19 H19        -20.1364  10.3086  -4.2744 H              1 RES1               0.0000
     20 H20        -18.2087  10.2886  -5.3338 H              1 RES1               0.0000
     21 H21        -16.4650   8.1351  -2.0686 H              1 RES1               0.0000
     22 H22        -19.9878   6.1009  -2.5884 H              1 RES1               0.0000
     23 H23        -18.7045   8.4927   0.4333 H              1 RES1               0.0000
     24 H24        -21.4882  11.5845  -2.6430 H              1 RES1               0.0000
     25 H25        -21.5586   9.8621  -2.2781 H              1 RES1               0.0000
     26 H26        -20.5412  10.9269  -1.3105 H              1 RES1               0.0000
     27 H27        -16.0583  10.2196  -6.5151 H              1 RES1               0.0000
     28 H28        -14.3253   8.0749  -3.2629 H              1 RES1               0.0000
     29 H29        -14.1092   9.1148  -5.4868 H              1 RES1               0.0000
@<TRIPOS>BOND
    1    1    2 1     
    2    1    3 1     
    3    1    4 1     
    4    1    5 1     
    5    2    6 ar    
    6    2    7 ar    
    7    3    8 1     
    8    3    9 2     
    9    4   10 1     
   10    4   11 2     
   11    5   12 1     
   12    5   18 1     
   13    5   19 1     
   14    6   13 ar    
   15    6   20 1     
   16    7   14 ar    
   17    7   21 1     
   18    8   15 1     
   19    8   22 1     
   20   10   15 1     
   21   10   23 1     
   22   12   24 1     
   23   12   25 1     
   24   12   26 1     
   25   13   16 ar    
   26   13   27 1     
   27   14   16 ar    
   28   14   28 1     
   29   15   17 2     
   30   16   29 1     
@<TRIPOS>SUBSTRUCTURE
      1 RES1           1
@<TRIPOS>SET
DONOR_HYDROGENS      STATIC     ATOMS    <user>   **** ""
2 22 23
ATOM$RED        STATIC     ATOMS    COLORGROUP SYSTEM
2 22 23
@<TRIPOS>COMMENT
> <Gold.Version>
2022.3.0

> <Gold.Id.Protein>
unknown|3ama_clean|pdb

> <Gold.Protein.RotatedTorsions>
[ 3844 3837 3836 3834 ] final  121.10 input   59.99 | X-H torsion
[ 3766 3757 3756 3754 ] final  -27.62 input   60.00 | X-H torsion
[ 4043 4034 4033 4031 ] final  -12.27 input   60.00 | X-H torsion
[ 3307 3300 3298 3295 ] final -123.00 input   60.01 | X-H torsion
[ 2771 2760 2759 2758 ] final   49.98 input   59.98 | X-H torsion
[ 2112 2107 2106 2103 ] final -112.94 input   60.00 | X-H torsion
[ 5355 5346 5345 5343 ] final   85.57 input   60.01 | X-H torsion
[  804  797  795  792 ] final  157.95 input   59.99 | X-H torsion
[ 3357 3348 3347 3345 ] final -127.24 input   59.98 | X-H torsion
[  822  817  816  813 ] final  -92.66 input   60.00 | X-H torsion
[ 1427 1420 1418 1415 ] final   53.51 input   60.03 | X-H torsion

> <Gold.Protein.ActiveResidues>
 LEU49   GLY50   THR51   GLY52   SER53   PHE54   LYS72   LEU74   VAL79   LYS81  
 LEU82   LYS83   GLN84   HIS87   THR88   GLY126  GLU127  MET128  PHE129  SER130 
 HIS131  LEU132  ARG133  ARG134  ILE135  GLY136  ARG137  ARG165  ASP166  LEU167 
 LYS168  PRO169  GLU170  ASN171  ASP184  GLY186  PHE187  TRP196  TPO197  LEU198 
 CYS199  GLY200  THR201  PRO202  GLU203  TYR204  LEU205  ILE209  ILE210  VAL226 
 LEU227  TYR229  GLU230  ALA233  GLY234  TYR235  PRO236  PRO237  PHE238  PHE239 
 ALA240  ASP241  GLN242  PRO243  ILE244  GLN245  ILE246  TYR247  LYS249  ARG256 
 PHE257  PRO258  SER259  HIS260  ASP328  TYR330 

> <Gold.Protein.RotatedAtoms>
  -18.7686   14.3525    6.7766 H   0  0  0  0  0  0  0  0  0  0  0  0  # atno 804  bound_to 797 
  -17.6335   11.7254   -1.7541 H   0  0  0  0  0  0  0  0  0  0  0  0  # atno 822  bound_to 817 
  -20.5488   13.5219   -9.5505 H   0  0  0  0  0  0  0  0  0  0  0  0  # atno 1427 bound_to 1420
  -25.6120    5.6796   12.5770 H   0  0  0  0  0  0  0  0  0  0  0  0  # atno 2112 bound_to 2107
  -18.4422    3.3937    0.4512 H   0  0  0  0  0  0  0  0  0  0  0  0  # atno 2771 bound_to 2760
  -19.2146    4.8603    0.4603 H   0  0  0  0  0  0  0  0  0  0  0  0  # atno 2772 bound_to 2760
  -18.8053    4.1301    1.8904 H   0  0  0  0  0  0  0  0  0  0  0  0  # atno 2773 bound_to 2760
  -17.6276    2.8749    0.2192 H   0  0  0  0  0  0  0  0  0  0  0  0  # atno 3307 bound_to 3300
  -21.0064   -5.6063    3.8430 H   0  0  0  0  0  0  0  0  0  0  0  0  # atno 3357 bound_to 3348
  -15.4754  -13.1259    8.2818 H   0  0  0  0  0  0  0  0  0  0  0  0  # atno 3766 bound_to 3757
  -15.4234  -13.8158   13.1065 H   0  0  0  0  0  0  0  0  0  0  0  0  # atno 3844 bound_to 3837
  -10.0842    0.1450   -2.4425 H   0  0  0  0  0  0  0  0  0  0  0  0  # atno 4043 bound_to 4034
  -22.0786   11.9274   10.9969 H   0  0  0  0  0  0  0  0  0  0  0  0  # atno 5355 bound_to 5346
  -15.6036  -14.1572   11.5256 LP  0  0  0  0  0  0  0  0  0  0  0  0  # atno 5685 bound_to 3837
  -16.9135  -14.0462   12.4943 LP  0  0  0  0  0  0  0  0  0  0  0  0  # atno 5686 bound_to 3837
  -15.3260  -14.4360    7.3282 LP  0  0  0  0  0  0  0  0  0  0  0  0  # atno 5693 bound_to 3757
  -16.3342  -14.4679    8.6125 LP  0  0  0  0  0  0  0  0  0  0  0  0  # atno 5694 bound_to 3757
   -8.7906    0.7980   -3.1824 LP  0  0  0  0  0  0  0  0  0  0  0  0  # atno 5743 bound_to 4034
   -8.8352    0.6899   -1.5536 LP  0  0  0  0  0  0  0  0  0  0  0  0  # atno 5744 bound_to 4034
  -18.5368    2.0297   -0.8334 LP  0  0  0  0  0  0  0  0  0  0  0  0  # atno 5749 bound_to 3300
  -17.1937    2.8031   -1.3478 LP  0  0  0  0  0  0  0  0  0  0  0  0  # atno 5750 bound_to 3300
  -26.5999    5.3665   11.3225 LP  0  0  0  0  0  0  0  0  0  0  0  0  # atno 5763 bound_to 2107
  -25.1285    4.6626   11.4024 LP  0  0  0  0  0  0  0  0  0  0  0  0  # atno 5764 bound_to 2107
  -22.0368   12.4769    9.4660 LP  0  0  0  0  0  0  0  0  0  0  0  0  # atno 5765 bound_to 5346
  -23.4567   12.0311   10.1383 LP  0  0  0  0  0  0  0  0  0  0  0  0  # atno 5766 bound_to 5346
  -19.6765   13.1634    6.1378 LP  0  0  0  0  0  0  0  0  0  0  0  0  # atno 5773 bound_to 797 
  -20.1575   13.9182    7.5037 LP  0  0  0  0  0  0  0  0  0  0  0  0  # atno 5774 bound_to 797 
  -21.7500   -4.1589    3.8303 LP  0  0  0  0  0  0  0  0  0  0  0  0  # atno 5791 bound_to 3348
  -20.3205   -4.3389    4.5988 LP  0  0  0  0  0  0  0  0  0  0  0  0  # atno 5792 bound_to 3348
  -16.9463   12.4991   -3.0097 LP  0  0  0  0  0  0  0  0  0  0  0  0  # atno 5799 bound_to 817 
  -18.1915   13.1853   -2.2063 LP  0  0  0  0  0  0  0  0  0  0  0  0  # atno 5800 bound_to 817 
  -21.6591   13.7480   -8.3825 LP  0  0  0  0  0  0  0  0  0  0  0  0  # atno 5832 bound_to 1420
  -20.8026   15.0150   -8.9552 LP  0  0  0  0  0  0  0  0  0  0  0  0  # atno 5833 bound_to 1420

> <Gold.Score>
     Fitness  S(hb_ext) S(vdw_ext)  S(hb_int)    S(int)      intcor
     34.86      11.10      17.70       0.00      -0.58      -0.76

> <Gold.Goldscore.Fitness>
34.8605

> <Gold.Goldscore.Internal.Vdw>
-0.6760

> <Gold.Goldscore.Internal.Torsion>
-0.6648

> <Gold.Goldscore.External.Vdw>
17.7006

> <Gold.Goldscore.Internal.HBond>
0.0000

> <Gold.Goldscore.External.HBond>
11.1045

> <Gold.Goldscore.Internal.Correction>
-0.7585

> <Gold.Goldscore.Hbonds>
donor molecule, donor type, donor heavy atom, donor atom, acceptor molecule, acceptor atom, score
      P1  H  2760  2772       L1    17  1.00
      P1  H   812   818       L1    11  0.18
      P1  H   817   822       L1    11  1.00
      L1  H     8    22       P1  2728  0.46

> <Gold.Goldscore.Internal.Vdw.Weighted>
-0.6760

> <Gold.Goldscore.Internal.Torsion.Weighted>
-0.6648

> <Gold.Goldscore.External.Vdw.Weighted>
24.3383

> <Gold.Goldscore.Internal.HBond.Weighted>
0.0000

> <Gold.Goldscore.External.HBond.Weighted>
11.1045

> <Gold.Goldscore.Internal.Correction.Weighted>
-0.7585

> <Gold.Rescore>
     Score     S(PLP)   S(hbond)     S(cho)   S(metal)  DE(clash)   DE(tors)     intcor
     41.04     -31.02       3.95       0.00       0.00       0.00       0.92       ----

> <Gold.PLP.Fitness>
41.0369

> <Gold.PLP.PLP>
-31.0207

> <Gold.PLP.part.hbond>
-4.0000

> <Gold.PLP.part.metal>
0.0000

> <Gold.PLP.part.buried>
-5.1502

> <Gold.PLP.part.nonpolar>
-24.1990

> <Gold.PLP.part.repulsive>
0.4176

> <Gold.PLP.ligand.clash>
0.0000

> <Gold.PLP.ligand.torsion>
0.9169

> <Gold.PLP.Chemscore.Hbond>
3.9500

> <Gold.PLP.Chemscore.CHOScore>
0.0000

> <Gold.PLP.Chemscore.Metal>
0.0000

> <Gold.Chemscore.Hbonds>
donor molecule, donor type, donor heavy atom, donor atom, acceptor molecule, acceptor atom, score
      L1  H     8    22       P1  2728  1.00
      P1  H  2760  2772       L1    17  0.94
      P1  H   812   818       L1    11  0.07
      P1  H   817   822       L1    11  1.00

> <Gold.PLP.Chemscore.Internal.Correction>
   9.000000E+99

