#       Name:                CT1002167954
#       Creating user name   hitesit
#       Creation time:       Sun Apr 16 02:22:07 2023


#       File generated by GOLD software.
#

@<TRIPOS>MOLECULE
CT1002167954|ligand_prepared|mol2|1|dock9
    29    30     1
SMALL
NO_CHARGES


@<TRIPOS>ATOM
      1 C1         -26.3393   9.6893   4.2306 C.3            1 RES1               0.0000
      2 C2         -26.5479   9.9223   2.7203 C.ar           1 RES1               0.0000
      3 C3         -26.2461   8.1784   4.4221 C.2            1 RES1               0.0000
      4 C4         -25.0689  10.4437   4.6071 C.2            1 RES1               0.0000
      5 C5         -27.4921  10.2259   5.1107 C.3            1 RES1               0.0000
      6 C6         -25.4575  10.0205   1.8611 C.ar           1 RES1               0.0000
      7 C7         -27.8225  10.0382   2.1721 C.ar           1 RES1               0.0000
      8 N8         -25.0165   7.6492   4.6830 N.am           1 RES1               0.0000
      9 O9         -27.2298   7.4578   4.3069 O.2            1 RES1               0.0000
     10 N10        -23.9850   9.7119   5.0164 N.am           1 RES1               0.0000
     11 O11        -24.9914  11.6641   4.5371 O.2            1 RES1               0.0000
     12 C12        -27.1841  10.2126   6.5997 C.3            1 RES1               0.0000
     13 C13        -25.6349  10.2242   0.5027 C.ar           1 RES1               0.0000
     14 C14        -27.9977  10.2422   0.8133 C.ar           1 RES1               0.0000
     15 C15        -23.8915   8.3471   5.0420 C.2            1 RES1               0.0000
     16 C16        -26.9049  10.3347  -0.0222 C.ar           1 RES1               0.0000
     17 O17        -22.8640   7.7610   5.3706 O.2            1 RES1               0.0000
     18 H18        -27.7192  11.2550   4.8063 H              1 RES1               0.0000
     19 H19        -28.3869   9.6176   4.9299 H              1 RES1               0.0000
     20 H20        -24.4505   9.9385   2.2564 H              1 RES1               0.0000
     21 H21        -28.6968   9.9697   2.8104 H              1 RES1               0.0000
     22 H22        -24.9251   6.6414   4.6036 H              1 RES1               0.0000
     23 H23        -23.1728  10.2329   5.3313 H              1 RES1               0.0000
     24 H24        -28.0255  10.5988   7.1711 H              1 RES1               0.0000
     25 H25        -26.9780   9.2006   6.9419 H              1 RES1               0.0000
     26 H26        -26.3142  10.8283   6.8191 H              1 RES1               0.0000
     27 H27        -24.7716  10.2977  -0.1503 H              1 RES1               0.0000
     28 H28        -28.9990  10.3292   0.4046 H              1 RES1               0.0000
     29 H29        -27.0436  10.4939  -1.0864 H              1 RES1               0.0000
@<TRIPOS>BOND
    1    1    2 1     
    2    1    3 1     
    3    1    4 1     
    4    1    5 1     
    5    2    6 ar    
    6    2    7 ar    
    7    3    8 1     
    8    3    9 2     
    9    4   10 1     
   10    4   11 2     
   11    5   12 1     
   12    5   18 1     
   13    5   19 1     
   14    6   13 ar    
   15    6   20 1     
   16    7   14 ar    
   17    7   21 1     
   18    8   15 1     
   19    8   22 1     
   20   10   15 1     
   21   10   23 1     
   22   12   24 1     
   23   12   25 1     
   24   12   26 1     
   25   13   16 ar    
   26   13   27 1     
   27   14   16 ar    
   28   14   28 1     
   29   15   17 2     
   30   16   29 1     
@<TRIPOS>SUBSTRUCTURE
      1 RES1           1
@<TRIPOS>SET
DONOR_HYDROGENS      STATIC     ATOMS    <user>   **** ""
2 22 23
ATOM$RED        STATIC     ATOMS    COLORGROUP SYSTEM
2 22 23
@<TRIPOS>COMMENT
> <Gold.Version>
2022.3.0

> <Gold.Id.Protein>
unknown|3ama_clean|pdb

> <Gold.Protein.RotatedTorsions>
[ 3844 3837 3836 3834 ] final -129.22 input   59.99 | X-H torsion
[ 3766 3757 3756 3754 ] final  130.30 input   60.00 | X-H torsion
[ 4043 4034 4033 4031 ] final   36.43 input   60.00 | X-H torsion
[ 3307 3300 3298 3295 ] final  -46.34 input   60.01 | X-H torsion
[ 2771 2760 2759 2758 ] final -167.10 input   59.98 | X-H torsion
[ 2112 2107 2106 2103 ] final  150.85 input   60.00 | X-H torsion
[ 5355 5346 5345 5343 ] final  -30.44 input   60.01 | X-H torsion
[  804  797  795  792 ] final -118.04 input   59.99 | X-H torsion
[ 3357 3348 3347 3345 ] final -132.79 input   59.98 | X-H torsion
[  822  817  816  813 ] final  -45.64 input   60.00 | X-H torsion
[ 1427 1420 1418 1415 ] final  127.43 input   60.03 | X-H torsion

> <Gold.Protein.ActiveResidues>
 LEU49   GLY50   THR51   GLY52   SER53   PHE54   LYS72   LEU74   VAL79   LYS81  
 LEU82   LYS83   GLN84   HIS87   THR88   GLY126  GLU127  MET128  PHE129  SER130 
 HIS131  LEU132  ARG133  ARG134  ILE135  GLY136  ARG137  ARG165  ASP166  LEU167 
 LYS168  PRO169  GLU170  ASN171  ASP184  GLY186  PHE187  TRP196  TPO197  LEU198 
 CYS199  GLY200  THR201  PRO202  GLU203  TYR204  LEU205  ILE209  ILE210  VAL226 
 LEU227  TYR229  GLU230  ALA233  GLY234  TYR235  PRO236  PRO237  PHE238  PHE239 
 ALA240  ASP241  GLN242  PRO243  ILE244  GLN245  ILE246  TYR247  LYS249  ARG256 
 PHE257  PRO258  SER259  HIS260  ASP328  TYR330 

> <Gold.Protein.RotatedAtoms>
  -19.7274   14.3002    7.5803 H   0  0  0  0  0  0  0  0  0  0  0  0  # atno 804  bound_to 797 
  -18.1416   12.2498   -1.5976 H   0  0  0  0  0  0  0  0  0  0  0  0  # atno 822  bound_to 817 
  -20.4057   14.6333   -9.4428 H   0  0  0  0  0  0  0  0  0  0  0  0  # atno 1427 bound_to 1420
  -26.6371    5.5891   11.6373 H   0  0  0  0  0  0  0  0  0  0  0  0  # atno 2112 bound_to 2107
  -19.2649    4.9673    0.8210 H   0  0  0  0  0  0  0  0  0  0  0  0  # atno 2771 bound_to 2760
  -18.6322    3.7997    1.8129 H   0  0  0  0  0  0  0  0  0  0  0  0  # atno 2772 bound_to 2760
  -18.5641    3.6154    0.1675 H   0  0  0  0  0  0  0  0  0  0  0  0  # atno 2773 bound_to 2760
  -16.9989    3.0707   -0.7379 H   0  0  0  0  0  0  0  0  0  0  0  0  # atno 3307 bound_to 3300
  -21.0858   -5.5921    3.8015 H   0  0  0  0  0  0  0  0  0  0  0  0  # atno 3357 bound_to 3348
  -16.1493  -14.8310    8.1577 H   0  0  0  0  0  0  0  0  0  0  0  0  # atno 3766 bound_to 3757
  -16.8732  -14.0081   12.6542 H   0  0  0  0  0  0  0  0  0  0  0  0  # atno 3844 bound_to 3837
   -9.8156    0.2334   -1.7244 H   0  0  0  0  0  0  0  0  0  0  0  0  # atno 4043 bound_to 4034
  -21.9866   12.4710    9.5084 H   0  0  0  0  0  0  0  0  0  0  0  0  # atno 5355 bound_to 5346
  -15.2929  -13.8313   12.9999 LP  0  0  0  0  0  0  0  0  0  0  0  0  # atno 5685 bound_to 3837
  -15.7642  -14.1785   11.4755 LP  0  0  0  0  0  0  0  0  0  0  0  0  # atno 5686 bound_to 3837
  -15.8801  -13.3192    8.6960 LP  0  0  0  0  0  0  0  0  0  0  0  0  # atno 5693 bound_to 3757
  -15.1013  -13.8674    7.3696 LP  0  0  0  0  0  0  0  0  0  0  0  0  # atno 5694 bound_to 3757
   -9.4881    0.4750   -3.2996 LP  0  0  0  0  0  0  0  0  0  0  0  0  # atno 5743 bound_to 4034
   -8.4083    0.9239   -2.1598 LP  0  0  0  0  0  0  0  0  0  0  0  0  # atno 5744 bound_to 4034
  -18.2034    2.4887    0.1892 LP  0  0  0  0  0  0  0  0  0  0  0  0  # atno 5749 bound_to 3300
  -18.1600    2.1470   -1.4070 LP  0  0  0  0  0  0  0  0  0  0  0  0  # atno 5750 bound_to 3300
  -25.4145    4.6373   11.1403 LP  0  0  0  0  0  0  0  0  0  0  0  0  # atno 5763 bound_to 2107
  -25.2815    5.4829   12.5309 LP  0  0  0  0  0  0  0  0  0  0  0  0  # atno 5764 bound_to 2107
  -23.4529   12.0536   10.0767 LP  0  0  0  0  0  0  0  0  0  0  0  0  # atno 5765 bound_to 5346
  -22.1333   11.9066   11.0274 LP  0  0  0  0  0  0  0  0  0  0  0  0  # atno 5766 bound_to 5346
  -18.7453   13.9952    6.3198 LP  0  0  0  0  0  0  0  0  0  0  0  0  # atno 5773 bound_to 797 
  -20.1225   13.1391    6.5117 LP  0  0  0  0  0  0  0  0  0  0  0  0  # atno 5774 bound_to 797 
  -21.7083   -4.0903    3.8737 LP  0  0  0  0  0  0  0  0  0  0  0  0  # atno 5791 bound_to 3348
  -20.2823   -4.4218    4.5971 LP  0  0  0  0  0  0  0  0  0  0  0  0  # atno 5792 bound_to 3348
  -16.9167   11.8697   -2.5988 LP  0  0  0  0  0  0  0  0  0  0  0  0  # atno 5799 bound_to 817 
  -17.7093   13.2865   -2.7748 LP  0  0  0  0  0  0  0  0  0  0  0  0  # atno 5800 bound_to 817 
  -21.0405   13.1670   -9.1342 LP  0  0  0  0  0  0  0  0  0  0  0  0  # atno 5832 bound_to 1420
  -21.5653   14.4767   -8.3119 LP  0  0  0  0  0  0  0  0  0  0  0  0  # atno 5833 bound_to 1420

> <Gold.Score>
     Fitness  S(hb_ext) S(vdw_ext)  S(hb_int)    S(int)      intcor
     30.18       2.00      20.74       0.00      -0.33      -0.76

> <Gold.Goldscore.Fitness>
30.1828

> <Gold.Goldscore.Internal.Vdw>
-0.5751

> <Gold.Goldscore.Internal.Torsion>
-0.5182

> <Gold.Goldscore.External.Vdw>
20.7400

> <Gold.Goldscore.Internal.HBond>
0.0000

> <Gold.Goldscore.External.HBond>
2.0000

> <Gold.Goldscore.Internal.Correction>
-0.7585

> <Gold.Goldscore.Hbonds>
donor molecule, donor type, donor heavy atom, donor atom, acceptor molecule, acceptor atom, score
      L1  H     8    22       P1  2791  1.00

> <Gold.Goldscore.Internal.Vdw.Weighted>
-0.5751

> <Gold.Goldscore.Internal.Torsion.Weighted>
-0.5182

> <Gold.Goldscore.External.Vdw.Weighted>
28.5175

> <Gold.Goldscore.Internal.HBond.Weighted>
0.0000

> <Gold.Goldscore.External.HBond.Weighted>
2.0000

> <Gold.Goldscore.Internal.Correction.Weighted>
-0.7585

> <Gold.Rescore>
     Score     S(PLP)   S(hbond)     S(cho)   S(metal)  DE(clash)   DE(tors)     intcor
     32.58     -30.01       1.00       0.00       0.00       0.00       0.22       ----

> <Gold.PLP.Fitness>
32.5755

> <Gold.PLP.PLP>
-30.0133

> <Gold.PLP.part.hbond>
-1.0000

> <Gold.PLP.part.metal>
0.0000

> <Gold.PLP.part.buried>
-3.9919

> <Gold.PLP.part.nonpolar>
-26.2861

> <Gold.PLP.part.repulsive>
0.4672

> <Gold.PLP.ligand.clash>
0.0000

> <Gold.PLP.ligand.torsion>
0.2189

> <Gold.PLP.Chemscore.Hbond>
1.0000

> <Gold.PLP.Chemscore.CHOScore>
0.0000

> <Gold.PLP.Chemscore.Metal>
0.0000

> <Gold.Chemscore.Hbonds>
donor molecule, donor type, donor heavy atom, donor atom, acceptor molecule, acceptor atom, score
      L1  H     8    22       P1  2791  1.00

> <Gold.PLP.Chemscore.Internal.Correction>
   9.000000E+99

