#       Name:                CT1002167954
#       Creating user name   hitesit
#       Creation time:       Sun Apr 16 02:21:54 2023


#       File generated by GOLD software.
#

@<TRIPOS>MOLECULE
CT1002167954|ligand_prepared|mol2|1|dock1
    29    30     1
SMALL
NO_CHARGES


@<TRIPOS>ATOM
      1 C1         -19.8612   9.5725  -2.4902 C.3            1 RES1               0.0000
      2 C2         -18.7614   9.6639  -3.5676 C.ar           1 RES1               0.0000
      3 C3         -20.5708   8.2404  -2.7143 C.2            1 RES1               0.0000
      4 C4         -19.1509   9.6804  -1.1454 C.2            1 RES1               0.0000
      5 C5         -20.9093  10.7068  -2.5693 C.3            1 RES1               0.0000
      6 C6         -19.0646  10.0986  -4.8545 C.ar           1 RES1               0.0000
      7 C7         -17.4412   9.3202  -3.2895 C.ar           1 RES1               0.0000
      8 N8         -20.3218   7.2348  -1.8274 N.am           1 RES1               0.0000
      9 O9         -21.3070   8.0626  -3.6769 O.2            1 RES1               0.0000
     10 N10        -19.1725   8.5881  -0.3183 N.am           1 RES1               0.0000
     11 O11        -18.5586  10.6959  -0.8015 O.2            1 RES1               0.0000
     12 C12        -21.7499  10.8538  -1.3107 C.3            1 RES1               0.0000
     13 C13        -18.0829  10.1893  -5.8273 C.ar           1 RES1               0.0000
     14 C14        -16.4610   9.4114  -4.2640 C.ar           1 RES1               0.0000
     15 C15        -19.6995   7.3598  -0.6113 C.2            1 RES1               0.0000
     16 C16        -16.7805   9.8462  -5.5327 C.ar           1 RES1               0.0000
     17 O17        -19.6320   6.4097   0.1632 O.2            1 RES1               0.0000
     18 H18        -20.3905  11.6543  -2.7601 H              1 RES1               0.0000
     19 H19        -21.5762  10.5128  -3.4185 H              1 RES1               0.0000
     20 H20        -20.0844  10.3705  -5.1055 H              1 RES1               0.0000
     21 H21        -17.1669   8.9746  -2.2986 H              1 RES1               0.0000
     22 H22        -20.6264   6.3036  -2.0929 H              1 RES1               0.0000
     23 H23        -18.7573   8.7011   0.6011 H              1 RES1               0.0000
     24 H24        -22.4688  11.6632  -1.4194 H              1 RES1               0.0000
     25 H25        -22.2995   9.9378  -1.1047 H              1 RES1               0.0000
     26 H26        -21.1209  11.0725  -0.4502 H              1 RES1               0.0000
     27 H27        -18.3398  10.5307  -6.8246 H              1 RES1               0.0000
     28 H28        -15.4374   9.1398  -4.0278 H              1 RES1               0.0000
     29 H29        -16.0116   9.9177  -6.2948 H              1 RES1               0.0000
@<TRIPOS>BOND
    1    1    2 1     
    2    1    3 1     
    3    1    4 1     
    4    1    5 1     
    5    2    6 ar    
    6    2    7 ar    
    7    3    8 1     
    8    3    9 2     
    9    4   10 1     
   10    4   11 2     
   11    5   12 1     
   12    5   18 1     
   13    5   19 1     
   14    6   13 ar    
   15    6   20 1     
   16    7   14 ar    
   17    7   21 1     
   18    8   15 1     
   19    8   22 1     
   20   10   15 1     
   21   10   23 1     
   22   12   24 1     
   23   12   25 1     
   24   12   26 1     
   25   13   16 ar    
   26   13   27 1     
   27   14   16 ar    
   28   14   28 1     
   29   15   17 2     
   30   16   29 1     
@<TRIPOS>SUBSTRUCTURE
      1 RES1           1
@<TRIPOS>SET
DONOR_HYDROGENS      STATIC     ATOMS    <user>   **** ""
2 22 23
ATOM$RED        STATIC     ATOMS    COLORGROUP SYSTEM
2 22 23
@<TRIPOS>COMMENT
> <Gold.Version>
2022.3.0

> <Gold.Id.Protein>
unknown|3ama_clean|pdb

> <Gold.Protein.RotatedTorsions>
[ 3844 3837 3836 3834 ] final -102.64 input   59.99 | X-H torsion
[ 3766 3757 3756 3754 ] final -142.14 input   60.00 | X-H torsion
[ 4043 4034 4033 4031 ] final  -98.75 input   60.00 | X-H torsion
[ 3307 3300 3298 3295 ] final  112.41 input   60.01 | X-H torsion
[ 2771 2760 2759 2758 ] final  -54.93 input   59.98 | X-H torsion
[ 2112 2107 2106 2103 ] final  110.30 input   60.00 | X-H torsion
[ 5355 5346 5345 5343 ] final  -35.22 input   60.01 | X-H torsion
[  804  797  795  792 ] final   11.86 input   59.99 | X-H torsion
[ 3357 3348 3347 3345 ] final  -26.08 input   59.98 | X-H torsion
[  822  817  816  813 ] final  -77.17 input   60.00 | X-H torsion
[ 1427 1420 1418 1415 ] final -161.41 input   60.03 | X-H torsion

> <Gold.Protein.ActiveResidues>
 LEU49   GLY50   THR51   GLY52   SER53   PHE54   LYS72   LEU74   VAL79   LYS81  
 LEU82   LYS83   GLN84   HIS87   THR88   GLY126  GLU127  MET128  PHE129  SER130 
 HIS131  LEU132  ARG133  ARG134  ILE135  GLY136  ARG137  ARG165  ASP166  LEU167 
 LYS168  PRO169  GLU170  ASN171  ASP184  GLY186  PHE187  TRP196  TPO197  LEU198 
 CYS199  GLY200  THR201  PRO202  GLU203  TYR204  LEU205  ILE209  ILE210  VAL226 
 LEU227  TYR229  GLU230  ALA233  GLY234  TYR235  PRO236  PRO237  PHE238  PHE239 
 ALA240  ASP241  GLN242  PRO243  ILE244  GLN245  ILE246  TYR247  LYS249  ARG256 
 PHE257  PRO258  SER259  HIS260  ASP328  TYR330 

> <Gold.Protein.RotatedAtoms>
  -20.0137   13.1256    6.3920 H   0  0  0  0  0  0  0  0  0  0  0  0  # atno 804  bound_to 797 
  -17.8225   11.8575   -1.6517 H   0  0  0  0  0  0  0  0  0  0  0  0  # atno 822  bound_to 817 
  -21.0952   14.9786   -8.6732 H   0  0  0  0  0  0  0  0  0  0  0  0  # atno 1427 bound_to 1420
  -26.4809    5.1891   11.1509 H   0  0  0  0  0  0  0  0  0  0  0  0  # atno 2112 bound_to 2107
  -18.6896    3.9096    1.8559 H   0  0  0  0  0  0  0  0  0  0  0  0  # atno 2771 bound_to 2760
  -18.5167    3.5289    0.2519 H   0  0  0  0  0  0  0  0  0  0  0  0  # atno 2772 bound_to 2760
  -19.2556    4.9451    0.6926 H   0  0  0  0  0  0  0  0  0  0  0  0  # atno 2773 bound_to 2760
  -18.5080    2.0292   -0.9033 H   0  0  0  0  0  0  0  0  0  0  0  0  # atno 3307 bound_to 3300
  -20.2242   -4.6293    4.5685 H   0  0  0  0  0  0  0  0  0  0  0  0  # atno 3357 bound_to 3348
  -15.2850  -14.3564    7.3176 H   0  0  0  0  0  0  0  0  0  0  0  0  # atno 3766 bound_to 3757
  -16.8996  -14.0967   12.2339 H   0  0  0  0  0  0  0  0  0  0  0  0  # atno 3844 bound_to 3837
   -9.2645    0.5793   -3.3277 H   0  0  0  0  0  0  0  0  0  0  0  0  # atno 4043 bound_to 4034
  -22.0515   12.4769    9.4655 H   0  0  0  0  0  0  0  0  0  0  0  0  # atno 5355 bound_to 5346
  -15.6533  -13.8064   13.2392 LP  0  0  0  0  0  0  0  0  0  0  0  0  # atno 5685 bound_to 3837
  -15.3772  -14.1141   11.6594 LP  0  0  0  0  0  0  0  0  0  0  0  0  # atno 5686 bound_to 3837
  -16.3233  -14.5384    8.5573 LP  0  0  0  0  0  0  0  0  0  0  0  0  # atno 5693 bound_to 3757
  -15.5287  -13.1262    8.3545 LP  0  0  0  0  0  0  0  0  0  0  0  0  # atno 5694 bound_to 3757
   -8.4876    0.8741   -1.9290 LP  0  0  0  0  0  0  0  0  0  0  0  0  # atno 5743 bound_to 4034
   -9.9640    0.1764   -1.9151 LP  0  0  0  0  0  0  0  0  0  0  0  0  # atno 5744 bound_to 4034
  -17.1537    2.8415   -1.2967 LP  0  0  0  0  0  0  0  0  0  0  0  0  # atno 5749 bound_to 3300
  -17.6907    2.8424    0.2454 LP  0  0  0  0  0  0  0  0  0  0  0  0  # atno 5750 bound_to 3300
  -24.9914    4.7400   11.6276 LP  0  0  0  0  0  0  0  0  0  0  0  0  # atno 5763 bound_to 2107
  -25.8619    5.7831   12.5335 LP  0  0  0  0  0  0  0  0  0  0  0  0  # atno 5764 bound_to 2107
  -23.4569   12.0267   10.1505 LP  0  0  0  0  0  0  0  0  0  0  0  0  # atno 5765 bound_to 5346
  -22.0639   11.9276   10.9969 LP  0  0  0  0  0  0  0  0  0  0  0  0  # atno 5766 bound_to 5346
  -19.8614   14.2099    7.5951 LP  0  0  0  0  0  0  0  0  0  0  0  0  # atno 5773 bound_to 797 
  -18.7178   14.1080    6.4339 LP  0  0  0  0  0  0  0  0  0  0  0  0  # atno 5774 bound_to 797 
  -21.2749   -5.5310    3.7135 LP  0  0  0  0  0  0  0  0  0  0  0  0  # atno 5791 bound_to 3348
  -21.5832   -3.9505    3.9850 LP  0  0  0  0  0  0  0  0  0  0  0  0  # atno 5792 bound_to 3348
  -16.8840   12.2718   -2.9145 LP  0  0  0  0  0  0  0  0  0  0  0  0  # atno 5799 bound_to 817 
  -18.0634   13.2796   -2.4046 LP  0  0  0  0  0  0  0  0  0  0  0  0  # atno 5800 bound_to 817 
  -20.3776   13.8818   -9.6376 LP  0  0  0  0  0  0  0  0  0  0  0  0  # atno 5832 bound_to 1420
  -21.5338   13.4141   -8.5836 LP  0  0  0  0  0  0  0  0  0  0  0  0  # atno 5833 bound_to 1420

> <Gold.Score>
     Fitness  S(hb_ext) S(vdw_ext)  S(hb_int)    S(int)      intcor
     39.69      12.66      20.38       0.00      -1.00      -0.78

> <Gold.Goldscore.Fitness>
39.6860

> <Gold.Goldscore.Internal.Vdw>
-1.0141

> <Gold.Goldscore.Internal.Torsion>
-0.7603

> <Gold.Goldscore.External.Vdw>
20.3834

> <Gold.Goldscore.Internal.HBond>
0.0000

> <Gold.Goldscore.External.HBond>
12.6580

> <Gold.Goldscore.Internal.Correction>
-0.7752

> <Gold.Goldscore.Hbonds>
donor molecule, donor type, donor heavy atom, donor atom, acceptor molecule, acceptor atom, score
      P1  H  2760  2773       L1    17  1.00
      P1  H   812   818       L1    11  0.59
      P1  H   817   822       L1    11  1.00
      L1  H     8    22       P1  2728  0.58

> <Gold.Goldscore.Internal.Vdw.Weighted>
-1.0141

> <Gold.Goldscore.Internal.Torsion.Weighted>
-0.7603

> <Gold.Goldscore.External.Vdw.Weighted>
28.0272

> <Gold.Goldscore.Internal.HBond.Weighted>
0.0000

> <Gold.Goldscore.External.HBond.Weighted>
12.6580

> <Gold.Goldscore.Internal.Correction.Weighted>
-0.7752

> <Gold.Rescore>
     Score     S(PLP)   S(hbond)     S(cho)   S(metal)  DE(clash)   DE(tors)     intcor
     40.97     -32.07       3.98       0.00       0.00       0.00       1.51       ----

> <Gold.PLP.Fitness>
40.9672

> <Gold.PLP.PLP>
-32.0691

> <Gold.PLP.part.hbond>
-3.9417

> <Gold.PLP.part.metal>
0.0000

> <Gold.PLP.part.buried>
-4.6380

> <Gold.PLP.part.nonpolar>
-24.0000

> <Gold.PLP.part.repulsive>
0.4292

> <Gold.PLP.ligand.clash>
0.0000

> <Gold.PLP.ligand.torsion>
1.5134

> <Gold.PLP.Chemscore.Hbond>
3.9750

> <Gold.PLP.Chemscore.CHOScore>
0.0000

> <Gold.PLP.Chemscore.Metal>
0.0000

> <Gold.Chemscore.Hbonds>
donor molecule, donor type, donor heavy atom, donor atom, acceptor molecule, acceptor atom, score
      L1  H     8    22       P1  2728  0.93
      P1  H  2760  2773       L1    17  1.00
      P1  H   812   818       L1    11  1.00
      P1  H   817   822       L1    11  1.00

> <Gold.PLP.Chemscore.Internal.Correction>
   9.000000E+99

