#       Name:                CT1002167954
#       Creating user name   hitesit
#       Creation time:       Sun Apr 16 02:22:00 2023


#       File generated by GOLD software.
#

@<TRIPOS>MOLECULE
CT1002167954|ligand_prepared|mol2|1|dock4
    29    30     1
SMALL
NO_CHARGES


@<TRIPOS>ATOM
      1 C1         -25.5259   8.7941   3.1006 C.3            1 RES1               0.0000
      2 C2         -26.9034   9.4073   2.7761 C.ar           1 RES1               0.0000
      3 C3         -25.0233   8.1609   1.8065 C.2            1 RES1               0.0000
      4 C4         -24.6585   9.9395   3.6106 C.2            1 RES1               0.0000
      5 C5         -25.5699   7.7036   4.1962 C.3            1 RES1               0.0000
      6 C6         -27.0319  10.3771   1.7862 C.ar           1 RES1               0.0000
      7 C7         -28.0530   9.0122   3.4550 C.ar           1 RES1               0.0000
      8 N8         -24.0200   8.7994   1.1388 N.am           1 RES1               0.0000
      9 O9         -25.5264   7.1382   1.3580 O.2            1 RES1               0.0000
     10 N10        -23.5778  10.3123   2.8550 N.am           1 RES1               0.0000
     11 O11        -24.9107  10.5336   4.6517 O.2            1 RES1               0.0000
     12 C12        -24.2071   7.1215   4.5370 C.3            1 RES1               0.0000
     13 C13        -28.2654  10.9297   1.4839 C.ar           1 RES1               0.0000
     14 C14        -29.2856   9.5663   3.1512 C.ar           1 RES1               0.0000
     15 C15        -23.2371   9.8145   1.6269 C.2            1 RES1               0.0000
     16 C16        -29.3930  10.5244   2.1658 C.ar           1 RES1               0.0000
     17 O17        -22.2815  10.2389   0.9836 O.2            1 RES1               0.0000
     18 H18        -26.0074   8.1341   5.1055 H              1 RES1               0.0000
     19 H19        -26.2266   6.8917   3.8602 H              1 RES1               0.0000
     20 H20        -26.1553  10.7103   1.2407 H              1 RES1               0.0000
     21 H21        -27.9922   8.2607   4.2348 H              1 RES1               0.0000
     22 H22        -23.8349   8.4939   0.1887 H              1 RES1               0.0000
     23 H23        -22.9712  11.0270   3.2441 H              1 RES1               0.0000
     24 H24        -24.2948   6.3615   5.3106 H              1 RES1               0.0000
     25 H25        -23.7537   6.6625   3.6609 H              1 RES1               0.0000
     26 H26        -23.5358   7.8975   4.8988 H              1 RES1               0.0000
     27 H27        -28.3445  11.6844   0.7084 H              1 RES1               0.0000
     28 H28        -30.1703   9.2448   3.6908 H              1 RES1               0.0000
     29 H29        -30.3593  10.9572   1.9285 H              1 RES1               0.0000
@<TRIPOS>BOND
    1    1    2 1     
    2    1    3 1     
    3    1    4 1     
    4    1    5 1     
    5    2    6 ar    
    6    2    7 ar    
    7    3    8 1     
    8    3    9 2     
    9    4   10 1     
   10    4   11 2     
   11    5   12 1     
   12    5   18 1     
   13    5   19 1     
   14    6   13 ar    
   15    6   20 1     
   16    7   14 ar    
   17    7   21 1     
   18    8   15 1     
   19    8   22 1     
   20   10   15 1     
   21   10   23 1     
   22   12   24 1     
   23   12   25 1     
   24   12   26 1     
   25   13   16 ar    
   26   13   27 1     
   27   14   16 ar    
   28   14   28 1     
   29   15   17 2     
   30   16   29 1     
@<TRIPOS>SUBSTRUCTURE
      1 RES1           1
@<TRIPOS>SET
DONOR_HYDROGENS      STATIC     ATOMS    <user>   **** ""
2 22 23
ATOM$RED        STATIC     ATOMS    COLORGROUP SYSTEM
2 22 23
@<TRIPOS>COMMENT
> <Gold.Version>
2022.3.0

> <Gold.Id.Protein>
unknown|3ama_clean|pdb

> <Gold.Protein.RotatedTorsions>
[ 3844 3837 3836 3834 ] final -156.27 input   59.99 | X-H torsion
[ 3766 3757 3756 3754 ] final  -45.75 input   60.00 | X-H torsion
[ 4043 4034 4033 4031 ] final  -80.84 input   60.00 | X-H torsion
[ 3307 3300 3298 3295 ] final  126.17 input   60.01 | X-H torsion
[ 2771 2760 2759 2758 ] final  160.31 input   59.98 | X-H torsion
[ 2112 2107 2106 2103 ] final   57.00 input   60.00 | X-H torsion
[ 5355 5346 5345 5343 ] final   11.22 input   60.01 | X-H torsion
[  804  797  795  792 ] final  -28.72 input   59.99 | X-H torsion
[ 3357 3348 3347 3345 ] final  -84.00 input   59.98 | X-H torsion
[  822  817  816  813 ] final   49.15 input   60.00 | X-H torsion
[ 1427 1420 1418 1415 ] final   38.91 input   60.03 | X-H torsion

> <Gold.Protein.ActiveResidues>
 LEU49   GLY50   THR51   GLY52   SER53   PHE54   LYS72   LEU74   VAL79   LYS81  
 LEU82   LYS83   GLN84   HIS87   THR88   GLY126  GLU127  MET128  PHE129  SER130 
 HIS131  LEU132  ARG133  ARG134  ILE135  GLY136  ARG137  ARG165  ASP166  LEU167 
 LYS168  PRO169  GLU170  ASN171  ASP184  GLY186  PHE187  TRP196  TPO197  LEU198 
 CYS199  GLY200  THR201  PRO202  GLU203  TYR204  LEU205  ILE209  ILE210  VAL226 
 LEU227  TYR229  GLU230  ALA233  GLY234  TYR235  PRO236  PRO237  PHE238  PHE239 
 ALA240  ASP241  GLN242  PRO243  ILE244  GLN245  ILE246  TYR247  LYS249  ARG256 
 PHE257  PRO258  SER259  HIS260  ASP328  TYR330 

> <Gold.Protein.RotatedAtoms>
  -20.3244   13.3291    6.9241 H   0  0  0  0  0  0  0  0  0  0  0  0  # atno 804  bound_to 797 
  -17.9960   13.2965   -2.4817 H   0  0  0  0  0  0  0  0  0  0  0  0  # atno 822  bound_to 817 
  -20.6873   13.3572   -9.4488 H   0  0  0  0  0  0  0  0  0  0  0  0  # atno 1427 bound_to 1420
  -25.7990    4.7286   10.9837 H   0  0  0  0  0  0  0  0  0  0  0  0  # atno 2112 bound_to 2107
  -19.1736    4.7777    0.3272 H   0  0  0  0  0  0  0  0  0  0  0  0  # atno 2771 bound_to 2760
  -18.8798    4.2718    1.8781 H   0  0  0  0  0  0  0  0  0  0  0  0  # atno 2772 bound_to 2760
  -18.4079    3.3332    0.5966 H   0  0  0  0  0  0  0  0  0  0  0  0  # atno 2773 bound_to 2760
  -18.5605    2.0448   -0.6857 H   0  0  0  0  0  0  0  0  0  0  0  0  # atno 3307 bound_to 3300
  -20.4499   -5.4317    4.2115 H   0  0  0  0  0  0  0  0  0  0  0  0  # atno 3357 bound_to 3348
  -15.3074  -13.1640    8.0424 H   0  0  0  0  0  0  0  0  0  0  0  0  # atno 3766 bound_to 3757
  -16.6524  -13.9171   13.0213 H   0  0  0  0  0  0  0  0  0  0  0  0  # atno 3844 bound_to 3837
   -9.5234    0.4545   -3.2800 H   0  0  0  0  0  0  0  0  0  0  0  0  # atno 4043 bound_to 4034
  -21.6196   12.3328   10.0461 H   0  0  0  0  0  0  0  0  0  0  0  0  # atno 5355 bound_to 5346
  -15.0751  -13.8946   12.6216 LP  0  0  0  0  0  0  0  0  0  0  0  0  # atno 5685 bound_to 3837
  -16.2043  -14.2067   11.4840 LP  0  0  0  0  0  0  0  0  0  0  0  0  # atno 5686 bound_to 3837
  -15.5000  -14.6568    7.4242 LP  0  0  0  0  0  0  0  0  0  0  0  0  # atno 5693 bound_to 3757
  -16.3294  -14.2088    8.7576 LP  0  0  0  0  0  0  0  0  0  0  0  0  # atno 5694 bound_to 3757
   -8.4001    0.9301   -2.2035 LP  0  0  0  0  0  0  0  0  0  0  0  0  # atno 5743 bound_to 4034
   -9.7907    0.2461   -1.6888 LP  0  0  0  0  0  0  0  0  0  0  0  0  # atno 5744 bound_to 4034
  -17.2850    2.7219   -1.4363 LP  0  0  0  0  0  0  0  0  0  0  0  0  # atno 5749 bound_to 3300
  -17.5066    2.9464    0.1659 LP  0  0  0  0  0  0  0  0  0  0  0  0  # atno 5750 bound_to 3300
  -25.0200    5.2145   12.3270 LP  0  0  0  0  0  0  0  0  0  0  0  0  # atno 5763 bound_to 2107
  -26.5201    5.7724   12.0025 LP  0  0  0  0  0  0  0  0  0  0  0  0  # atno 5764 bound_to 2107
  -23.1599   12.2933    9.5233 LP  0  0  0  0  0  0  0  0  0  0  0  0  # atno 5765 bound_to 5346
  -22.7961   11.8062   11.0390 LP  0  0  0  0  0  0  0  0  0  0  0  0  # atno 5766 bound_to 5346
  -19.2946   14.4859    7.4219 LP  0  0  0  0  0  0  0  0  0  0  0  0  # atno 5773 bound_to 797 
  -18.9717   13.6270    6.0710 LP  0  0  0  0  0  0  0  0  0  0  0  0  # atno 5774 bound_to 797 
  -21.8252   -4.8109    3.6023 LP  0  0  0  0  0  0  0  0  0  0  0  0  # atno 5791 bound_to 3348
  -20.8057   -3.8627    4.4557 LP  0  0  0  0  0  0  0  0  0  0  0  0  # atno 5792 bound_to 3348
  -17.8994   11.9197   -1.6201 LP  0  0  0  0  0  0  0  0  0  0  0  0  # atno 5799 bound_to 817 
  -16.8732   12.1823   -2.8629 LP  0  0  0  0  0  0  0  0  0  0  0  0  # atno 5800 bound_to 817 
  -21.6755   13.9771   -8.3143 LP  0  0  0  0  0  0  0  0  0  0  0  0  # atno 5832 bound_to 1420
  -20.6468   14.9516   -9.1258 LP  0  0  0  0  0  0  0  0  0  0  0  0  # atno 5833 bound_to 1420

> <Gold.Score>
     Fitness  S(hb_ext) S(vdw_ext)  S(hb_int)    S(int)      intcor
     30.92       4.83      19.07       0.00      -0.14      -0.76

> <Gold.Goldscore.Fitness>
30.9204

> <Gold.Goldscore.Internal.Vdw>
-0.5260

> <Gold.Goldscore.Internal.Torsion>
-0.3691

> <Gold.Goldscore.External.Vdw>
19.0746

> <Gold.Goldscore.Internal.HBond>
0.0000

> <Gold.Goldscore.External.HBond>
4.8294

> <Gold.Goldscore.Internal.Correction>
-0.7585

> <Gold.Goldscore.Hbonds>
donor molecule, donor type, donor heavy atom, donor atom, acceptor molecule, acceptor atom, score
      L1  H     8    22       P1  3022  0.76
      L1  H    10    23       P1   794  0.14

> <Gold.Goldscore.Internal.Vdw.Weighted>
-0.5260

> <Gold.Goldscore.Internal.Torsion.Weighted>
-0.3691

> <Gold.Goldscore.External.Vdw.Weighted>
26.2276

> <Gold.Goldscore.Internal.HBond.Weighted>
0.0000

> <Gold.Goldscore.External.HBond.Weighted>
4.8294

> <Gold.Goldscore.Internal.Correction.Weighted>
-0.7585

> <Gold.Rescore>
     Score     S(PLP)   S(hbond)     S(cho)   S(metal)  DE(clash)   DE(tors)     intcor
     29.15     -26.58       1.00       0.00       0.00       0.00       0.21       ----

> <Gold.PLP.Fitness>
29.1531

> <Gold.PLP.PLP>
-26.5816

> <Gold.PLP.part.hbond>
-1.0000

> <Gold.PLP.part.metal>
0.0000

> <Gold.PLP.part.buried>
-4.6771

> <Gold.PLP.part.nonpolar>
-21.9006

> <Gold.PLP.part.repulsive>
0.4994

> <Gold.PLP.ligand.clash>
0.0000

> <Gold.PLP.ligand.torsion>
0.2142

> <Gold.PLP.Chemscore.Hbond>
1.0000

> <Gold.PLP.Chemscore.CHOScore>
0.0000

> <Gold.PLP.Chemscore.Metal>
0.0000

> <Gold.Chemscore.Hbonds>
donor molecule, donor type, donor heavy atom, donor atom, acceptor molecule, acceptor atom, score
      L1  H     8    22       P1  3022  1.00

> <Gold.PLP.Chemscore.Internal.Correction>
   9.000000E+99

