#       Name:                CT1002167954
#       Creating user name   hitesit
#       Creation time:       Sun Apr 16 02:21:57 2023


#       File generated by GOLD software.
#

@<TRIPOS>MOLECULE
CT1002167954|ligand_prepared|mol2|1|dock3
    29    30     1
SMALL
NO_CHARGES


@<TRIPOS>ATOM
      1 C1         -26.9543   9.2613   3.1068 C.3            1 RES1               0.0000
      2 C2         -28.2418   9.6957   3.8365 C.ar           1 RES1               0.0000
      3 C3         -25.7985   9.9382   3.8376 C.2            1 RES1               0.0000
      4 C4         -26.9224   7.7382   3.1681 C.2            1 RES1               0.0000
      5 C5         -26.9076   9.6806   1.6190 C.3            1 RES1               0.0000
      6 C6         -28.2591   9.8343   5.2211 C.ar           1 RES1               0.0000
      7 C7         -29.4171   9.9636   3.1396 C.ar           1 RES1               0.0000
      8 N8         -25.0102   9.1588   4.6320 N.am           1 RES1               0.0000
      9 O9         -25.6056  11.1446   3.7494 O.2            1 RES1               0.0000
     10 N10        -25.9227   7.1456   3.8941 N.am           1 RES1               0.0000
     11 O11        -27.7638   7.0463   2.6080 O.2            1 RES1               0.0000
     12 C12        -25.5524   9.4657   0.9636 C.3            1 RES1               0.0000
     13 C13        -29.4088  10.2291   5.8849 C.ar           1 RES1               0.0000
     14 C14        -30.5658  10.3581   3.8054 C.ar           1 RES1               0.0000
     15 C15        -24.9832   7.7875   4.6541 C.2            1 RES1               0.0000
     16 C16        -30.5627  10.4917   5.1776 C.ar           1 RES1               0.0000
     17 O17        -24.1495   7.1839   5.3233 O.2            1 RES1               0.0000
     18 H18        -27.6619   9.1068   1.0666 H              1 RES1               0.0000
     19 H19        -27.1721  10.7426   1.5429 H              1 RES1               0.0000
     20 H20        -27.3613   9.6296   5.7948 H              1 RES1               0.0000
     21 H21        -29.4431   9.8641   2.0598 H              1 RES1               0.0000
     22 H22        -24.3829   9.6400   5.2685 H              1 RES1               0.0000
     23 H23        -25.8743   6.1321   3.8652 H              1 RES1               0.0000
     24 H24        -25.5746   9.7760  -0.0789 H              1 RES1               0.0000
     25 H25        -24.7823  10.0418   1.4723 H              1 RES1               0.0000
     26 H26        -25.2692   8.4158   0.9988 H              1 RES1               0.0000
     27 H27        -29.4016  10.3314   6.9650 H              1 RES1               0.0000
     28 H28        -31.4718  10.5631   3.2447 H              1 RES1               0.0000
     29 H29        -31.4631  10.8014   5.6977 H              1 RES1               0.0000
@<TRIPOS>BOND
    1    1    2 1     
    2    1    3 1     
    3    1    4 1     
    4    1    5 1     
    5    2    6 ar    
    6    2    7 ar    
    7    3    8 1     
    8    3    9 2     
    9    4   10 1     
   10    4   11 2     
   11    5   12 1     
   12    5   18 1     
   13    5   19 1     
   14    6   13 ar    
   15    6   20 1     
   16    7   14 ar    
   17    7   21 1     
   18    8   15 1     
   19    8   22 1     
   20   10   15 1     
   21   10   23 1     
   22   12   24 1     
   23   12   25 1     
   24   12   26 1     
   25   13   16 ar    
   26   13   27 1     
   27   14   16 ar    
   28   14   28 1     
   29   15   17 2     
   30   16   29 1     
@<TRIPOS>SUBSTRUCTURE
      1 RES1           1
@<TRIPOS>SET
DONOR_HYDROGENS      STATIC     ATOMS    <user>   **** ""
2 22 23
ATOM$RED        STATIC     ATOMS    COLORGROUP SYSTEM
2 22 23
@<TRIPOS>COMMENT
> <Gold.Version>
2022.3.0

> <Gold.Id.Protein>
unknown|3ama_clean|pdb

> <Gold.Protein.RotatedTorsions>
[ 3844 3837 3836 3834 ] final   40.11 input   59.99 | X-H torsion
[ 3766 3757 3756 3754 ] final  170.57 input   60.00 | X-H torsion
[ 4043 4034 4033 4031 ] final   -9.37 input   60.00 | X-H torsion
[ 3307 3300 3298 3295 ] final   69.90 input   60.01 | X-H torsion
[ 2771 2760 2759 2758 ] final   43.08 input   59.98 | X-H torsion
[ 2112 2107 2106 2103 ] final  170.81 input   60.00 | X-H torsion
[ 5355 5346 5345 5343 ] final -178.05 input   60.01 | X-H torsion
[  804  797  795  792 ] final   29.81 input   59.99 | X-H torsion
[ 3357 3348 3347 3345 ] final  130.80 input   59.98 | X-H torsion
[  822  817  816  813 ] final   42.73 input   60.00 | X-H torsion
[ 1427 1420 1418 1415 ] final -130.48 input   60.03 | X-H torsion

> <Gold.Protein.ActiveResidues>
 LEU49   GLY50   THR51   GLY52   SER53   PHE54   LYS72   LEU74   VAL79   LYS81  
 LEU82   LYS83   GLN84   HIS87   THR88   GLY126  GLU127  MET128  PHE129  SER130 
 HIS131  LEU132  ARG133  ARG134  ILE135  GLY136  ARG137  ARG165  ASP166  LEU167 
 LYS168  PRO169  GLU170  ASN171  ASP184  GLY186  PHE187  TRP196  TPO197  LEU198 
 CYS199  GLY200  THR201  PRO202  GLU203  TYR204  LEU205  ILE209  ILE210  VAL226 
 LEU227  TYR229  GLU230  ALA233  GLY234  TYR235  PRO236  PRO237  PHE238  PHE239 
 ALA240  ASP241  GLN242  PRO243  ILE244  GLN245  ILE246  TYR247  LYS249  ARG256 
 PHE257  PRO258  SER259  HIS260  ASP328  TYR330 

> <Gold.Protein.RotatedAtoms>
  -19.7884   13.1411    6.2071 H   0  0  0  0  0  0  0  0  0  0  0  0  # atno 804  bound_to 797 
  -18.0592   13.2744   -2.4011 H   0  0  0  0  0  0  0  0  0  0  0  0  # atno 822  bound_to 817 
  -21.4229   14.7150   -8.4042 H   0  0  0  0  0  0  0  0  0  0  0  0  # atno 1427 bound_to 1420
  -26.5596    5.7334   11.9175 H   0  0  0  0  0  0  0  0  0  0  0  0  # atno 2112 bound_to 2107
  -18.4165    3.3484    0.5538 H   0  0  0  0  0  0  0  0  0  0  0  0  # atno 2771 bound_to 2760
  -19.1866    4.8040    0.3638 H   0  0  0  0  0  0  0  0  0  0  0  0  # atno 2772 bound_to 2760
  -18.8589    4.2318    1.8841 H   0  0  0  0  0  0  0  0  0  0  0  0  # atno 2773 bound_to 2760
  -18.1098    2.1706   -1.4349 H   0  0  0  0  0  0  0  0  0  0  0  0  # atno 3307 bound_to 3300
  -21.8304   -4.4150    3.7085 H   0  0  0  0  0  0  0  0  0  0  0  0  # atno 3357 bound_to 3348
  -15.7573  -14.8390    7.6464 H   0  0  0  0  0  0  0  0  0  0  0  0  # atno 3766 bound_to 3757
  -15.1502  -14.0377   11.9425 H   0  0  0  0  0  0  0  0  0  0  0  0  # atno 3844 bound_to 3837
  -10.0844    0.1424   -2.3952 H   0  0  0  0  0  0  0  0  0  0  0  0  # atno 4043 bound_to 4034
  -23.3812   11.9161   10.4974 H   0  0  0  0  0  0  0  0  0  0  0  0  # atno 5355 bound_to 5346
  -16.7721  -14.1611   11.8917 LP  0  0  0  0  0  0  0  0  0  0  0  0  # atno 5685 bound_to 3837
  -16.0201  -13.8188   13.3003 LP  0  0  0  0  0  0  0  0  0  0  0  0  # atno 5686 bound_to 3837
  -16.2316  -13.8444    8.8438 LP  0  0  0  0  0  0  0  0  0  0  0  0  # atno 5693 bound_to 3757
  -15.1448  -13.3342    7.7369 LP  0  0  0  0  0  0  0  0  0  0  0  0  # atno 5694 bound_to 3757
   -8.8280    0.7817   -3.2074 LP  0  0  0  0  0  0  0  0  0  0  0  0  # atno 5743 bound_to 4034
   -8.7977    0.7089   -1.5763 LP  0  0  0  0  0  0  0  0  0  0  0  0  # atno 5744 bound_to 4034
  -16.9986    3.0881   -0.6783 LP  0  0  0  0  0  0  0  0  0  0  0  0  # atno 5749 bound_to 3300
  -18.2467    2.4536    0.1620 LP  0  0  0  0  0  0  0  0  0  0  0  0  # atno 5750 bound_to 3300
  -25.7047    4.6953   11.0015 LP  0  0  0  0  0  0  0  0  0  0  0  0  # atno 5763 bound_to 2107
  -25.0694    5.2797   12.3876 LP  0  0  0  0  0  0  0  0  0  0  0  0  # atno 5764 bound_to 2107
  -21.7840   12.0456   10.7797 LP  0  0  0  0  0  0  0  0  0  0  0  0  # atno 5765 bound_to 5346
  -22.3969   12.4738    9.3279 LP  0  0  0  0  0  0  0  0  0  0  0  0  # atno 5766 bound_to 5346
  -20.0764   14.0145    7.5489 LP  0  0  0  0  0  0  0  0  0  0  0  0  # atno 5773 bound_to 797 
  -18.7299   14.2878    6.6665 LP  0  0  0  0  0  0  0  0  0  0  0  0  # atno 5774 bound_to 797 
  -20.4880   -4.0967    4.5714 LP  0  0  0  0  0  0  0  0  0  0  0  0  # atno 5791 bound_to 3348
  -20.7528   -5.6007    3.9931 LP  0  0  0  0  0  0  0  0  0  0  0  0  # atno 5792 bound_to 3348
  -17.8247   11.8509   -1.6489 LP  0  0  0  0  0  0  0  0  0  0  0  0  # atno 5799 bound_to 817 
  -16.8843   12.2733   -2.9153 LP  0  0  0  0  0  0  0  0  0  0  0  0  # atno 5800 bound_to 817 
  -20.3359   14.3779   -9.5673 LP  0  0  0  0  0  0  0  0  0  0  0  0  # atno 5832 bound_to 1420
  -21.2455   13.1835   -8.9249 LP  0  0  0  0  0  0  0  0  0  0  0  0  # atno 5833 bound_to 1420

> <Gold.Score>
     Fitness  S(hb_ext) S(vdw_ext)  S(hb_int)    S(int)      intcor
     29.34       1.29      20.61       0.00      -0.29      -0.76

> <Gold.Goldscore.Fitness>
29.3430

> <Gold.Goldscore.Internal.Vdw>
-0.5214

> <Gold.Goldscore.Internal.Torsion>
-0.5234

> <Gold.Goldscore.External.Vdw>
20.6127

> <Gold.Goldscore.Internal.HBond>
0.0000

> <Gold.Goldscore.External.HBond>
1.2868

> <Gold.Goldscore.Internal.Correction>
-0.7585

> <Gold.Goldscore.Hbonds>
donor molecule, donor type, donor heavy atom, donor atom, acceptor molecule, acceptor atom, score
      L1  H    10    23       P1  2791  0.64

> <Gold.Goldscore.Internal.Vdw.Weighted>
-0.5214

> <Gold.Goldscore.Internal.Torsion.Weighted>
-0.5234

> <Gold.Goldscore.External.Vdw.Weighted>
28.3424

> <Gold.Goldscore.Internal.HBond.Weighted>
0.0000

> <Gold.Goldscore.External.HBond.Weighted>
1.2868

> <Gold.Goldscore.Internal.Correction.Weighted>
-0.7585

> <Gold.Rescore>
     Score     S(PLP)   S(hbond)     S(cho)   S(metal)  DE(clash)   DE(tors)     intcor
     30.74     -29.69       1.00       0.00       0.00       0.00       0.98       ----

> <Gold.PLP.Fitness>
30.7370

> <Gold.PLP.PLP>
-29.6917

> <Gold.PLP.part.hbond>
-1.0000

> <Gold.PLP.part.metal>
0.0000

> <Gold.PLP.part.buried>
-5.0983

> <Gold.PLP.part.nonpolar>
-24.8103

> <Gold.PLP.part.repulsive>
0.4572

> <Gold.PLP.ligand.clash>
0.0000

> <Gold.PLP.ligand.torsion>
0.9774

> <Gold.PLP.Chemscore.Hbond>
1.0000

> <Gold.PLP.Chemscore.CHOScore>
0.0000

> <Gold.PLP.Chemscore.Metal>
0.0000

> <Gold.Chemscore.Hbonds>
donor molecule, donor type, donor heavy atom, donor atom, acceptor molecule, acceptor atom, score
      L1  H    10    23       P1  2791  1.00

> <Gold.PLP.Chemscore.Internal.Correction>
   9.000000E+99

