#       Name:                CT1002167954
#       Creating user name   hitesit
#       Creation time:       Sun Apr 16 02:22:04 2023


#       File generated by GOLD software.
#

@<TRIPOS>MOLECULE
CT1002167954|ligand_prepared|mol2|1|dock7
    29    30     1
SMALL
NO_CHARGES


@<TRIPOS>ATOM
      1 C1         -25.6930   9.1614   3.2541 C.3            1 RES1               0.0000
      2 C2         -26.4934   9.4321   1.9638 C.ar           1 RES1               0.0000
      3 C3         -25.1360  10.5091   3.7035 C.2            1 RES1               0.0000
      4 C4         -26.6722   8.5332   4.2396 C.2            1 RES1               0.0000
      5 C5         -24.5124   8.1810   3.0631 C.3            1 RES1               0.0000
      6 C6         -25.8776   9.3528   0.7183 C.ar           1 RES1               0.0000
      7 C7         -27.8462   9.7589   2.0028 C.ar           1 RES1               0.0000
      8 N8         -25.7146  11.1025   4.7865 N.am           1 RES1               0.0000
      9 O9         -24.2290  11.0612   3.0929 O.2            1 RES1               0.0000
     10 N10        -26.9879   9.2403   5.3702 N.am           1 RES1               0.0000
     11 O11        -27.1861   7.4395   4.0392 O.2            1 RES1               0.0000
     12 C12        -23.9038   7.6924   4.3681 C.3            1 RES1               0.0000
     13 C13        -26.5892   9.5887  -0.4463 C.ar           1 RES1               0.0000
     14 C14        -28.5559   9.9948   0.8369 C.ar           1 RES1               0.0000
     15 C15        -26.5771  10.5098   5.6733 C.2            1 RES1               0.0000
     16 C16        -27.9287   9.9094  -0.3879 C.ar           1 RES1               0.0000
     17 O17        -26.9475  11.1008   6.6835 O.2            1 RES1               0.0000
     18 H18        -24.8630   7.3136   2.4903 H              1 RES1               0.0000
     19 H19        -23.7320   8.6785   2.4741 H              1 RES1               0.0000
     20 H20        -24.8236   9.1041   0.6527 H              1 RES1               0.0000
     21 H21        -28.3601   9.8328   2.9552 H              1 RES1               0.0000
     22 H22        -25.4848  12.0772   4.9523 H              1 RES1               0.0000
     23 H23        -27.5841   8.7773   6.0487 H              1 RES1               0.0000
     24 H24        -23.0801   7.0077   4.1770 H              1 RES1               0.0000
     25 H25        -23.5220   8.5272   4.9521 H              1 RES1               0.0000
     26 H26        -24.6462   7.1704   4.9682 H              1 RES1               0.0000
     27 H27        -26.0906   9.5217  -1.4077 H              1 RES1               0.0000
     28 H28        -29.6098  10.2475   0.8877 H              1 RES1               0.0000
     29 H29        -28.4860  10.0938  -1.3004 H              1 RES1               0.0000
@<TRIPOS>BOND
    1    1    2 1     
    2    1    3 1     
    3    1    4 1     
    4    1    5 1     
    5    2    6 ar    
    6    2    7 ar    
    7    3    8 1     
    8    3    9 2     
    9    4   10 1     
   10    4   11 2     
   11    5   12 1     
   12    5   18 1     
   13    5   19 1     
   14    6   13 ar    
   15    6   20 1     
   16    7   14 ar    
   17    7   21 1     
   18    8   15 1     
   19    8   22 1     
   20   10   15 1     
   21   10   23 1     
   22   12   24 1     
   23   12   25 1     
   24   12   26 1     
   25   13   16 ar    
   26   13   27 1     
   27   14   16 ar    
   28   14   28 1     
   29   15   17 2     
   30   16   29 1     
@<TRIPOS>SUBSTRUCTURE
      1 RES1           1
@<TRIPOS>SET
DONOR_HYDROGENS      STATIC     ATOMS    <user>   **** ""
2 22 23
ATOM$RED        STATIC     ATOMS    COLORGROUP SYSTEM
2 22 23
@<TRIPOS>COMMENT
> <Gold.Version>
2022.3.0

> <Gold.Id.Protein>
unknown|3ama_clean|pdb

> <Gold.Protein.RotatedTorsions>
[ 3844 3837 3836 3834 ] final   96.26 input   59.99 | X-H torsion
[ 3766 3757 3756 3754 ] final  139.08 input   60.00 | X-H torsion
[ 4043 4034 4033 4031 ] final   -0.20 input   60.00 | X-H torsion
[ 3307 3300 3298 3295 ] final  147.54 input   60.01 | X-H torsion
[ 2771 2760 2759 2758 ] final  103.63 input   59.98 | X-H torsion
[ 2112 2107 2106 2103 ] final  117.84 input   60.00 | X-H torsion
[ 5355 5346 5345 5343 ] final -136.43 input   60.01 | X-H torsion
[  804  797  795  792 ] final  140.31 input   59.99 | X-H torsion
[ 3357 3348 3347 3345 ] final -175.70 input   59.98 | X-H torsion
[  822  817  816  813 ] final   49.25 input   60.00 | X-H torsion
[ 1427 1420 1418 1415 ] final   67.60 input   60.03 | X-H torsion

> <Gold.Protein.ActiveResidues>
 LEU49   GLY50   THR51   GLY52   SER53   PHE54   LYS72   LEU74   VAL79   LYS81  
 LEU82   LYS83   GLN84   HIS87   THR88   GLY126  GLU127  MET128  PHE129  SER130 
 HIS131  LEU132  ARG133  ARG134  ILE135  GLY136  ARG137  ARG165  ASP166  LEU167 
 LYS168  PRO169  GLU170  ASN171  ASP184  GLY186  PHE187  TRP196  TPO197  LEU198 
 CYS199  GLY200  THR201  PRO202  GLU203  TYR204  LEU205  ILE209  ILE210  VAL226 
 LEU227  TYR229  GLU230  ALA233  GLY234  TYR235  PRO236  PRO237  PHE238  PHE239 
 ALA240  ASP241  GLN242  PRO243  ILE244  GLN245  ILE246  TYR247  LYS249  ARG256 
 PHE257  PRO258  SER259  HIS260  ASP328  TYR330 

> <Gold.Protein.RotatedAtoms>
  -18.7210   14.1961    6.5408 H   0  0  0  0  0  0  0  0  0  0  0  0  # atno 804  bound_to 797 
  -17.9950   13.2967   -2.4830 H   0  0  0  0  0  0  0  0  0  0  0  0  # atno 822  bound_to 817 
  -20.4430   13.7158   -9.6128 H   0  0  0  0  0  0  0  0  0  0  0  0  # atno 1427 bound_to 1420
  -26.5404    5.2681   11.2245 H   0  0  0  0  0  0  0  0  0  0  0  0  # atno 2112 bound_to 2107
  -18.7867    4.0319   -0.0174 H   0  0  0  0  0  0  0  0  0  0  0  0  # atno 2771 bound_to 2760
  -19.2227    4.9042    1.3231 H   0  0  0  0  0  0  0  0  0  0  0  0  # atno 2772 bound_to 2760
  -18.4523    3.4473    1.4966 H   0  0  0  0  0  0  0  0  0  0  0  0  # atno 2773 bound_to 2760
  -18.5535    2.1277   -0.3486 H   0  0  0  0  0  0  0  0  0  0  0  0  # atno 3307 bound_to 3300
  -21.6260   -5.2249    3.5960 H   0  0  0  0  0  0  0  0  0  0  0  0  # atno 3357 bound_to 3348
  -16.0760  -14.8693    8.0407 H   0  0  0  0  0  0  0  0  0  0  0  0  # atno 3766 bound_to 3757
  -15.1593  -13.8600   12.8056 H   0  0  0  0  0  0  0  0  0  0  0  0  # atno 3844 bound_to 3837
  -10.0708    0.1409   -2.2462 H   0  0  0  0  0  0  0  0  0  0  0  0  # atno 4043 bound_to 4034
  -23.3978   12.1370    9.8704 H   0  0  0  0  0  0  0  0  0  0  0  0  # atno 5355 bound_to 5346
  -16.0007  -14.1989   11.4546 LP  0  0  0  0  0  0  0  0  0  0  0  0  # atno 5685 bound_to 3837
  -16.7823  -13.9600   12.8683 LP  0  0  0  0  0  0  0  0  0  0  0  0  # atno 5686 bound_to 3837
  -15.9706  -13.4127    8.7584 LP  0  0  0  0  0  0  0  0  0  0  0  0  # atno 5693 bound_to 3757
  -15.0846  -13.7353    7.4251 LP  0  0  0  0  0  0  0  0  0  0  0  0  # atno 5694 bound_to 3757
   -8.9522    0.7265   -3.2723 LP  0  0  0  0  0  0  0  0  0  0  0  0  # atno 5743 bound_to 4034
   -8.6871    0.7656   -1.6614 LP  0  0  0  0  0  0  0  0  0  0  0  0  # atno 5744 bound_to 4034
  -17.5425    2.5216   -1.5617 LP  0  0  0  0  0  0  0  0  0  0  0  0  # atno 5749 bound_to 3300
  -17.2561    3.0632   -0.0480 LP  0  0  0  0  0  0  0  0  0  0  0  0  # atno 5750 bound_to 3300
  -25.0455    4.6994   11.5235 LP  0  0  0  0  0  0  0  0  0  0  0  0  # atno 5763 bound_to 2107
  -25.7479    5.7442   12.5635 LP  0  0  0  0  0  0  0  0  0  0  0  0  # atno 5764 bound_to 2107
  -22.3503   11.8553   11.0830 LP  0  0  0  0  0  0  0  0  0  0  0  0  # atno 5765 bound_to 5346
  -21.8139   12.4415    9.6564 LP  0  0  0  0  0  0  0  0  0  0  0  0  # atno 5766 bound_to 5346
  -19.9140   13.1175    6.2963 LP  0  0  0  0  0  0  0  0  0  0  0  0  # atno 5773 bound_to 797 
  -19.9680   14.1217    7.5829 LP  0  0  0  0  0  0  0  0  0  0  0  0  # atno 5774 bound_to 797 
  -21.2093   -3.7917    4.2444 LP  0  0  0  0  0  0  0  0  0  0  0  0  # atno 5791 bound_to 3348
  -20.2372   -5.0902    4.4334 LP  0  0  0  0  0  0  0  0  0  0  0  0  # atno 5792 bound_to 3348
  -17.9006   11.9208   -1.6197 LP  0  0  0  0  0  0  0  0  0  0  0  0  # atno 5799 bound_to 817 
  -16.8731   12.1809   -2.8620 LP  0  0  0  0  0  0  0  0  0  0  0  0  # atno 5800 bound_to 817 
  -21.6030   13.5480   -8.4840 LP  0  0  0  0  0  0  0  0  0  0  0  0  # atno 5832 bound_to 1420
  -20.9653   15.0196   -8.7910 LP  0  0  0  0  0  0  0  0  0  0  0  0  # atno 5833 bound_to 1420

> <Gold.Score>
     Fitness  S(hb_ext) S(vdw_ext)  S(hb_int)    S(int)      intcor
     28.34       0.00      21.05       0.00      -0.61      -0.76

> <Gold.Goldscore.Fitness>
28.3365

> <Gold.Goldscore.Internal.Vdw>
-0.7835

> <Gold.Goldscore.Internal.Torsion>
-0.5817

> <Gold.Goldscore.External.Vdw>
21.0495

> <Gold.Goldscore.Internal.HBond>
0.0000

> <Gold.Goldscore.External.HBond>
0.0000

> <Gold.Goldscore.Internal.Correction>
-0.7585

> <Gold.Goldscore.Internal.Vdw.Weighted>
-0.7835

> <Gold.Goldscore.Internal.Torsion.Weighted>
-0.5817

> <Gold.Goldscore.External.Vdw.Weighted>
28.9431

> <Gold.Goldscore.Internal.HBond.Weighted>
0.0000

> <Gold.Goldscore.External.HBond.Weighted>
0.0000

> <Gold.Goldscore.Internal.Correction.Weighted>
-0.7585

> <Gold.Rescore>
     Score     S(PLP)   S(hbond)     S(cho)   S(metal)  DE(clash)   DE(tors)     intcor
     28.53     -30.02       0.00       0.00       0.00       1.40       0.04       ----

> <Gold.PLP.Fitness>
28.5273

> <Gold.PLP.PLP>
-30.0195

> <Gold.PLP.part.hbond>
0.0000

> <Gold.PLP.part.metal>
0.0000

> <Gold.PLP.part.buried>
-5.2441

> <Gold.PLP.part.nonpolar>
-26.1361

> <Gold.PLP.part.repulsive>
0.4160

> <Gold.PLP.ligand.clash>
1.4048

> <Gold.PLP.ligand.torsion>
0.0437

> <Gold.PLP.Chemscore.Hbond>
0.0000

> <Gold.PLP.Chemscore.CHOScore>
0.0000

> <Gold.PLP.Chemscore.Metal>
0.0000

> <Gold.PLP.Chemscore.Internal.Correction>
   9.000000E+99

