#       Name:                CT1002167954
#       Creating user name   hitesit
#       Creation time:       Sun Apr 16 02:22:06 2023


#       File generated by GOLD software.
#

@<TRIPOS>MOLECULE
CT1002167954|ligand_prepared|mol2|1|dock8
    29    30     1
SMALL
NO_CHARGES


@<TRIPOS>ATOM
      1 C1         -25.8636   9.0930   2.6551 C.3            1 RES1               0.0000
      2 C2         -26.8995   9.8081   3.5465 C.ar           1 RES1               0.0000
      3 C3         -26.6606   8.2540   1.6606 C.2            1 RES1               0.0000
      4 C4         -25.0248  10.1912   2.0109 C.2            1 RES1               0.0000
      5 C5         -24.9094   8.1574   3.4334 C.3            1 RES1               0.0000
      6 C6         -26.5639  10.2188   4.8331 C.ar           1 RES1               0.0000
      7 C7         -28.1914  10.0658   3.0958 C.ar           1 RES1               0.0000
      8 N8         -26.7215   8.6919   0.3705 N.am           1 RES1               0.0000
      9 O9         -27.2594   7.2447   2.0116 O.2            1 RES1               0.0000
     10 N10        -25.1063  10.3477   0.6520 N.am           1 RES1               0.0000
     11 O11        -24.3066  10.9331   2.6697 O.2            1 RES1               0.0000
     12 C12        -24.0473   7.2798   2.5397 C.3            1 RES1               0.0000
     13 C13        -27.4855  10.8664   5.6390 C.ar           1 RES1               0.0000
     14 C14        -29.1116  10.7134   3.9035 C.ar           1 RES1               0.0000
     15 C15        -25.9400   9.6680  -0.1937 C.2            1 RES1               0.0000
     16 C16        -28.7597  11.1146   5.1748 C.ar           1 RES1               0.0000
     17 O17        -25.9956   9.9030  -1.3973 O.2            1 RES1               0.0000
     18 H18        -24.2541   8.7686   4.0662 H              1 RES1               0.0000
     19 H19        -25.5055   7.5133   4.0916 H              1 RES1               0.0000
     20 H20        -25.5667  10.0300   5.2165 H              1 RES1               0.0000
     21 H21        -28.4908   9.7583   2.0996 H              1 RES1               0.0000
     22 H22        -27.4120   8.2531  -0.2304 H              1 RES1               0.0000
     23 H23        -24.4882  11.0346   0.2319 H              1 RES1               0.0000
     24 H24        -23.3969   6.6433   3.1360 H              1 RES1               0.0000
     25 H25        -24.6665   6.6402   1.9142 H              1 RES1               0.0000
     26 H26        -23.4225   7.8880   1.8889 H              1 RES1               0.0000
     27 H27        -27.2040  11.1789   6.6392 H              1 RES1               0.0000
     28 H28        -30.1135  10.9061   3.5342 H              1 RES1               0.0000
     29 H29        -29.4813  11.6223   5.8062 H              1 RES1               0.0000
@<TRIPOS>BOND
    1    1    2 1     
    2    1    3 1     
    3    1    4 1     
    4    1    5 1     
    5    2    6 ar    
    6    2    7 ar    
    7    3    8 1     
    8    3    9 2     
    9    4   10 1     
   10    4   11 2     
   11    5   12 1     
   12    5   18 1     
   13    5   19 1     
   14    6   13 ar    
   15    6   20 1     
   16    7   14 ar    
   17    7   21 1     
   18    8   15 1     
   19    8   22 1     
   20   10   15 1     
   21   10   23 1     
   22   12   24 1     
   23   12   25 1     
   24   12   26 1     
   25   13   16 ar    
   26   13   27 1     
   27   14   16 ar    
   28   14   28 1     
   29   15   17 2     
   30   16   29 1     
@<TRIPOS>SUBSTRUCTURE
      1 RES1           1
@<TRIPOS>SET
DONOR_HYDROGENS      STATIC     ATOMS    <user>   **** ""
2 22 23
ATOM$RED        STATIC     ATOMS    COLORGROUP SYSTEM
2 22 23
@<TRIPOS>COMMENT
> <Gold.Version>
2022.3.0

> <Gold.Id.Protein>
unknown|3ama_clean|pdb

> <Gold.Protein.RotatedTorsions>
[ 3844 3837 3836 3834 ] final  -46.92 input   59.99 | X-H torsion
[ 3766 3757 3756 3754 ] final  136.78 input   60.00 | X-H torsion
[ 4043 4034 4033 4031 ] final  162.66 input   60.00 | X-H torsion
[ 3307 3300 3298 3295 ] final  -66.99 input   60.01 | X-H torsion
[ 2771 2760 2759 2758 ] final -133.19 input   59.98 | X-H torsion
[ 2112 2107 2106 2103 ] final  -21.39 input   60.00 | X-H torsion
[ 5355 5346 5345 5343 ] final   45.46 input   60.01 | X-H torsion
[  804  797  795  792 ] final    5.33 input   59.99 | X-H torsion
[ 3357 3348 3347 3345 ] final   71.83 input   59.98 | X-H torsion
[  822  817  816  813 ] final   44.74 input   60.00 | X-H torsion
[ 1427 1420 1418 1415 ] final  -13.13 input   60.03 | X-H torsion

> <Gold.Protein.ActiveResidues>
 LEU49   GLY50   THR51   GLY52   SER53   PHE54   LYS72   LEU74   VAL79   LYS81  
 LEU82   LYS83   GLN84   HIS87   THR88   GLY126  GLU127  MET128  PHE129  SER130 
 HIS131  LEU132  ARG133  ARG134  ILE135  GLY136  ARG137  ARG165  ASP166  LEU167 
 LYS168  PRO169  GLU170  ASN171  ASP184  GLY186  PHE187  TRP196  TPO197  LEU198 
 CYS199  GLY200  THR201  PRO202  GLU203  TYR204  LEU205  ILE209  ILE210  VAL226 
 LEU227  TYR229  GLU230  ALA233  GLY234  TYR235  PRO236  PRO237  PHE238  PHE239 
 ALA240  ASP241  GLN242  PRO243  ILE244  GLN245  ILE246  TYR247  LYS249  ARG256 
 PHE257  PRO258  SER259  HIS260  ASP328  TYR330 

> <Gold.Protein.RotatedAtoms>
  -20.0852   13.1367    6.4704 H   0  0  0  0  0  0  0  0  0  0  0  0  # atno 804  bound_to 797 
  -18.0401   13.2824   -2.4265 H   0  0  0  0  0  0  0  0  0  0  0  0  # atno 822  bound_to 817 
  -21.2740   13.2002   -8.8958 H   0  0  0  0  0  0  0  0  0  0  0  0  # atno 1427 bound_to 1420
  -24.9419    4.8205   11.7940 H   0  0  0  0  0  0  0  0  0  0  0  0  # atno 2112 bound_to 2107
  -19.2115    4.8840    1.3700 H   0  0  0  0  0  0  0  0  0  0  0  0  # atno 2771 bound_to 2760
  -18.4384    3.4200    1.4525 H   0  0  0  0  0  0  0  0  0  0  0  0  # atno 2772 bound_to 2760
  -18.8114    4.0785   -0.0217 H   0  0  0  0  0  0  0  0  0  0  0  0  # atno 2773 bound_to 2760
  -17.0582    3.1075   -0.4094 H   0  0  0  0  0  0  0  0  0  0  0  0  # atno 3307 bound_to 3300
  -21.3099   -3.8157    4.1769 H   0  0  0  0  0  0  0  0  0  0  0  0  # atno 3357 bound_to 3348
  -16.0961  -14.8612    8.0714 H   0  0  0  0  0  0  0  0  0  0  0  0  # atno 3766 bound_to 3757
  -16.3665  -14.2022   11.5478 H   0  0  0  0  0  0  0  0  0  0  0  0  # atno 3844 bound_to 3837
   -8.3975    0.9316   -2.2614 H   0  0  0  0  0  0  0  0  0  0  0  0  # atno 4043 bound_to 4034
  -21.6589   12.1434   10.5619 H   0  0  0  0  0  0  0  0  0  0  0  0  # atno 5355 bound_to 5346
  -16.5249  -13.8870   13.1365 LP  0  0  0  0  0  0  0  0  0  0  0  0  # atno 5685 bound_to 3837
  -15.0424  -13.9273   12.4530 LP  0  0  0  0  0  0  0  0  0  0  0  0  # atno 5686 bound_to 3837
  -15.9474  -13.3868    8.7435 LP  0  0  0  0  0  0  0  0  0  0  0  0  # atno 5693 bound_to 3757
  -15.0876  -13.7694    7.4090 LP  0  0  0  0  0  0  0  0  0  0  0  0  # atno 5694 bound_to 3757
   -9.7499    0.2634   -1.6518 LP  0  0  0  0  0  0  0  0  0  0  0  0  # atno 5743 bound_to 4034
   -9.5752    0.4322   -3.2666 LP  0  0  0  0  0  0  0  0  0  0  0  0  # atno 5744 bound_to 4034
  -18.4138    2.3047   -0.0009 LP  0  0  0  0  0  0  0  0  0  0  0  0  # atno 5749 bound_to 3300
  -17.8899    2.2940   -1.5476 LP  0  0  0  0  0  0  0  0  0  0  0  0  # atno 5750 bound_to 3300
  -26.0348    5.8245   12.4613 LP  0  0  0  0  0  0  0  0  0  0  0  0  # atno 5763 bound_to 2107
  -26.3685    5.0698   11.0521 LP  0  0  0  0  0  0  0  0  0  0  0  0  # atno 5764 bound_to 2107
  -22.6651   12.4384    9.3179 LP  0  0  0  0  0  0  0  0  0  0  0  0  # atno 5765 bound_to 5346
  -23.2513   11.8520   10.7247 LP  0  0  0  0  0  0  0  0  0  0  0  0  # atno 5766 bound_to 5346
  -19.7740   14.2724    7.5929 LP  0  0  0  0  0  0  0  0  0  0  0  0  # atno 5773 bound_to 797 
  -18.7333   14.0344    6.3572 LP  0  0  0  0  0  0  0  0  0  0  0  0  # atno 5774 bound_to 797 
  -20.2121   -4.9781    4.4796 LP  0  0  0  0  0  0  0  0  0  0  0  0  # atno 5791 bound_to 3348
  -21.5528   -5.3228    3.6133 LP  0  0  0  0  0  0  0  0  0  0  0  0  # atno 5792 bound_to 3348
  -17.8484   11.8716   -1.6390 LP  0  0  0  0  0  0  0  0  0  0  0  0  # atno 5799 bound_to 817 
  -16.8798   12.2445   -2.8997 LP  0  0  0  0  0  0  0  0  0  0  0  0  # atno 5800 bound_to 817 
  -21.3995   14.7502   -8.4164 LP  0  0  0  0  0  0  0  0  0  0  0  0  # atno 5832 bound_to 1420
  -20.3319   14.3366   -9.5807 LP  0  0  0  0  0  0  0  0  0  0  0  0  # atno 5833 bound_to 1420

> <Gold.Score>
     Fitness  S(hb_ext) S(vdw_ext)  S(hb_int)    S(int)      intcor
     34.99       6.00      21.77       0.00      -0.95      -0.76

> <Gold.Goldscore.Fitness>
34.9887

> <Gold.Goldscore.Internal.Vdw>
-1.1847

> <Gold.Goldscore.Internal.Torsion>
-0.5213

> <Gold.Goldscore.External.Vdw>
21.7718

> <Gold.Goldscore.Internal.HBond>
0.0000

> <Gold.Goldscore.External.HBond>
6.0000

> <Gold.Goldscore.Internal.Correction>
-0.7585

> <Gold.Goldscore.Hbonds>
donor molecule, donor type, donor heavy atom, donor atom, acceptor molecule, acceptor atom, score
      P1  H  1126  1131       L1    17  1.00

> <Gold.Goldscore.Internal.Vdw.Weighted>
-1.1847

> <Gold.Goldscore.Internal.Torsion.Weighted>
-0.5213

> <Gold.Goldscore.External.Vdw.Weighted>
29.9362

> <Gold.Goldscore.Internal.HBond.Weighted>
0.0000

> <Gold.Goldscore.External.HBond.Weighted>
6.0000

> <Gold.Goldscore.Internal.Correction.Weighted>
-0.7585

> <Gold.Rescore>
     Score     S(PLP)   S(hbond)     S(cho)   S(metal)  DE(clash)   DE(tors)     intcor
     28.51     -28.13       0.67       0.00       0.00       0.01       0.80       ----

> <Gold.PLP.Fitness>
28.5091

> <Gold.PLP.PLP>
-28.1254

> <Gold.PLP.part.hbond>
-0.8049

> <Gold.PLP.part.metal>
0.0000

> <Gold.PLP.part.buried>
-4.5400

> <Gold.PLP.part.nonpolar>
-24.7278

> <Gold.PLP.part.repulsive>
0.4508

> <Gold.PLP.ligand.clash>
0.0099

> <Gold.PLP.ligand.torsion>
0.8026

> <Gold.PLP.Chemscore.Hbond>
0.6663

> <Gold.PLP.Chemscore.CHOScore>
0.0000

> <Gold.PLP.Chemscore.Metal>
0.0000

> <Gold.Chemscore.Hbonds>
donor molecule, donor type, donor heavy atom, donor atom, acceptor molecule, acceptor atom, score
      P1  H  1126  1131       L1    17  1.00

> <Gold.PLP.Chemscore.Internal.Correction>
   9.000000E+99

