@<TRIPOS>MOLECULE
L:ALA1
   218   223    14     0     1
SMALL
NO_CHARGES
****
Generated from the CSD

@<TRIPOS>ATOM
     1 N      163.2010 106.9530 132.4630   N.3       1 ALA1   0.0000
     2 CA     162.7470 106.6180 133.8070   C.3       1 ALA1   0.0000
     3 C      162.9090 107.8060 134.7490   C.2       1 ALA1   0.0000
     4 O      162.1000 108.7340 134.7380   O.2       1 ALA1   0.0000
     5 CB     163.5050 105.4110 134.3380   C.3       1 ALA1   0.0000
     6 N      163.9590 107.7710 135.5620   N.am      2 GLY2   0.0000
     7 CA     164.2570 108.8290 136.5140   C.3       2 GLY2   0.0000
     8 C      163.6570 108.6380 137.8920   C.2       2 GLY2   0.0000
     9 O      164.3520 108.8010 138.8980   O.2       2 GLY2   0.0000
    10 N      162.3700 108.2920 137.9530   N.am      3 CYS3   0.0000
    11 CA     161.6510 108.0810 139.2110   C.3       3 CYS3   0.0000
    12 C      161.7240 109.3260 140.0970   C.2       3 CYS3   0.0000
    13 O      162.2760 109.3140 141.1990   O.2       3 CYS3   0.0000
    14 CB     162.1790 106.8420 139.9450   C.3       3 CYS3   0.0000
    15 SG     161.1410 106.2850 141.3190   S.3       3 CYS3   0.0000
    16 N      161.1560 110.4150 139.5850   N.am      4 LYS4   0.0000
    17 CA     161.1620 111.6750 140.3120   C.3       4 LYS4   0.0000
    18 C      160.2490 111.6020 141.5320   C.2       4 LYS4   0.0000
    19 O      159.2210 110.9190 141.5300   O.2       4 LYS4   0.0000
    20 CB     160.7230 112.8200 139.3990   C.3       4 LYS4   0.0000
    21 CG     161.7110 113.1410 138.2900   C.3       4 LYS4   0.0000
    22 CD     163.0260 113.6550 138.8520   C.3       4 LYS4   0.0000
    23 CE     163.9980 114.0160 137.7390   C.3       4 LYS4   0.0000
    24 NZ     165.3200 114.4460 138.2720   N.3       4 LYS4   0.0000
    25 N      160.6420 112.3190 142.5850   N.am      5 ASN5   0.0000
    26 CA     159.8530 112.3380 143.8130   C.3       5 ASN5   0.0000
    27 C      158.5620 113.1260 143.6150   C.2       5 ASN5   0.0000
    28 O      157.4600 112.5930 143.7910   O.2       5 ASN5   0.0000
    29 CB     160.6900 112.9210 144.9540   C.3       5 ASN5   0.0000
    30 CG     159.9070 113.0610 146.2430   C.2       5 ASN5   0.0000
    31 OD1    159.8280 114.1440 146.8200   O.2       5 ASN5   0.0000
    32 ND2    159.3270 111.9600 146.7040   N.am      5 ASN5   0.0000
    33 N      158.6800 114.4000 143.2460   N.am      6 PHE6   0.0000
    34 CA     157.5400 115.2300 142.8750   C.3       6 PHE6   0.0000
    35 C      157.8900 115.9610 141.5890   C.2       6 PHE6   0.0000
    36 O      158.8890 116.6860 141.5410   O.2       6 PHE6   0.0000
    37 CB     157.1880 116.2320 143.9790   C.3       6 PHE6   0.0000
    38 CG     156.5590 115.6090 145.1930   C.ar      6 PHE6   0.0000
    39 CD1    155.3130 115.0120 145.1150   C.ar      6 PHE6   0.0000
    40 CD2    157.2060 115.6390 146.4160   C.ar      6 PHE6   0.0000
    41 CE1    154.7310 114.4420 146.2320   C.ar      6 PHE6   0.0000
    42 CE2    156.6300 115.0710 147.5360   C.ar      6 PHE6   0.0000
    43 CZ     155.3900 114.4730 147.4440   C.ar      6 PHE6   0.0000
    44 N      157.0750 115.7770 140.5500   N.am      7 PHE7   0.0000
    45 CA     157.3370 116.3990 139.2590   C.3       7 PHE7   0.0000
    46 C      156.2980 117.4530 138.8990   C.2       7 PHE7   0.0000
    47 O      156.6500 118.6210 138.7100   O.2       7 PHE7   0.0000
    48 CB     157.4080 115.3240 138.1660   C.3       7 PHE7   0.0000
    49 CG     157.5810 115.8780 136.7810   C.ar      7 PHE7   0.0000
    50 CD1    158.7790 116.4580 136.3980   C.ar      7 PHE7   0.0000
    51 CD2    156.5470 115.8180 135.8620   C.ar      7 PHE7   0.0000
    52 CE1    158.9420 116.9690 135.1240   C.ar      7 PHE7   0.0000
    53 CE2    156.7040 116.3270 134.5860   C.ar      7 PHE7   0.0000
    54 CZ     157.9040 116.9030 134.2180   C.ar      7 PHE7   0.0000
    55 N      155.0210 117.0810 138.7970   N.am      8 TRP8   0.0000
    56 CA     153.9730 118.0620 138.5370   C.3       8 TRP8   0.0000
    57 C      152.9470 118.1290 139.6600   C.2       8 TRP8   0.0000
    58 O      152.7950 119.1840 140.2860   O.2       8 TRP8   0.0000
    59 CB     153.2880 117.7450 137.2010   C.3       8 TRP8   0.0000
    60 CG     152.1680 118.6790 136.8590   C.2       8 TRP8   0.0000
    61 CD1    150.8320 118.4410 136.9980   C.2       8 TRP8   0.0000
    62 CD2    152.2860 120.0000 136.3170   C.ar      8 TRP8   0.0000
    63 NE1    150.1110 119.5330 136.5780   N.pl3     8 TRP8   0.0000
    64 CE2    150.9800 120.5030 136.1550   C.ar      8 TRP8   0.0000
    65 CE3    153.3700 120.8050 135.9540   C.ar      8 TRP8   0.0000
    66 CZ2    150.7290 121.7750 135.6460   C.ar      8 TRP8   0.0000
    67 CZ3    153.1170 122.0680 135.4480   C.ar      8 TRP8   0.0000
    68 CH2    151.8080 122.5400 135.2990   C.ar      8 TRP8   0.0000
    69 N      152.2390 117.0320 139.9410   N.am      9 LYS9   0.0000
    70 CA     151.2500 117.0160 141.0090   C.3       9 LYS9   0.0000
    71 C      151.1630 115.6910 141.7540   C.2       9 LYS9   0.0000
    72 O      150.3110 115.5640 142.6400   O.2       9 LYS9   0.0000
    73 CB     149.8580 117.3670 140.4540   C.3       9 LYS9   0.0000
    74 CG     149.5940 118.8580 140.3130   C.3       9 LYS9   0.0000
    75 CD     148.1550 119.1270 139.9060   C.3       9 LYS9   0.0000
    76 CE     147.8650 120.6180 139.8490   C.3       9 LYS9   0.0000
    77 NZ     146.4420 120.8940 139.5110   N.3       9 LYS9   0.0000
    78 N      152.0000 114.7090 141.4360   N.am     10 THR10   0.0000
    79 CA     151.8190 113.3510 141.9230   C.3      10 THR10   0.0000
    80 C      152.9940 112.9200 142.7910   C.2      10 THR10   0.0000
    81 O      154.0950 113.4700 142.7090   O.2      10 THR10   0.0000
    82 CB     151.6490 112.3650 140.7600   C.3      10 THR10   0.0000
    83 OG1    152.6110 112.6590 139.7390   O.3      10 THR10   0.0000
    84 CG2    150.2500 112.4730 140.1750   C.3      10 THR10   0.0000
    85 N      152.7370 111.9150 143.6240   N.am     11 PHE11   0.0000
    86 CA     153.7320 111.3280 144.5180   C.3      11 PHE11   0.0000
    87 C      154.0730 109.9410 143.9810   C.2      11 PHE11   0.0000
    88 O      153.3030 108.9920 144.1540   O.2      11 PHE11   0.0000
    89 CB     153.2020 111.2610 145.9490   C.3      11 PHE11   0.0000
    90 CG     154.2370 110.8650 146.9650   C.ar     11 PHE11   0.0000
    91 CD1    155.5870 111.0390 146.7090   C.ar     11 PHE11   0.0000
    92 CD2    153.8560 110.3170 148.1790   C.ar     11 PHE11   0.0000
    93 CE1    156.5370 110.6740 147.6440   C.ar     11 PHE11   0.0000
    94 CE2    154.8020 109.9500 149.1180   C.ar     11 PHE11   0.0000
    95 CZ     156.1440 110.1290 148.8490   C.ar     11 PHE11   0.0000
    96 N      155.2280 109.8290 143.3300   N.am     12 THR12   0.0000
    97 CA     155.6850 108.5780 142.7330   C.3      12 THR12   0.0000
    98 C      156.8820 108.0710 143.5280   C.2      12 THR12   0.0000
    99 O      157.9500 108.6940 143.5200   O.2      12 THR12   0.0000
   100 CB     156.0480 108.7730 141.2620   C.3      12 THR12   0.0000
   101 OG1    155.0500 109.5790 140.6250   O.3      12 THR12   0.0000
   102 CG2    156.1360 107.4300 140.5540   C.3      12 THR12   0.0000
   103 N      156.7030 106.9460 144.2110   N.am     13 SER13   0.0000
   104 CA     157.7670 106.3380 144.9930   C.3      13 SER13   0.0000
   105 C      158.6600 105.4770 144.1040   C.2      13 SER13   0.0000
   106 O      158.2840 105.0760 143.0000   O.2      13 SER13   0.0000
   107 CB     157.1880 105.4940 146.1300   C.3      13 SER13   0.0000
   108 OG     156.7620 106.3120 147.2060   O.3      13 SER13   0.0000
   109 N      159.8590 105.1970 144.6050   N.am     14 CYS14   0.0000
   110 CA     160.8220 104.3810 143.8740   C.3      14 CYS14   0.0000
   111 C      160.9130 102.9790 144.4670   C.2      14 CYS14   0.0000
   112 O      160.8280 101.9840 143.7470   O.2      14 CYS14   0.0000
   113 CB     162.2000 105.0450 143.8780   C.3      14 CYS14   0.0000
   114 SG     162.2810 106.6070 142.9690   S.3      14 CYS14   0.0000
   115 H1     156.0614 106.9395 146.8875   H        13 SER13   0.0000
   116 H2     160.5910 113.7126 140.0087   H         4 LYS4   0.0000
   117 H3     159.7724 112.5485 138.9424   H         4 LYS4   0.0000
   118 H4     161.2808 113.9027 137.6415   H         4 LYS4   0.0000
   119 H5     161.9013 112.2377 137.7123   H         4 LYS4   0.0000
   120 H6     149.0988 119.6083 136.5809   H         8 TRP8   0.0000
   121 H7     158.3737 107.1317 145.4265   H        13 SER13   0.0000
   122 H8     150.3996 117.5197 137.3854   H         8 TRP8   0.0000
   123 H9     153.9515 122.7060 135.1606   H         8 TRP8   0.0000
   124 H10    154.4422 119.0410 138.4508   H         8 TRP8   0.0000
   125 H11    163.8784 109.7657 136.1076   H         2 GLY2   0.0000
   126 H12    165.3388 108.8912 136.6222   H         2 GLY2   0.0000
   127 H13    160.4855 104.2956 142.8418   H        14 CYS14   0.0000
   128 H14    155.1745 106.9226 140.6173   H        12 THR12   0.0000
   129 H15    156.3952 107.5873 139.5081   H        12 THR12   0.0000
   130 H16    156.9013 106.8184 141.0296   H        12 THR12   0.0000
   131 H17    152.8880 116.7334 137.2518   H         8 TRP8   0.0000
   132 H18    154.0350 117.8007 136.4105   H         8 TRP8   0.0000
   133 H19    162.1775 111.8734 140.6515   H         4 LYS4   0.0000
   134 H20    159.8889 117.4232 134.8359   H         7 PHE7   0.0000
   135 H21    157.9527 104.8059 146.4873   H        13 SER13   0.0000
   136 H22    156.3368 104.9278 145.7549   H        13 SER13   0.0000
   137 H23    155.5990 115.3646 136.1476   H         7 PHE7   0.0000
   138 H24    154.3918 120.4457 136.0670   H         8 TRP8   0.0000
   139 H25    159.6022 116.5121 137.1089   H         7 PHE7   0.0000
   140 H26    161.0548 102.8565 145.5398   H        14 CYS14   0.0000
   141 H27    156.8913 109.8405 149.5867   H        11 PHE11   0.0000
   142 H28    147.4887 118.6638 140.6323   H         9 LYS9   0.0000
   143 H29    147.9778 118.6936 138.9228   H         9 LYS9   0.0000
   144 H30    154.7751 116.1018 138.9017   H         8 TRP8   0.0000
   145 H31    149.7120 122.1462 135.5288   H         8 TRP8   0.0000
   146 H32    155.8829 116.2738 133.8726   H         7 PHE7   0.0000
   147 H33    152.3936 110.5320 145.9813   H        11 PHE11   0.0000
   148 H34    152.8161 112.2432 146.2179   H        11 PHE11   0.0000
   149 H35    155.9036 111.4685 145.7597   H        11 PHE11   0.0000
   150 H36    154.7849 114.9909 144.1629   H         6 PHE6   0.0000
   151 H37    158.1815 116.1164 146.4966   H         6 PHE6   0.0000
   152 H38    164.1813 107.2143 132.4924   H         1 ALA1   0.0000
   153 H39    163.0834 106.1482 131.8558   H         1 ALA1   0.0000
   154 H40    153.7531 113.9689 146.1554   H         6 PHE6   0.0000
   155 H41    154.8833 107.8442 142.8013   H        12 THR12   0.0000
   156 H42    156.4851 114.7466 138.1920   H         7 PHE7   0.0000
   157 H43    158.2516 114.6700 138.3820   H         7 PHE7   0.0000
   158 H44    151.7961 111.5345 143.6392   H        11 PHE11   0.0000
   159 H45    163.5741 114.8293 137.1518   H         4 LYS4   0.0000
   160 H46    164.1422 113.1449 137.1016   H         4 LYS4   0.0000
   161 H47    151.5250 117.7853 141.7290   H         9 LYS9   0.0000
   162 H48    151.8091 111.3508 141.1228   H        10 THR10   0.0000
   163 H49    150.9158 113.3227 142.5307   H        10 THR10   0.0000
   164 H50    157.0112 109.2767 141.1949   H        12 THR12   0.0000
   165 H51    155.8179 110.6506 143.2447   H        12 THR12   0.0000
   166 H52    145.8404 120.4799 140.2158   H         9 LYS9   0.0000
   167 H53    146.2894 121.8971 139.4828   H         9 LYS9   0.0000
   168 H54    161.0479 113.9052 144.6555   H         5 ASN5   0.0000
   169 H55    161.5402 112.2644 145.1327   H         5 ASN5   0.0000
   170 H56    148.5014 121.0717 139.0907   H         9 LYS9   0.0000
   171 H57    148.0878 121.0574 140.8202   H         9 LYS9   0.0000
   172 H58    155.0029 110.4636 141.0738   H        12 THR12   0.0000
   173 H59    154.4889 109.5204 150.0684   H        11 PHE11   0.0000
   174 H60    162.9124 104.3534 143.4305   H        14 CYS14   0.0000
   175 H61    162.4819 105.2379 144.9120   H        14 CYS14   0.0000
   176 H62    152.3942 116.1893 139.3969   H         9 LYS9   0.0000
   177 H63    160.6037 107.9044 138.9704   H         3 CYS3   0.0000
   178 H64    156.2540 115.1907 140.6610   H         7 PHE7   0.0000
   179 H65    149.1089 116.9508 141.1259   H         9 LYS9   0.0000
   180 H66    149.7582 116.9093 139.4709   H         9 LYS9   0.0000
   181 H67    156.4916 116.9621 143.5692   H         6 PHE6   0.0000
   182 H68    158.1025 116.7362 144.2879   H         6 PHE6   0.0000
   183 H69    157.5952 110.8165 147.4298   H        11 PHE11   0.0000
   184 H70    160.7119 110.3658 138.6736   H         4 LYS4   0.0000
   185 H71    151.6450 123.5391 134.8976   H         8 TRP8   0.0000
   186 H72    163.4719 112.8816 139.4757   H         4 LYS4   0.0000
   187 H73    162.8322 114.5408 139.4551   H         4 LYS4   0.0000
   188 H74    156.6796 114.5877 142.6933   H         6 PHE6   0.0000
   189 H75    159.6070 114.8127 143.2219   H         6 PHE6   0.0000
   190 H76    165.7268 113.6920 138.8163   H         4 LYS4   0.0000
   191 H77    165.9371 114.6771 137.5000   H         4 LYS4   0.0000
   192 H78    158.3082 116.8887 139.3126   H         7 PHE7   0.0000
   193 H79    163.1675 107.0750 140.3381   H         3 CYS3   0.0000
   194 H80    162.2569 106.0280 139.2258   H         3 CYS3   0.0000
   195 H81    153.5270 112.5745 140.1131   H        10 THR10   0.0000
   196 H82    158.7887 111.9919 147.5639   H         5 ASN5   0.0000
   197 H83    159.4217 111.0860 146.1967   H         5 ASN5   0.0000
   198 H84    161.8630 108.1686 137.0824   H         3 CYS3   0.0000
   199 H85    159.5924 111.3120 144.0688   H         5 ASN5   0.0000
   200 H86    150.2597 119.2660 139.5539   H         9 LYS9   0.0000
   201 H87    149.7899 119.3449 141.2672   H         9 LYS9   0.0000
   202 H88    161.5003 112.8582 142.5322   H         5 ASN5   0.0000
   203 H89    155.7935 106.4961 144.1861   H        13 SER13   0.0000
   204 H90    150.0869 113.4855 139.8087   H        10 THR10   0.0000
   205 H91    150.1453 111.7678 139.3518   H        10 THR10   0.0000
   206 H92    149.5156 112.2430 140.9455   H        10 THR10   0.0000
   207 H93    161.6895 106.3629 133.7571   H         1 ALA1   0.0000
   208 H94    152.7910 114.9135 140.8338   H        10 THR10   0.0000
   209 H95    158.0306 117.3046 133.2137   H         7 PHE7   0.0000
   210 H96    154.9325 114.0266 148.3257   H         6 PHE6   0.0000
   211 H97    157.1541 115.0953 148.4903   H         6 PHE6   0.0000
   212 H98    152.7986 110.1736 148.3963   H        11 PHE11   0.0000
   213 H99    154.6297 111.9443 144.5017   H        11 PHE11   0.0000
   214 H100   164.5700 105.6363 134.3696   H         1 ALA1   0.0000
   215 H101   163.1541 105.1746 135.3414   H         1 ALA1   0.0000
   216 H102   163.3337 104.5579 133.6832   H         1 ALA1   0.0000
   217 H103   164.5809 106.9701 135.5167   H         2 GLY2   0.0000
   218 H104   160.1106 105.5600 145.5189   H        14 CYS14   0.0000
@<TRIPOS>BOND
     1     1     2    1
     2     2     3    1
     3     3     4    2
     4     2     5    1
     5     3     6   am
     6     6     7    1
     7     7     8    1
     8     8     9    2
     9     8    10   am
    10    10    11    1
    11    11    12    1
    12    12    13    2
    13    11    14    1
    14    14    15    1
    15    12    16   am
    16    16    17    1
    17    17    18    1
    18    18    19    2
    19    17    20    1
    20    20    21    1
    21    21    22    1
    22    22    23    1
    23    23    24    1
    24    18    25   am
    25    25    26    1
    26    26    27    1
    27    27    28    2
    28    26    29    1
    29    29    30    1
    30    30    31    2
    31    30    32   am
    32    27    33   am
    33    33    34    1
    34    34    35    1
    35    35    36    2
    36    34    37    1
    37    37    38    1
    38    38    39   ar
    39    38    40   ar
    40    39    41   ar
    41    40    42   ar
    42    41    43   ar
    43    42    43   ar
    44    35    44   am
    45    44    45    1
    46    45    46    1
    47    46    47    2
    48    45    48    1
    49    48    49    1
    50    49    50   ar
    51    49    51   ar
    52    50    52   ar
    53    51    53   ar
    54    52    54   ar
    55    53    54   ar
    56    46    55   am
    57    55    56    1
    58    56    57    1
    59    57    58    2
    60    56    59    1
    61    59    60    1
    62    60    61    2
    63    60    62    1
    64    61    63    1
    65    62    64   ar
    66    63    64    1
    67    62    65   ar
    68    64    66   ar
    69    65    67   ar
    70    66    68   ar
    71    67    68   ar
    72    57    69   am
    73    69    70    1
    74    70    71    1
    75    71    72    2
    76    70    73    1
    77    73    74    1
    78    74    75    1
    79    75    76    1
    80    76    77    1
    81    71    78   am
    82    78    79    1
    83    79    80    1
    84    80    81    2
    85    79    82    1
    86    82    83    1
    87    82    84    1
    88    80    85   am
    89    85    86    1
    90    86    87    1
    91    87    88    2
    92    86    89    1
    93    89    90    1
    94    90    91   ar
    95    90    92   ar
    96    91    93   ar
    97    92    94   ar
    98    93    95   ar
    99    94    95   ar
   100    87    96   am
   101    96    97    1
   102    97    98    1
   103    98    99    2
   104    97   100    1
   105   100   101    1
   106   100   102    1
   107    98   103   am
   108   103   104    1
   109   104   105    1
   110   105   106    2
   111   104   107    1
   112   107   108    1
   113   105   109   am
   114   109   110    1
   115   110   111    1
   116   111   112    2
   117   110   113    1
   118    15   114    1
   119   113   114    1
   120   108   115    1
   121    20   116    1
   122    20   117    1
   123    21   118    1
   124    21   119    1
   125    63   120    1
   126   104   121    1
   127    61   122    1
   128    67   123    1
   129    56   124    1
   130     7   125    1
   131     7   126    1
   132   110   127    1
   133   102   128    1
   134   102   129    1
   135   102   130    1
   136    59   131    1
   137    59   132    1
   138    17   133    1
   139    52   134    1
   140   107   135    1
   141   107   136    1
   142    51   137    1
   143    65   138    1
   144    50   139    1
   145   111   140    1
   146    95   141    1
   147    75   142    1
   148    75   143    1
   149    55   144    1
   150    66   145    1
   151    53   146    1
   152    89   147    1
   153    89   148    1
   154    91   149    1
   155    39   150    1
   156    40   151    1
   157     1   152    1
   158     1   153    1
   159    41   154    1
   160    97   155    1
   161    48   156    1
   162    48   157    1
   163    85   158    1
   164    23   159    1
   165    23   160    1
   166    70   161    1
   167    82   162    1
   168    79   163    1
   169   100   164    1
   170    96   165    1
   171    77   166    1
   172    77   167    1
   173    29   168    1
   174    29   169    1
   175    76   170    1
   176    76   171    1
   177   101   172    1
   178    94   173    1
   179   113   174    1
   180   113   175    1
   181    69   176    1
   182    11   177    1
   183    44   178    1
   184    73   179    1
   185    73   180    1
   186    37   181    1
   187    37   182    1
   188    93   183    1
   189    16   184    1
   190    68   185    1
   191    22   186    1
   192    22   187    1
   193    34   188    1
   194    33   189    1
   195    24   190    1
   196    24   191    1
   197    45   192    1
   198    14   193    1
   199    14   194    1
   200    83   195    1
   201    32   196    1
   202    32   197    1
   203    10   198    1
   204    26   199    1
   205    74   200    1
   206    74   201    1
   207    25   202    1
   208   103   203    1
   209    84   204    1
   210    84   205    1
   211    84   206    1
   212     2   207    1
   213    78   208    1
   214    54   209    1
   215    43   210    1
   216    42   211    1
   217    92   212    1
   218    86   213    1
   219     5   214    1
   220     5   215    1
   221     5   216    1
   222     6   217    1
   223   109   218    1
@<TRIPOS>SUBSTRUCTURE
     1 ALA1        1 GROUP             0 L     ALA     0  
     2 GLY2        6 GROUP             0 L     GLY     0  
     3 CYS3       10 GROUP             0 L     CYS     0  
     4 LYS4       16 GROUP             0 L     LYS     0  
     5 ASN5       25 GROUP             0 L     ASN     0  
     6 PHE6       33 GROUP             0 L     PHE     0  
     7 PHE7       44 GROUP             0 L     PHE     0  
     8 TRP8       55 GROUP             0 L     TRP     0  
     9 LYS9       69 GROUP             0 L     LYS     0  
    10 THR10      78 GROUP             0 L     THR     0  
    11 PHE11      85 GROUP             0 L     PHE     0  
    12 THR12      96 GROUP             0 L     THR     0  
    13 SER13     103 GROUP             0 L     SER     0  
    14 CYS14     109 GROUP             0 L     CYS     0  
@<TRIPOS>SET
CCDC_LIGAND STATIC ATOMS
218 1 2 3 4 5 6 7 8 9 \
10 11 12 13 14 15 16 17 18 19 \
20 21 22 23 24 25 26 27 28 29 \
30 31 32 33 34 35 36 37 38 39 \
40 41 42 43 44 45 46 47 48 49 \
50 51 52 53 54 55 56 57 58 59 \
60 61 62 63 64 65 66 67 68 69 \
70 71 72 73 74 75 76 77 78 79 \
80 81 82 83 84 85 86 87 88 89 \
90 91 92 93 94 95 96 97 98 99 \
100 101 102 103 104 105 106 107 108 109 \
110 111 112 113 114 115 116 117 118 119 \
120 121 122 123 124 125 126 127 128 129 \
130 131 132 133 134 135 136 137 138 139 \
140 141 142 143 144 145 146 147 148 149 \
150 151 152 153 154 155 156 157 158 159 \
160 161 162 163 164 165 166 167 168 169 \
170 171 172 173 174 175 176 177 178 179 \
180 181 182 183 184 185 186 187 188 189 \
190 191 192 193 194 195 196 197 198 199 \
200 201 202 203 204 205 206 207 208 209 \
210 211 212 213 214 215 216 217 218 
