#       Name:                CT1002167954
#       Creating user name   hitesit
#       Creation time:       Sun Apr 16 02:22:17 2023


#       File generated by GOLD software.
#

@<TRIPOS>MOLECULE
CT1002167954|ligand_prepared|mol2|1|dock7
    29    30     1
SMALL
NO_CHARGES


@<TRIPOS>ATOM
      1 C1         122.9877 243.1688 355.7628 C.3            1 RES1               0.0000
      2 C2         121.9261 243.7361 356.7272 C.ar           1 RES1               0.0000
      3 C3         124.2810 243.9228 356.0577 C.2            1 RES1               0.0000
      4 C4         123.0624 241.6720 356.0433 C.2            1 RES1               0.0000
      5 C5         122.6387 243.3579 354.2682 C.3            1 RES1               0.0000
      6 C6         121.9933 243.4692 358.0914 C.ar           1 RES1               0.0000
      7 C7         120.8772 244.5286 356.2688 C.ar           1 RES1               0.0000
      8 N8         125.2627 243.2551 356.7288 N.am           1 RES1               0.0000
      9 O9         124.4221 245.0976 355.7412 O.2            1 RES1               0.0000
     10 N10        124.2272 241.1741 356.5660 N.am           1 RES1               0.0000
     11 O11        122.1174 240.9220 355.8320 O.2            1 RES1               0.0000
     12 C12        123.6173 242.6832 353.3199 C.3            1 RES1               0.0000
     13 C13        121.0479 243.9786 358.9661 C.ar           1 RES1               0.0000
     14 C14        119.9326 245.0368 357.1451 C.ar           1 RES1               0.0000
     15 C15        125.3198 241.9026 356.9501 C.2            1 RES1               0.0000
     16 C16        120.0173 244.7630 358.4937 C.ar           1 RES1               0.0000
     17 O17        126.3096 241.3888 357.4634 O.2            1 RES1               0.0000
     18 H18        121.6351 242.9541 354.0861 H              1 RES1               0.0000
     19 H19        122.6137 244.4316 354.0445 H              1 RES1               0.0000
     20 H20        122.7958 242.8519 358.4812 H              1 RES1               0.0000
     21 H21        120.7900 244.7562 355.2118 H              1 RES1               0.0000
     22 H22        126.0248 243.8131 357.1005 H              1 RES1               0.0000
     23 H23        124.2850 240.1670 356.6791 H              1 RES1               0.0000
     24 H24        123.3261 242.8469 352.2845 H              1 RES1               0.0000
     25 H25        124.6216 243.0789 353.4562 H              1 RES1               0.0000
     26 H26        123.6487 241.6102 353.4975 H              1 RES1               0.0000
     27 H27        121.1182 243.7591 360.0263 H              1 RES1               0.0000
     28 H28        119.1228 245.6532 356.7688 H              1 RES1               0.0000
     29 H29        119.2770 245.1623 359.1791 H              1 RES1               0.0000
@<TRIPOS>BOND
    1    1    2 1     
    2    1    3 1     
    3    1    4 1     
    4    1    5 1     
    5    2    6 ar    
    6    2    7 ar    
    7    3    8 1     
    8    3    9 2     
    9    4   10 1     
   10    4   11 2     
   11    5   12 1     
   12    5   18 1     
   13    5   19 1     
   14    6   13 ar    
   15    6   20 1     
   16    7   14 ar    
   17    7   21 1     
   18    8   15 1     
   19    8   22 1     
   20   10   15 1     
   21   10   23 1     
   22   12   24 1     
   23   12   25 1     
   24   12   26 1     
   25   13   16 ar    
   26   13   27 1     
   27   14   16 ar    
   28   14   28 1     
   29   15   17 2     
   30   16   29 1     
@<TRIPOS>SUBSTRUCTURE
      1 RES1           1
@<TRIPOS>SET
DONOR_HYDROGENS      STATIC     ATOMS    <user>   **** ""
2 22 23
ATOM$RED        STATIC     ATOMS    COLORGROUP SYSTEM
2 22 23
@<TRIPOS>COMMENT
> <Gold.Version>
2022.3.0

> <Gold.Id.Protein>
unknown|6ng7_clean|pdb

> <Gold.Protein.RotatedTorsions>
[ 9082 9061 9060 9058 ] final   97.01 input   59.98 | X-H torsion
[ 8982 8971 8970 8967 ] final  133.96 input   60.02 | X-H torsion
[ 8337 8307 8306 8304 ] final  -50.16 input   60.01 | X-H torsion
[ 5554 5539 5538 5535 ] final -150.02 input   60.02 | X-H torsion
[ 9167 9146 9144 9141 ] final  -74.20 input   60.02 | X-H torsion
[ 12891 12861 12860 12858 ] final -137.55 input   59.98 | X-H torsion
[ 13348 13339 13338 13334 ] final  150.96 input   60.02 | X-H torsion
[ 9491 9475 9474 9471 ] final  163.97 input   59.96 | X-H torsion

> <Gold.Protein.ActiveResidues>
 MET341  TRP414  ARG419  CYS420  VAL421  GLY422  LEU429  LEU460  SER462  ALA463 
 SER482  GLN483  LEU484  ILE485  ARG486  ASP500  ALA502  ASN503  TRP566  TYR567 
 GLY568  LEU569  PRO570  ALA571  VAL572  SER573  ASN574  MET575  PRO588  PHE589 
 SER590  GLY591  TRP592  TYR593  MET594  GLY595  THR596  GLU597  ILE598  VAL600 
 ARG601  ASP602  TYR603  ASP605  SER607  ARG608  ILE653  VAL654  TRP683  PRO687 
 SER691  PHE696  HIS697  TYR711  HEM801  H4B802 

> <Gold.Protein.RotatedAtoms>
  128.1329  248.5865  360.3337 H   0  0  0  0  0  0  0  0  0  0  0  0  # atno 5554 bound_to 5539
  124.9709  240.7521  360.0121 H   0  0  0  0  0  0  0  0  0  0  0  0  # atno 8337 bound_to 8307
  115.4579  242.7113  367.0905 H   0  0  0  0  0  0  0  0  0  0  0  0  # atno 8982 bound_to 8971
  123.3573  239.5744  358.8367 H   0  0  0  0  0  0  0  0  0  0  0  0  # atno 9082 bound_to 9061
  117.0888  237.7517  350.1311 H   0  0  0  0  0  0  0  0  0  0  0  0  # atno 9167 bound_to 9146
  132.4400  245.4996  349.5156 H   0  0  0  0  0  0  0  0  0  0  0  0  # atno 9491 bound_to 9475
  119.7722  252.6742  353.9192 H   0  0  0  0  0  0  0  0  0  0  0  0  # atno 12891 bound_to 12861
  124.8650  248.8869  344.1235 H   0  0  0  0  0  0  0  0  0  0  0  0  # atno 13348 bound_to 13339
  122.8413  239.8689  360.3513 LP  0  0  0  0  0  0  0  0  0  0  0  0  # atno 13479 bound_to 9061
  122.5133  240.9289  359.1532 LP  0  0  0  0  0  0  0  0  0  0  0  0  # atno 13480 bound_to 9061
  114.4833  243.8890  366.5333 LP  0  0  0  0  0  0  0  0  0  0  0  0  # atno 13497 bound_to 8971
  115.6877  244.2471  367.5762 LP  0  0  0  0  0  0  0  0  0  0  0  0  # atno 13498 bound_to 8971
  126.5516  240.6074  360.3716 LP  0  0  0  0  0  0  0  0  0  0  0  0  # atno 13516 bound_to 8307
  125.6126  241.6473  361.2104 LP  0  0  0  0  0  0  0  0  0  0  0  0  # atno 13517 bound_to 8307
  126.6438  247.9768  360.5769 LP  0  0  0  0  0  0  0  0  0  0  0  0  # atno 13524 bound_to 5539
  127.6442  248.2256  361.8434 LP  0  0  0  0  0  0  0  0  0  0  0  0  # atno 13525 bound_to 5539
  117.6367  238.7015  348.9287 LP  0  0  0  0  0  0  0  0  0  0  0  0  # atno 13540 bound_to 9146
  118.3209  238.7777  350.4094 LP  0  0  0  0  0  0  0  0  0  0  0  0  # atno 13541 bound_to 9146
  121.0433  252.8912  352.9268 LP  0  0  0  0  0  0  0  0  0  0  0  0  # atno 13552 bound_to 12861
  119.6022  253.5734  352.5738 LP  0  0  0  0  0  0  0  0  0  0  0  0  # atno 13553 bound_to 12861
  123.7403  247.8774  344.7274 LP  0  0  0  0  0  0  0  0  0  0  0  0  # atno 13554 bound_to 13339
  124.9503  248.4202  345.6802 LP  0  0  0  0  0  0  0  0  0  0  0  0  # atno 13555 bound_to 13339

> <Gold.Score>
     Fitness  S(hb_ext) S(vdw_ext)  S(hb_int)    S(int)      intcor
     36.60       2.06      25.14       0.00      -0.02      -0.76

> <Gold.Goldscore.Fitness>
36.5960

> <Gold.Goldscore.Internal.Vdw>
-0.3636

> <Gold.Goldscore.Internal.Torsion>
-0.4143

> <Gold.Goldscore.External.Vdw>
25.1352

> <Gold.Goldscore.Internal.HBond>
0.0000

> <Gold.Goldscore.External.HBond>
2.0563

> <Gold.Goldscore.Internal.Correction>
-0.7568

> <Gold.Goldscore.Hbonds>
donor molecule, donor type, donor heavy atom, donor atom, acceptor molecule, acceptor atom, score
      P1  H  9502  9538       L1    17  0.18
      L1  H    10    23       P1  9337  0.16

> <Gold.Goldscore.Internal.Vdw.Weighted>
-0.3636

> <Gold.Goldscore.Internal.Torsion.Weighted>
-0.4143

> <Gold.Goldscore.External.Vdw.Weighted>
34.5608

> <Gold.Goldscore.Internal.HBond.Weighted>
0.0000

> <Gold.Goldscore.External.HBond.Weighted>
2.0563

> <Gold.Goldscore.Internal.Correction.Weighted>
-0.7568

> <Gold.Rescore>
     Score     S(PLP)   S(hbond)     S(cho)   S(metal)  DE(clash)   DE(tors)     intcor
     29.16     -27.21       0.99       0.00       0.00       0.00       0.51       ----

> <Gold.PLP.Fitness>
29.1617

> <Gold.PLP.PLP>
-27.2109

> <Gold.PLP.part.hbond>
-7.6791

> <Gold.PLP.part.metal>
0.0000

> <Gold.PLP.part.buried>
7.3468

> <Gold.PLP.part.nonpolar>
-29.4305

> <Gold.PLP.part.repulsive>
2.1692

> <Gold.PLP.ligand.clash>
0.0000

> <Gold.PLP.ligand.torsion>
0.5051

> <Gold.PLP.Chemscore.Hbond>
0.9870

> <Gold.PLP.Chemscore.CHOScore>
0.0000

> <Gold.PLP.Chemscore.Metal>
0.0000

> <Gold.Chemscore.Hbonds>
donor molecule, donor type, donor heavy atom, donor atom, acceptor molecule, acceptor atom, score
      L1  H    10    23       P1  9337  0.66
      P1  H  9502  9538       L1    17  1.00

> <Gold.PLP.Chemscore.Internal.Correction>
   9.000000E+99

