#       Name:                CT1002167954
#       Creating user name   hitesit
#       Creation time:       Sun Apr 16 02:22:17 2023


#       File generated by GOLD software.
#

@<TRIPOS>MOLECULE
CT1002167954|ligand_prepared|mol2|1|dock6
    29    30     1
SMALL
NO_CHARGES


@<TRIPOS>ATOM
      1 C1         120.2030 244.7757 357.4041 C.3            1 RES1               0.0000
      2 C2         118.7603 244.2684 357.6040 C.ar           1 RES1               0.0000
      3 C3         120.9518 244.4573 358.6948 C.2            1 RES1               0.0000
      4 C4         120.7436 244.0513 356.1762 C.2            1 RES1               0.0000
      5 C5         120.2998 246.2968 357.1425 C.3            1 RES1               0.0000
      6 C6         118.5085 242.9179 357.8264 C.ar           1 RES1               0.0000
      7 C7         117.6731 245.1376 357.5713 C.ar           1 RES1               0.0000
      8 N8         121.8464 243.4282 358.6688 N.am           1 RES1               0.0000
      9 O9         120.7319 245.0740 359.7300 O.2            1 RES1               0.0000
     10 N10        121.7805 243.1731 356.3536 N.am           1 RES1               0.0000
     11 O11        120.2702 244.2207 355.0593 O.2            1 RES1               0.0000
     12 C12        121.7174 246.7871 356.8930 C.3            1 RES1               0.0000
     13 C13        117.2169 242.4535 358.0125 C.ar           1 RES1               0.0000
     14 C14        116.3823 244.6711 357.7574 C.ar           1 RES1               0.0000
     15 C15        122.3360 242.8057 357.5488 C.2            1 RES1               0.0000
     16 C16        116.1531 243.3297 357.9785 C.ar           1 RES1               0.0000
     17 O17        123.2295 241.9679 357.6327 O.2            1 RES1               0.0000
     18 H18        119.6817 246.5453 356.2710 H              1 RES1               0.0000
     19 H19        119.8888 246.8308 358.0082 H              1 RES1               0.0000
     20 H20        119.3328 242.2131 357.8540 H              1 RES1               0.0000
     21 H21        117.8295 246.1969 357.3978 H              1 RES1               0.0000
     22 H22        122.1824 243.0902 359.5650 H              1 RES1               0.0000
     23 H23        122.1747 242.7546 355.5171 H              1 RES1               0.0000
     24 H24        121.7287 247.8604 356.7153 H              1 RES1               0.0000
     25 H25        122.3541 246.5788 357.7504 H              1 RES1               0.0000
     26 H26        122.1482 246.2950 356.0234 H              1 RES1               0.0000
     27 H27        117.0418 241.3967 358.1848 H              1 RES1               0.0000
     28 H28        115.5480 245.3642 357.7293 H              1 RES1               0.0000
     29 H29        115.1415 242.9658 358.1247 H              1 RES1               0.0000
@<TRIPOS>BOND
    1    1    2 1     
    2    1    3 1     
    3    1    4 1     
    4    1    5 1     
    5    2    6 ar    
    6    2    7 ar    
    7    3    8 1     
    8    3    9 2     
    9    4   10 1     
   10    4   11 2     
   11    5   12 1     
   12    5   18 1     
   13    5   19 1     
   14    6   13 ar    
   15    6   20 1     
   16    7   14 ar    
   17    7   21 1     
   18    8   15 1     
   19    8   22 1     
   20   10   15 1     
   21   10   23 1     
   22   12   24 1     
   23   12   25 1     
   24   12   26 1     
   25   13   16 ar    
   26   13   27 1     
   27   14   16 ar    
   28   14   28 1     
   29   15   17 2     
   30   16   29 1     
@<TRIPOS>SUBSTRUCTURE
      1 RES1           1
@<TRIPOS>SET
DONOR_HYDROGENS      STATIC     ATOMS    <user>   **** ""
2 22 23
ATOM$RED        STATIC     ATOMS    COLORGROUP SYSTEM
2 22 23
@<TRIPOS>COMMENT
> <Gold.Version>
2022.3.0

> <Gold.Id.Protein>
unknown|6ng7_clean|pdb

> <Gold.Protein.RotatedTorsions>
[ 9082 9061 9060 9058 ] final  174.77 input   59.98 | X-H torsion
[ 8982 8971 8970 8967 ] final   -5.09 input   60.02 | X-H torsion
[ 8337 8307 8306 8304 ] final   42.83 input   60.01 | X-H torsion
[ 5554 5539 5538 5535 ] final    3.28 input   60.02 | X-H torsion
[ 9167 9146 9144 9141 ] final -175.81 input   60.02 | X-H torsion
[ 12891 12861 12860 12858 ] final  159.05 input   59.98 | X-H torsion
[ 13348 13339 13338 13334 ] final   19.74 input   60.02 | X-H torsion
[ 9491 9475 9474 9471 ] final  -99.57 input   59.96 | X-H torsion

> <Gold.Protein.ActiveResidues>
 MET341  TRP414  ARG419  CYS420  VAL421  GLY422  LEU429  LEU460  SER462  ALA463 
 SER482  GLN483  LEU484  ILE485  ARG486  ASP500  ALA502  ASN503  TRP566  TYR567 
 GLY568  LEU569  PRO570  ALA571  VAL572  SER573  ASN574  MET575  PRO588  PHE589 
 SER590  GLY591  TRP592  TYR593  MET594  GLY595  THR596  GLU597  ILE598  VAL600 
 ARG601  ASP602  TYR603  ASP605  SER607  ARG608  ILE653  VAL654  TRP683  PRO687 
 SER691  PHE696  HIS697  TYR711  HEM801  H4B802 

> <Gold.Protein.RotatedAtoms>
  127.1446  248.0416  361.7638 H   0  0  0  0  0  0  0  0  0  0  0  0  # atno 5554 bound_to 5539
  125.2105  241.6091  361.0389 H   0  0  0  0  0  0  0  0  0  0  0  0  # atno 8337 bound_to 8307
  114.5725  244.1610  366.6550 H   0  0  0  0  0  0  0  0  0  0  0  0  # atno 8982 bound_to 8971
  122.8163  240.5994  358.6452 H   0  0  0  0  0  0  0  0  0  0  0  0  # atno 9082 bound_to 9061
  117.4172  238.4966  348.9296 H   0  0  0  0  0  0  0  0  0  0  0  0  # atno 9167 bound_to 9146
  132.0769  244.6155  348.4976 H   0  0  0  0  0  0  0  0  0  0  0  0  # atno 9491 bound_to 9475
  120.7133  252.5302  353.6712 H   0  0  0  0  0  0  0  0  0  0  0  0  # atno 12891 bound_to 12861
  123.7682  247.8405  344.9053 H   0  0  0  0  0  0  0  0  0  0  0  0  # atno 13348 bound_to 13339
  123.3713  239.3033  359.4569 LP  0  0  0  0  0  0  0  0  0  0  0  0  # atno 13479 bound_to 9061
  122.5284  240.4617  360.2405 LP  0  0  0  0  0  0  0  0  0  0  0  0  # atno 13480 bound_to 9061
  115.8453  243.9890  367.6538 LP  0  0  0  0  0  0  0  0  0  0  0  0  # atno 13497 bound_to 8971
  115.2177  242.6866  366.8945 LP  0  0  0  0  0  0  0  0  0  0  0  0  # atno 13498 bound_to 8971
  125.2937  240.5071  359.8441 LP  0  0  0  0  0  0  0  0  0  0  0  0  # atno 13516 bound_to 8307
  126.6293  240.8851  360.7043 LP  0  0  0  0  0  0  0  0  0  0  0  0  # atno 13517 bound_to 8307
  128.3465  248.6129  360.8272 LP  0  0  0  0  0  0  0  0  0  0  0  0  # atno 13524 bound_to 5539
  126.9370  248.1384  360.1527 LP  0  0  0  0  0  0  0  0  0  0  0  0  # atno 13525 bound_to 5539
  118.3891  238.9324  350.1599 LP  0  0  0  0  0  0  0  0  0  0  0  0  # atno 13540 bound_to 9146
  117.2379  237.7969  350.3878 LP  0  0  0  0  0  0  0  0  0  0  0  0  # atno 13541 bound_to 9146
  120.4572  253.4426  352.3485 LP  0  0  0  0  0  0  0  0  0  0  0  0  # atno 13552 bound_to 12861
  119.2403  253.1670  353.4020 LP  0  0  0  0  0  0  0  0  0  0  0  0  # atno 13553 bound_to 12861
  125.0689  248.5333  345.5957 LP  0  0  0  0  0  0  0  0  0  0  0  0  # atno 13554 bound_to 13339
  124.7261  248.8179  344.0247 LP  0  0  0  0  0  0  0  0  0  0  0  0  # atno 13555 bound_to 13339

> <Gold.Score>
     Fitness  S(hb_ext) S(vdw_ext)  S(hb_int)    S(int)      intcor
     42.74       0.90      30.48       0.00      -0.07      -0.76

> <Gold.Goldscore.Fitness>
42.7377

> <Gold.Goldscore.Internal.Vdw>
-0.4567

> <Gold.Goldscore.Internal.Torsion>
-0.3741

> <Gold.Goldscore.External.Vdw>
30.4769

> <Gold.Goldscore.Internal.HBond>
0.0000

> <Gold.Goldscore.External.HBond>
0.9043

> <Gold.Goldscore.Internal.Correction>
-0.7585

> <Gold.Goldscore.Hbonds>
donor molecule, donor type, donor heavy atom, donor atom, acceptor molecule, acceptor atom, score
      P1  H  9061  9082       L1    17  0.45

> <Gold.Goldscore.Internal.Vdw.Weighted>
-0.4567

> <Gold.Goldscore.Internal.Torsion.Weighted>
-0.3741

> <Gold.Goldscore.External.Vdw.Weighted>
41.9058

> <Gold.Goldscore.Internal.HBond.Weighted>
0.0000

> <Gold.Goldscore.External.HBond.Weighted>
0.9043

> <Gold.Goldscore.Internal.Correction.Weighted>
-0.7585

> <Gold.Rescore>
     Score     S(PLP)   S(hbond)     S(cho)   S(metal)  DE(clash)   DE(tors)     intcor
     33.57     -30.95       1.00       0.00       0.00       0.00       0.19       ----

> <Gold.PLP.Fitness>
33.5692

> <Gold.PLP.PLP>
-30.9510

> <Gold.PLP.part.hbond>
-2.8878

> <Gold.PLP.part.metal>
0.0000

> <Gold.PLP.part.buried>
3.1367

> <Gold.PLP.part.nonpolar>
-33.5615

> <Gold.PLP.part.repulsive>
2.5907

> <Gold.PLP.ligand.clash>
0.0000

> <Gold.PLP.ligand.torsion>
0.1917

> <Gold.PLP.Chemscore.Hbond>
1.0005

> <Gold.PLP.Chemscore.CHOScore>
0.0000

> <Gold.PLP.Chemscore.Metal>
0.0000

> <Gold.Chemscore.Hbonds>
donor molecule, donor type, donor heavy atom, donor atom, acceptor molecule, acceptor atom, score
      P1  H  9061  9082       L1    17  1.00

> <Gold.PLP.Chemscore.Internal.Correction>
   9.000000E+99

