#       Name:                CT1002167954
#       Creating user name   hitesit
#       Creation time:       Sun Apr 16 20:31:08 2023


#       File generated by GOLD software.
#

@<TRIPOS>MOLECULE
CT1002167954|ligand_prepared|mol2|1|dock9
    29    30     1
SMALL
NO_CHARGES


@<TRIPOS>ATOM
      1 C1         144.9952 123.0462 188.8033 C.3            1 RES1               0.0000
      2 C2         145.6312 123.2895 190.1872 C.ar           1 RES1               0.0000
      3 C3         143.6735 122.3280 189.0595 C.2            1 RES1               0.0000
      4 C4         144.8425 124.4185 188.1567 C.2            1 RES1               0.0000
      5 C5         145.8569 122.1693 187.8652 C.3            1 RES1               0.0000
      6 C6         146.8868 122.7719 190.4909 C.ar           1 RES1               0.0000
      7 C7         144.9768 124.0305 191.1676 C.ar           1 RES1               0.0000
      8 N8         142.5241 123.0450 188.9025 N.am           1 RES1               0.0000
      9 O9         143.6418 121.1616 189.4320 O.2            1 RES1               0.0000
     10 N10        143.5737 124.8815 187.9251 N.am           1 RES1               0.0000
     11 O11        145.8091 125.1101 187.8610 O.2            1 RES1               0.0000
     12 C12        145.2217 121.9170 186.5069 C.3            1 RES1               0.0000
     13 C13        147.4685 122.9897 191.7289 C.ar           1 RES1               0.0000
     14 C14        145.5602 124.2469 192.4051 C.ar           1 RES1               0.0000
     15 C15        142.4074 124.2702 188.2967 C.2            1 RES1               0.0000
     16 C16        146.8059 123.7276 192.6866 C.ar           1 RES1               0.0000
     17 O17        141.3054 124.7750 188.1022 O.2            1 RES1               0.0000
     18 H18        146.8269 122.6595 187.7159 H              1 RES1               0.0000
     19 H19        146.0406 121.2044 188.3537 H              1 RES1               0.0000
     20 H20        147.4223 122.1867 189.7508 H              1 RES1               0.0000
     21 H21        143.9955 124.4478 190.9688 H              1 RES1               0.0000
     22 H22        141.6726 122.6321 189.2696 H              1 RES1               0.0000
     23 H23        143.4911 125.7635 187.4295 H              1 RES1               0.0000
     24 H24        145.8673 121.2970 185.8884 H              1 RES1               0.0000
     25 H25        144.2665 121.4078 186.6163 H              1 RES1               0.0000
     26 H26        145.0481 122.8542 185.9822 H              1 RES1               0.0000
     27 H27        148.4485 122.5777 191.9459 H              1 RES1               0.0000
     28 H28        145.0348 124.8277 193.1560 H              1 RES1               0.0000
     29 H29        147.2620 123.8983 193.6561 H              1 RES1               0.0000
@<TRIPOS>BOND
    1    1    2 1     
    2    1    3 1     
    3    1    4 1     
    4    1    5 1     
    5    2    6 ar    
    6    2    7 ar    
    7    3    8 1     
    8    3    9 2     
    9    4   10 1     
   10    4   11 2     
   11    5   12 1     
   12    5   18 1     
   13    5   19 1     
   14    6   13 ar    
   15    6   20 1     
   16    7   14 ar    
   17    7   21 1     
   18    8   15 1     
   19    8   22 1     
   20   10   15 1     
   21   10   23 1     
   22   12   24 1     
   23   12   25 1     
   24   12   26 1     
   25   13   16 ar    
   26   13   27 1     
   27   14   16 ar    
   28   14   28 1     
   29   15   17 2     
   30   16   29 1     
@<TRIPOS>SUBSTRUCTURE
      1 RES1           1
@<TRIPOS>SET
DONOR_HYDROGENS      STATIC     ATOMS    <user>   **** ""
2 22 23
ATOM$RED        STATIC     ATOMS    COLORGROUP SYSTEM
2 22 23
@<TRIPOS>COMMENT
> <Gold.Version>
2022.3.0

> <Gold.Id.Protein>
unknown|7rmh_cavity_clean|pdb

> <Gold.Protein.RotatedTorsions>
[ 10359 10350 10349 10347 ] final   90.76 input   59.97 | X-H torsion
[ 10338 10331 10329 10326 ] final  -32.11 input   60.01 | X-H torsion
[ 10390 10381 10380 10378 ] final    8.58 input   59.98 | X-H torsion

> <Gold.Protein.ActiveResidues>
 ARG228  GLU230  ARG232  MET188  LEU190  ALA208  THR114  TYR115  ALA116  TYR117 
 ARG118  GLY119  GLN120 

> <Gold.Protein.RotatedAtoms>
  146.8275  127.3938  185.9863 H   0  0  0  0  0  0  0  0  0  0  0  0  # atno 10338 bound_to 10331
  136.4875  127.9054  178.2898 H   0  0  0  0  0  0  0  0  0  0  0  0  # atno 10359 bound_to 10350
  136.0141  136.1042  181.2718 H   0  0  0  0  0  0  0  0  0  0  0  0  # atno 10390 bound_to 10381
  136.7309  129.4808  178.6188 LP  0  0  0  0  0  0  0  0  0  0  0  0  # atno 14710 bound_to 10350
  135.6550  128.6180  179.4933 LP  0  0  0  0  0  0  0  0  0  0  0  0  # atno 14711 bound_to 10350
  147.6146  128.8176  186.0074 LP  0  0  0  0  0  0  0  0  0  0  0  0  # atno 14728 bound_to 10331
  147.7366  127.8330  184.7104 LP  0  0  0  0  0  0  0  0  0  0  0  0  # atno 14729 bound_to 10331
  135.6521  135.6417  179.7543 LP  0  0  0  0  0  0  0  0  0  0  0  0  # atno 14732 bound_to 10381
  137.1921  135.5580  180.2911 LP  0  0  0  0  0  0  0  0  0  0  0  0  # atno 14733 bound_to 10381

> <Gold.Score>
     Fitness  S(hb_ext) S(vdw_ext)  S(hb_int)    S(int)      intcor
     15.09       1.31      10.60       0.00      -0.80      -0.76

> <Gold.Goldscore.Fitness>
15.0927

> <Gold.Goldscore.Internal.Vdw>
-1.1937

> <Gold.Goldscore.Internal.Torsion>
-0.3683

> <Gold.Goldscore.External.Vdw>
10.6030

> <Gold.Goldscore.Internal.HBond>
0.0000

> <Gold.Goldscore.External.HBond>
1.3107

> <Gold.Goldscore.Internal.Correction>
-0.7650

> <Gold.Goldscore.Hbonds>
donor molecule, donor type, donor heavy atom, donor atom, acceptor molecule, acceptor atom, score
      P1  H 10331 10338       L1    11  0.27
      P1  H 10398 10410       L1    17  0.13

> <Gold.Goldscore.Internal.Vdw.Weighted>
-1.1937

> <Gold.Goldscore.Internal.Torsion.Weighted>
-0.3683

> <Gold.Goldscore.External.Vdw.Weighted>
14.5791

> <Gold.Goldscore.Internal.HBond.Weighted>
0.0000

> <Gold.Goldscore.External.HBond.Weighted>
1.3107

> <Gold.Goldscore.Internal.Correction.Weighted>
-0.7650

> <Gold.Rescore>
     Score     S(PLP)   S(hbond)     S(cho)   S(metal)  DE(clash)   DE(tors)     intcor
     15.24     -12.29       0.99       0.00       0.00       0.00       0.02       ----

> <Gold.PLP.Fitness>
15.2353

> <Gold.PLP.PLP>
-12.2927

> <Gold.PLP.part.hbond>
-3.5358

> <Gold.PLP.part.metal>
0.0000

> <Gold.PLP.part.buried>
-3.5494

> <Gold.PLP.part.nonpolar>
-5.9181

> <Gold.PLP.part.repulsive>
0.5366

> <Gold.PLP.ligand.clash>
0.0000

> <Gold.PLP.ligand.torsion>
0.0167

> <Gold.PLP.Chemscore.Hbond>
0.9920

> <Gold.PLP.Chemscore.CHOScore>
0.0000

> <Gold.PLP.Chemscore.Metal>
0.0000

> <Gold.Chemscore.Hbonds>
donor molecule, donor type, donor heavy atom, donor atom, acceptor molecule, acceptor atom, score
      P1  H 10398 10410       L1    17  1.00

> <Gold.PLP.Chemscore.Internal.Correction>
   9.000000E+99

