#       Name:                CT1002167954
#       Creating user name   hitesit
#       Creation time:       Sun Apr 16 20:31:06 2023


#       File generated by GOLD software.
#

@<TRIPOS>MOLECULE
CT1002167954|ligand_prepared|mol2|1|dock4
    29    30     1
SMALL
NO_CHARGES


@<TRIPOS>ATOM
      1 C1         142.6194 123.9120 188.8613 C.3            1 RES1               0.0000
      2 C2         142.3305 123.7606 190.3687 C.ar           1 RES1               0.0000
      3 C3         141.5837 124.8949 188.3231 C.2            1 RES1               0.0000
      4 C4         144.0589 124.4021 188.7499 C.2            1 RES1               0.0000
      5 C5         142.5018 122.5905 188.0667 C.3            1 RES1               0.0000
      6 C6         141.2600 122.9891 190.8110 C.ar           1 RES1               0.0000
      7 C7         143.1257 124.3830 191.3273 C.ar           1 RES1               0.0000
      8 N8         142.0071 126.1547 188.0176 N.am           1 RES1               0.0000
      9 O9         140.4055 124.5812 188.2060 O.2            1 RES1               0.0000
     10 N10        144.2724 125.6575 188.2438 N.am           1 RES1               0.0000
     11 O11        145.0091 123.7190 189.1114 O.2            1 RES1               0.0000
     12 C12        143.1235 121.3946 188.7705 C.3            1 RES1               0.0000
     13 C13        140.9958 122.8427 192.1627 C.ar           1 RES1               0.0000
     14 C14        142.8596 124.2354 192.6785 C.ar           1 RES1               0.0000
     15 C15        143.3100 126.5678 187.9012 C.2            1 RES1               0.0000
     16 C16        141.7955 123.4653 193.0973 C.ar           1 RES1               0.0000
     17 O17        143.5803 127.6978 187.5045 O.2            1 RES1               0.0000
     18 H18        141.4405 122.3809 187.8852 H              1 RES1               0.0000
     19 H19        142.9895 122.7196 187.0925 H              1 RES1               0.0000
     20 H20        140.6182 122.4936 190.0902 H              1 RES1               0.0000
     21 H21        143.9675 124.9946 191.0209 H              1 RES1               0.0000
     22 H22        141.2886 126.8545 187.8613 H              1 RES1               0.0000
     23 H23        145.2383 125.9395 188.1098 H              1 RES1               0.0000
     24 H24        143.0135 120.4938 188.1703 H              1 RES1               0.0000
     25 H25        144.1850 121.5583 188.9444 H              1 RES1               0.0000
     26 H26        142.6452 121.2215 189.7323 H              1 RES1               0.0000
     27 H27        140.1563 122.2366 192.4871 H              1 RES1               0.0000
     28 H28        143.4912 124.7277 193.4105 H              1 RES1               0.0000
     29 H29        141.5885 123.3501 194.1561 H              1 RES1               0.0000
@<TRIPOS>BOND
    1    1    2 1     
    2    1    3 1     
    3    1    4 1     
    4    1    5 1     
    5    2    6 ar    
    6    2    7 ar    
    7    3    8 1     
    8    3    9 2     
    9    4   10 1     
   10    4   11 2     
   11    5   12 1     
   12    5   18 1     
   13    5   19 1     
   14    6   13 ar    
   15    6   20 1     
   16    7   14 ar    
   17    7   21 1     
   18    8   15 1     
   19    8   22 1     
   20   10   15 1     
   21   10   23 1     
   22   12   24 1     
   23   12   25 1     
   24   12   26 1     
   25   13   16 ar    
   26   13   27 1     
   27   14   16 ar    
   28   14   28 1     
   29   15   17 2     
   30   16   29 1     
@<TRIPOS>SUBSTRUCTURE
      1 RES1           1
@<TRIPOS>SET
DONOR_HYDROGENS      STATIC     ATOMS    <user>   **** ""
2 22 23
ATOM$RED        STATIC     ATOMS    COLORGROUP SYSTEM
2 22 23
@<TRIPOS>COMMENT
> <Gold.Version>
2022.3.0

> <Gold.Id.Protein>
unknown|7rmh_cavity_clean|pdb

> <Gold.Protein.RotatedTorsions>
[ 10359 10350 10349 10347 ] final    3.68 input   59.97 | X-H torsion
[ 10338 10331 10329 10326 ] final  -65.59 input   60.01 | X-H torsion
[ 10390 10381 10380 10378 ] final  106.15 input   59.98 | X-H torsion

> <Gold.Protein.ActiveResidues>
 ARG228  GLU230  ARG232  MET188  LEU190  ALA208  THR114  TYR115  ALA116  TYR117 
 ARG118  GLY119  GLN120 

> <Gold.Protein.RotatedAtoms>
  146.8822  127.8079  186.3270 H   0  0  0  0  0  0  0  0  0  0  0  0  # atno 10338 bound_to 10331
  136.9189  129.1216  178.2735 H   0  0  0  0  0  0  0  0  0  0  0  0  # atno 10359 bound_to 10350
  137.1960  135.6753  180.6371 H   0  0  0  0  0  0  0  0  0  0  0  0  # atno 10390 bound_to 10381
  135.8336  129.1215  179.4865 LP  0  0  0  0  0  0  0  0  0  0  0  0  # atno 14710 bound_to 10350
  136.1181  127.7532  178.6419 LP  0  0  0  0  0  0  0  0  0  0  0  0  # atno 14711 bound_to 10350
  147.8679  128.8258  185.5272 LP  0  0  0  0  0  0  0  0  0  0  0  0  # atno 14728 bound_to 10331
  147.4282  127.4076  184.8474 LP  0  0  0  0  0  0  0  0  0  0  0  0  # atno 14729 bound_to 10331
  135.6941  136.1016  181.0955 LP  0  0  0  0  0  0  0  0  0  0  0  0  # atno 14732 bound_to 10381
  135.9598  135.5300  179.5891 LP  0  0  0  0  0  0  0  0  0  0  0  0  # atno 14733 bound_to 10381

> <Gold.Score>
     Fitness  S(hb_ext) S(vdw_ext)  S(hb_int)    S(int)      intcor
     17.45       1.38      13.87       0.00      -3.01      -0.78

> <Gold.Goldscore.Fitness>
17.4509

> <Gold.Goldscore.Internal.Vdw>
-2.9665

> <Gold.Goldscore.Internal.Torsion>
-0.8146

> <Gold.Goldscore.External.Vdw>
13.8720

> <Gold.Goldscore.Internal.HBond>
0.0000

> <Gold.Goldscore.External.HBond>
1.3827

> <Gold.Goldscore.Internal.Correction>
-0.7752

> <Gold.Goldscore.Hbonds>
donor molecule, donor type, donor heavy atom, donor atom, acceptor molecule, acceptor atom, score
      P1  H 10398 10410       L1     9  0.23

> <Gold.Goldscore.Internal.Vdw.Weighted>
-2.9665

> <Gold.Goldscore.Internal.Torsion.Weighted>
-0.8146

> <Gold.Goldscore.External.Vdw.Weighted>
19.0741

> <Gold.Goldscore.Internal.HBond.Weighted>
0.0000

> <Gold.Goldscore.External.HBond.Weighted>
1.3827

> <Gold.Goldscore.Internal.Correction.Weighted>
-0.7752

> <Gold.Rescore>
     Score     S(PLP)   S(hbond)     S(cho)   S(metal)  DE(clash)   DE(tors)     intcor
     21.73     -20.42       1.00       0.00       0.00       1.25       0.22       ----

> <Gold.PLP.Fitness>
21.7292

> <Gold.PLP.PLP>
-20.4202

> <Gold.PLP.part.hbond>
-2.0000

> <Gold.PLP.part.metal>
0.0000

> <Gold.PLP.part.buried>
-3.7247

> <Gold.PLP.part.nonpolar>
-15.4707

> <Gold.PLP.part.repulsive>
0.3328

> <Gold.PLP.ligand.clash>
1.2522

> <Gold.PLP.ligand.torsion>
0.2194

> <Gold.PLP.Chemscore.Hbond>
1.0000

> <Gold.PLP.Chemscore.CHOScore>
0.0000

> <Gold.PLP.Chemscore.Metal>
0.0000

> <Gold.Chemscore.Hbonds>
donor molecule, donor type, donor heavy atom, donor atom, acceptor molecule, acceptor atom, score
      P1  H 10398 10410       L1     9  1.00

> <Gold.PLP.Chemscore.Internal.Correction>
   9.000000E+99

