#       Name:                CT1002167954
#       Creating user name   hitesit
#       Creation time:       Sun Apr 16 20:31:08 2023


#       File generated by GOLD software.
#

@<TRIPOS>MOLECULE
CT1002167954|ligand_prepared|mol2|1|dock10
    29    30     1
SMALL
NO_CHARGES


@<TRIPOS>ATOM
      1 C1         142.7077 127.9188 188.9012 C.3            1 RES1               0.0000
      2 C2         143.0604 129.3124 189.4602 C.ar           1 RES1               0.0000
      3 C3         141.8110 127.2542 189.9417 C.2            1 RES1               0.0000
      4 C4         142.0293 128.1576 187.5568 C.2            1 RES1               0.0000
      5 C5         143.9374 127.0122 188.6616 C.3            1 RES1               0.0000
      6 C6         142.2262 130.4015 189.2263 C.ar           1 RES1               0.0000
      7 C7         144.2129 129.5234 190.2123 C.ar           1 RES1               0.0000
      8 N8         140.4816 127.1500 189.6560 N.am           1 RES1               0.0000
      9 O9         142.2570 126.8632 191.0134 O.2            1 RES1               0.0000
     10 N10        140.7088 127.8129 187.4337 N.am           1 RES1               0.0000
     11 O11        142.6219 128.6564 186.6080 O.2            1 RES1               0.0000
     12 C12        143.6471 125.8045 187.7845 C.3            1 RES1               0.0000
     13 C13        142.5316 131.6556 189.7286 C.ar           1 RES1               0.0000
     14 C14        144.5165 130.7784 190.7135 C.ar           1 RES1               0.0000
     15 C15        139.8959 127.3485 188.4316 C.2            1 RES1               0.0000
     16 C16        143.6766 131.8449 190.4728 C.ar           1 RES1               0.0000
     17 O17        138.7039 127.1122 188.2569 O.2            1 RES1               0.0000
     18 H18        144.7291 127.6082 188.1911 H              1 RES1               0.0000
     19 H19        144.3125 126.6623 189.6313 H              1 RES1               0.0000
     20 H20        141.3221 130.2724 188.6407 H              1 RES1               0.0000
     21 H21        144.8889 128.6993 190.4133 H              1 RES1               0.0000
     22 H22        139.8659 126.9017 190.4239 H              1 RES1               0.0000
     23 H23        140.2933 127.9116 186.5129 H              1 RES1               0.0000
     24 H24        144.5430 125.2024 187.6483 H              1 RES1               0.0000
     25 H25        142.8816 125.1759 188.2347 H              1 RES1               0.0000
     26 H26        143.2958 126.1161 186.8030 H              1 RES1               0.0000
     27 H27        141.8680 132.4919 189.5352 H              1 RES1               0.0000
     28 H28        145.4190 130.9229 191.2982 H              1 RES1               0.0000
     29 H29        143.9154 132.8273 190.8666 H              1 RES1               0.0000
@<TRIPOS>BOND
    1    1    2 1     
    2    1    3 1     
    3    1    4 1     
    4    1    5 1     
    5    2    6 ar    
    6    2    7 ar    
    7    3    8 1     
    8    3    9 2     
    9    4   10 1     
   10    4   11 2     
   11    5   12 1     
   12    5   18 1     
   13    5   19 1     
   14    6   13 ar    
   15    6   20 1     
   16    7   14 ar    
   17    7   21 1     
   18    8   15 1     
   19    8   22 1     
   20   10   15 1     
   21   10   23 1     
   22   12   24 1     
   23   12   25 1     
   24   12   26 1     
   25   13   16 ar    
   26   13   27 1     
   27   14   16 ar    
   28   14   28 1     
   29   15   17 2     
   30   16   29 1     
@<TRIPOS>SUBSTRUCTURE
      1 RES1           1
@<TRIPOS>SET
DONOR_HYDROGENS      STATIC     ATOMS    <user>   **** ""
2 22 23
ATOM$RED        STATIC     ATOMS    COLORGROUP SYSTEM
2 22 23
@<TRIPOS>COMMENT
> <Gold.Version>
2022.3.0

> <Gold.Id.Protein>
unknown|7rmh_cavity_clean|pdb

> <Gold.Protein.RotatedTorsions>
[ 10359 10350 10349 10347 ] final  167.17 input   59.97 | X-H torsion
[ 10338 10331 10329 10326 ] final  -78.49 input   60.01 | X-H torsion
[ 10390 10381 10380 10378 ] final  156.72 input   59.98 | X-H torsion

> <Gold.Protein.ActiveResidues>
 ARG228  GLU230  ARG232  MET188  LEU190  ALA208  THR114  TYR115  ALA116  TYR117 
 ARG118  GLY119  GLN120 

> <Gold.Protein.RotatedAtoms>
  146.9513  127.9946  186.3948 H   0  0  0  0  0  0  0  0  0  0  0  0  # atno 10338 bound_to 10331
  135.7386  128.0063  179.1680 H   0  0  0  0  0  0  0  0  0  0  0  0  # atno 10359 bound_to 10350
  136.9813  135.4558  179.8988 H   0  0  0  0  0  0  0  0  0  0  0  0  # atno 10390 bound_to 10381
  136.8614  128.4555  178.0786 LP  0  0  0  0  0  0  0  0  0  0  0  0  # atno 14710 bound_to 10350
  136.2783  129.5418  179.1494 LP  0  0  0  0  0  0  0  0  0  0  0  0  # atno 14711 bound_to 10350
  147.9265  128.7540  185.3366 LP  0  0  0  0  0  0  0  0  0  0  0  0  # atno 14728 bound_to 10331
  147.2999  127.2914  184.9696 LP  0  0  0  0  0  0  0  0  0  0  0  0  # atno 14729 bound_to 10331
  136.4642  136.0460  181.3243 LP  0  0  0  0  0  0  0  0  0  0  0  0  # atno 14732 bound_to 10381
  135.4058  135.8068  180.1040 LP  0  0  0  0  0  0  0  0  0  0  0  0  # atno 14733 bound_to 10381

> <Gold.Score>
     Fitness  S(hb_ext) S(vdw_ext)  S(hb_int)    S(int)      intcor
     16.28       0.40      11.89       0.00      -0.47      -0.76

> <Gold.Goldscore.Fitness>
16.2799

> <Gold.Goldscore.Internal.Vdw>
-0.5163

> <Gold.Goldscore.Internal.Torsion>
-0.7208

> <Gold.Goldscore.External.Vdw>
11.8946

> <Gold.Goldscore.Internal.HBond>
0.0000

> <Gold.Goldscore.External.HBond>
0.3971

> <Gold.Goldscore.Internal.Correction>
-0.7650

> <Gold.Goldscore.Hbonds>
donor molecule, donor type, donor heavy atom, donor atom, acceptor molecule, acceptor atom, score
      L1  H    10    23       P1 10342  0.20

> <Gold.Goldscore.Internal.Vdw.Weighted>
-0.5163

> <Gold.Goldscore.Internal.Torsion.Weighted>
-0.7208

> <Gold.Goldscore.External.Vdw.Weighted>
16.3551

> <Gold.Goldscore.Internal.HBond.Weighted>
0.0000

> <Gold.Goldscore.External.HBond.Weighted>
0.3971

> <Gold.Goldscore.Internal.Correction.Weighted>
-0.7650

> <Gold.Rescore>
     Score     S(PLP)   S(hbond)     S(cho)   S(metal)  DE(clash)   DE(tors)     intcor
     13.00     -11.92       1.09       0.00       0.00       2.11       0.04       ----

> <Gold.PLP.Fitness>
13.0030

> <Gold.PLP.PLP>
-11.9193

> <Gold.PLP.part.hbond>
-2.1816

> <Gold.PLP.part.metal>
0.0000

> <Gold.PLP.part.buried>
-3.0233

> <Gold.PLP.part.nonpolar>
-6.6352

> <Gold.PLP.part.repulsive>
0.4552

> <Gold.PLP.ligand.clash>
2.1091

> <Gold.PLP.ligand.torsion>
0.0444

> <Gold.PLP.Chemscore.Hbond>
1.0939

> <Gold.PLP.Chemscore.CHOScore>
0.0000

> <Gold.PLP.Chemscore.Metal>
0.0000

> <Gold.Chemscore.Hbonds>
donor molecule, donor type, donor heavy atom, donor atom, acceptor molecule, acceptor atom, score
      L1  H    10    23       P1 10342  0.51

> <Gold.PLP.Chemscore.Internal.Correction>
   9.000000E+99

