#       Name:                CT1002167954
#       Creating user name   hitesit
#       Creation time:       Sun Apr 16 20:31:05 2023


#       File generated by GOLD software.
#

@<TRIPOS>MOLECULE
CT1002167954|ligand_prepared|mol2|1|dock2
    29    30     1
SMALL
NO_CHARGES


@<TRIPOS>ATOM
      1 C1         144.4291 123.5503 188.7272 C.3            1 RES1               0.0000
      2 C2         143.2939 123.0420 189.6391 C.ar           1 RES1               0.0000
      3 C3         143.8359 124.6843 187.8962 C.2            1 RES1               0.0000
      4 C4         145.5593 123.9837 189.6542 C.2            1 RES1               0.0000
      5 C5         144.9861 122.4755 187.7648 C.3            1 RES1               0.0000
      6 C6         142.1244 123.7804 189.7933 C.ar           1 RES1               0.0000
      7 C7         143.4002 121.8374 190.3293 C.ar           1 RES1               0.0000
      8 N8         144.2021 125.9589 188.2141 N.am           1 RES1               0.0000
      9 O9         143.0286 124.4660 187.0013 O.2            1 RES1               0.0000
     10 N10        145.8862 125.3140 189.6898 N.am           1 RES1               0.0000
     11 O11        146.1586 123.1877 190.3665 O.2            1 RES1               0.0000
     12 C12        143.9124 121.6087 187.1262 C.3            1 RES1               0.0000
     13 C13        141.0972 123.3297 190.6057 C.ar           1 RES1               0.0000
     14 C14        142.3719 121.3886 191.1414 C.ar           1 RES1               0.0000
     15 C15        145.2383 126.3256 189.0347 C.2            1 RES1               0.0000
     16 C16        141.2200 122.1334 191.2799 C.ar           1 RES1               0.0000
     17 O17        145.5571 127.5046 189.1595 O.2            1 RES1               0.0000
     18 H18        145.5561 122.9737 186.9709 H              1 RES1               0.0000
     19 H19        145.6779 121.8294 188.3193 H              1 RES1               0.0000
     20 H20        142.0107 124.7254 189.2726 H              1 RES1               0.0000
     21 H21        144.2977 121.2354 190.2362 H              1 RES1               0.0000
     22 H22        143.6548 126.7089 187.8038 H              1 RES1               0.0000
     23 H23        146.6867 125.5742 190.2571 H              1 RES1               0.0000
     24 H24        144.3570 120.8717 186.4606 H              1 RES1               0.0000
     25 H25        143.3421 121.0786 187.8861 H              1 RES1               0.0000
     26 H26        143.2210 122.2161 186.5457 H              1 RES1               0.0000
     27 H27        140.1932 123.9202 190.7124 H              1 RES1               0.0000
     28 H28        142.4731 120.4468 191.6706 H              1 RES1               0.0000
     29 H29        140.4150 121.7803 191.9159 H              1 RES1               0.0000
@<TRIPOS>BOND
    1    1    2 1     
    2    1    3 1     
    3    1    4 1     
    4    1    5 1     
    5    2    6 ar    
    6    2    7 ar    
    7    3    8 1     
    8    3    9 2     
    9    4   10 1     
   10    4   11 2     
   11    5   12 1     
   12    5   18 1     
   13    5   19 1     
   14    6   13 ar    
   15    6   20 1     
   16    7   14 ar    
   17    7   21 1     
   18    8   15 1     
   19    8   22 1     
   20   10   15 1     
   21   10   23 1     
   22   12   24 1     
   23   12   25 1     
   24   12   26 1     
   25   13   16 ar    
   26   13   27 1     
   27   14   16 ar    
   28   14   28 1     
   29   15   17 2     
   30   16   29 1     
@<TRIPOS>SUBSTRUCTURE
      1 RES1           1
@<TRIPOS>SET
DONOR_HYDROGENS      STATIC     ATOMS    <user>   **** ""
2 22 23
ATOM$RED        STATIC     ATOMS    COLORGROUP SYSTEM
2 22 23
@<TRIPOS>COMMENT
> <Gold.Version>
2022.3.0

> <Gold.Id.Protein>
unknown|7rmh_cavity_clean|pdb

> <Gold.Protein.RotatedTorsions>
[ 10359 10350 10349 10347 ] final  -92.40 input   59.97 | X-H torsion
[ 10338 10331 10329 10326 ] final  -63.28 input   60.01 | X-H torsion
[ 10390 10381 10380 10378 ] final   98.05 input   59.98 | X-H torsion

> <Gold.Protein.ActiveResidues>
 ARG228  GLU230  ARG232  MET188  LEU190  ALA208  THR114  TYR115  ALA116  TYR117 
 ARG118  GLY119  GLN120 

> <Gold.Protein.RotatedAtoms>
  146.8725  127.7754  186.3107 H   0  0  0  0  0  0  0  0  0  0  0  0  # atno 10338 bound_to 10331
  136.0640  129.3982  179.3380 H   0  0  0  0  0  0  0  0  0  0  0  0  # atno 10359 bound_to 10350
  137.1655  135.7224  180.7568 H   0  0  0  0  0  0  0  0  0  0  0  0  # atno 10390 bound_to 10381
  135.8783  127.8308  178.9405 LP  0  0  0  0  0  0  0  0  0  0  0  0  # atno 14710 bound_to 10350
  136.9338  128.7654  178.1164 LP  0  0  0  0  0  0  0  0  0  0  0  0  # atno 14711 bound_to 10350
  147.8548  128.8344  185.5617 LP  0  0  0  0  0  0  0  0  0  0  0  0  # atno 14728 bound_to 10331
  147.4511  127.4319  184.8292 LP  0  0  0  0  0  0  0  0  0  0  0  0  # atno 14729 bound_to 10331
  135.5989  136.0864  181.0037 LP  0  0  0  0  0  0  0  0  0  0  0  0  # atno 14732 bound_to 10381
  136.0857  135.4979  179.5604 LP  0  0  0  0  0  0  0  0  0  0  0  0  # atno 14733 bound_to 10381

> <Gold.Score>
     Fitness  S(hb_ext) S(vdw_ext)  S(hb_int)    S(int)      intcor
     22.48       5.31      15.05       0.00      -3.52      -0.78

> <Gold.Goldscore.Fitness>
22.4788

> <Gold.Goldscore.Internal.Vdw>
-3.4441

> <Gold.Goldscore.Internal.Torsion>
-0.8598

> <Gold.Goldscore.External.Vdw>
15.0479

> <Gold.Goldscore.Internal.HBond>
0.0000

> <Gold.Goldscore.External.HBond>
5.3079

> <Gold.Goldscore.Internal.Correction>
-0.7838

> <Gold.Goldscore.Hbonds>
donor molecule, donor type, donor heavy atom, donor atom, acceptor molecule, acceptor atom, score
      P1  H 10331 10338       L1    17  0.12
      P1  H 10401 10414       L1     9  0.85

> <Gold.Goldscore.Internal.Vdw.Weighted>
-3.4441

> <Gold.Goldscore.Internal.Torsion.Weighted>
-0.8598

> <Gold.Goldscore.External.Vdw.Weighted>
20.6909

> <Gold.Goldscore.Internal.HBond.Weighted>
0.0000

> <Gold.Goldscore.External.HBond.Weighted>
5.3079

> <Gold.Goldscore.Internal.Correction.Weighted>
-0.7838

> <Gold.Rescore>
     Score     S(PLP)   S(hbond)     S(cho)   S(metal)  DE(clash)   DE(tors)     intcor
     22.83     -19.74       1.94       0.00       0.00       1.96       0.38       ----

> <Gold.PLP.Fitness>
22.8284

> <Gold.PLP.PLP>
-19.7446

> <Gold.PLP.part.hbond>
-2.3457

> <Gold.PLP.part.metal>
0.0000

> <Gold.PLP.part.buried>
-4.1231

> <Gold.PLP.part.nonpolar>
-14.2239

> <Gold.PLP.part.repulsive>
0.1960

> <Gold.PLP.ligand.clash>
1.9552

> <Gold.PLP.ligand.torsion>
0.3841

> <Gold.PLP.Chemscore.Hbond>
1.9357

> <Gold.PLP.Chemscore.CHOScore>
0.0000

> <Gold.PLP.Chemscore.Metal>
0.0000

> <Gold.Chemscore.Hbonds>
donor molecule, donor type, donor heavy atom, donor atom, acceptor molecule, acceptor atom, score
      P1  H 10401 10414       L1     9  0.78

> <Gold.PLP.Chemscore.Internal.Correction>
   9.000000E+99

