#       Name:                CT1002167954
#       Creating user name   hitesit
#       Creation time:       Sun Apr 16 20:31:07 2023


#       File generated by GOLD software.
#

@<TRIPOS>MOLECULE
CT1002167954|ligand_prepared|mol2|1|dock7
    29    30     1
SMALL
NO_CHARGES


@<TRIPOS>ATOM
      1 C1         144.4362 123.5931 189.2229 C.3            1 RES1               0.0000
      2 C2         145.1286 122.5746 188.2944 C.ar           1 RES1               0.0000
      3 C3         144.0359 124.7728 188.3419 C.2            1 RES1               0.0000
      4 C4         143.2578 122.8611 189.8557 C.2            1 RES1               0.0000
      5 C5         145.3415 124.1159 190.3624 C.3            1 RES1               0.0000
      6 C6         146.0365 121.6523 188.8061 C.ar           1 RES1               0.0000
      7 C7         144.8680 122.5433 186.9271 C.ar           1 RES1               0.0000
      8 N8         142.7143 124.9130 188.0358 N.am           1 RES1               0.0000
      9 O9         144.8719 125.5456 187.8901 O.2            1 RES1               0.0000
     10 N10        141.9938 123.2858 189.5401 N.am           1 RES1               0.0000
     11 O11        143.4122 121.9099 190.6117 O.2            1 RES1               0.0000
     12 C12        144.7440 125.2819 191.1342 C.3            1 RES1               0.0000
     13 C13        146.6593 120.7303 187.9813 C.ar           1 RES1               0.0000
     14 C14        145.4921 121.6205 186.1039 C.ar           1 RES1               0.0000
     15 C15        141.6680 124.2589 188.6349 C.2            1 RES1               0.0000
     16 C16        146.3872 120.7134 186.6299 C.ar           1 RES1               0.0000
     17 O17        140.5058 124.5474 188.3642 O.2            1 RES1               0.0000
     18 H18        145.5393 123.2940 191.0615 H              1 RES1               0.0000
     19 H19        146.3014 124.4306 189.9346 H              1 RES1               0.0000
     20 H20        146.2650 121.6520 189.8667 H              1 RES1               0.0000
     21 H21        144.1682 123.2482 186.4911 H              1 RES1               0.0000
     22 H22        142.4825 125.5645 187.2927 H              1 RES1               0.0000
     23 H23        141.2244 122.8349 190.0250 H              1 RES1               0.0000
     24 H24        145.4194 125.6098 191.9216 H              1 RES1               0.0000
     25 H25        144.5577 126.1265 190.4741 H              1 RES1               0.0000
     26 H26        143.8002 124.9967 191.5943 H              1 RES1               0.0000
     27 H27        147.3640 120.0194 188.4000 H              1 RES1               0.0000
     28 H28        145.2754 121.6113 185.0408 H              1 RES1               0.0000
     29 H29        146.8749 119.9908 185.9840 H              1 RES1               0.0000
@<TRIPOS>BOND
    1    1    2 1     
    2    1    3 1     
    3    1    4 1     
    4    1    5 1     
    5    2    6 ar    
    6    2    7 ar    
    7    3    8 1     
    8    3    9 2     
    9    4   10 1     
   10    4   11 2     
   11    5   12 1     
   12    5   18 1     
   13    5   19 1     
   14    6   13 ar    
   15    6   20 1     
   16    7   14 ar    
   17    7   21 1     
   18    8   15 1     
   19    8   22 1     
   20   10   15 1     
   21   10   23 1     
   22   12   24 1     
   23   12   25 1     
   24   12   26 1     
   25   13   16 ar    
   26   13   27 1     
   27   14   16 ar    
   28   14   28 1     
   29   15   17 2     
   30   16   29 1     
@<TRIPOS>SUBSTRUCTURE
      1 RES1           1
@<TRIPOS>SET
DONOR_HYDROGENS      STATIC     ATOMS    <user>   **** ""
2 22 23
ATOM$RED        STATIC     ATOMS    COLORGROUP SYSTEM
2 22 23
@<TRIPOS>COMMENT
> <Gold.Version>
2022.3.0

> <Gold.Id.Protein>
unknown|7rmh_cavity_clean|pdb

> <Gold.Protein.RotatedTorsions>
[ 10359 10350 10349 10347 ] final   19.64 input   59.97 | X-H torsion
[ 10338 10331 10329 10326 ] final  -39.46 input   60.01 | X-H torsion
[ 10390 10381 10380 10378 ] final   76.63 input   59.98 | X-H torsion

> <Gold.Protein.ActiveResidues>
 ARG228  GLU230  ARG232  MET188  LEU190  ALA208  THR114  TYR115  ALA116  TYR117 
 ARG118  GLY119  GLN120 

> <Gold.Protein.RotatedAtoms>
  146.8231  127.4710  186.0779 H   0  0  0  0  0  0  0  0  0  0  0  0  # atno 10338 bound_to 10331
  136.9396  128.8881  178.1606 H   0  0  0  0  0  0  0  0  0  0  0  0  # atno 10359 bound_to 10350
  137.0027  135.8487  181.0372 H   0  0  0  0  0  0  0  0  0  0  0  0  # atno 10390 bound_to 10381
  135.9787  129.3218  179.4007 LP  0  0  0  0  0  0  0  0  0  0  0  0  # atno 14710 bound_to 10350
  135.9521  127.7879  178.8413 LP  0  0  0  0  0  0  0  0  0  0  0  0  # atno 14711 bound_to 10350
  147.6801  128.8439  185.9093 LP  0  0  0  0  0  0  0  0  0  0  0  0  # atno 14728 bound_to 10331
  147.6756  127.7289  184.7162 LP  0  0  0  0  0  0  0  0  0  0  0  0  # atno 14729 bound_to 10331
  135.4172  136.0168  180.7122 LP  0  0  0  0  0  0  0  0  0  0  0  0  # atno 14732 bound_to 10381
  136.4313  135.4403  179.5694 LP  0  0  0  0  0  0  0  0  0  0  0  0  # atno 14733 bound_to 10381

> <Gold.Score>
     Fitness  S(hb_ext) S(vdw_ext)  S(hb_int)    S(int)      intcor
     18.89       1.83      13.11       0.00      -0.96      -0.76

> <Gold.Goldscore.Fitness>
18.8945

> <Gold.Goldscore.Internal.Vdw>
-1.2028

> <Gold.Goldscore.Internal.Torsion>
-0.5177

> <Gold.Goldscore.External.Vdw>
13.1073

> <Gold.Goldscore.Internal.HBond>
0.0000

> <Gold.Goldscore.External.HBond>
1.8276

> <Gold.Goldscore.Internal.Correction>
-0.7650

> <Gold.Goldscore.Hbonds>
donor molecule, donor type, donor heavy atom, donor atom, acceptor molecule, acceptor atom, score
      P1  H 10331 10338       L1     9  0.07
      P1  H 10398 10410       L1    17  0.28

> <Gold.Goldscore.Internal.Vdw.Weighted>
-1.2028

> <Gold.Goldscore.Internal.Torsion.Weighted>
-0.5177

> <Gold.Goldscore.External.Vdw.Weighted>
18.0225

> <Gold.Goldscore.Internal.HBond.Weighted>
0.0000

> <Gold.Goldscore.External.HBond.Weighted>
1.8276

> <Gold.Goldscore.Internal.Correction.Weighted>
-0.7650

> <Gold.Rescore>
     Score     S(PLP)   S(hbond)     S(cho)   S(metal)  DE(clash)   DE(tors)     intcor
     16.58     -12.59       1.94       0.00       0.00       0.00       0.91       ----

> <Gold.PLP.Fitness>
16.5816

> <Gold.PLP.PLP>
-12.5856

> <Gold.PLP.part.hbond>
-3.9481

> <Gold.PLP.part.metal>
0.0000

> <Gold.PLP.part.buried>
-3.3321

> <Gold.PLP.part.nonpolar>
-6.1620

> <Gold.PLP.part.repulsive>
0.3297

> <Gold.PLP.ligand.clash>
0.0000

> <Gold.PLP.ligand.torsion>
0.9060

> <Gold.PLP.Chemscore.Hbond>
1.9360

> <Gold.PLP.Chemscore.CHOScore>
0.0000

> <Gold.PLP.Chemscore.Metal>
0.0000

> <Gold.Chemscore.Hbonds>
donor molecule, donor type, donor heavy atom, donor atom, acceptor molecule, acceptor atom, score
      P1  H 10398 10410       L1    17  1.00

> <Gold.PLP.Chemscore.Internal.Correction>
   9.000000E+99

