#       Name:                CT1002167954
#       Creating user name   hitesit
#       Creation time:       Sun Apr 16 20:31:05 2023


#       File generated by GOLD software.
#

@<TRIPOS>MOLECULE
CT1002167954|ligand_prepared|mol2|1|dock3
    29    30     1
SMALL
NO_CHARGES


@<TRIPOS>ATOM
      1 C1         142.2762 125.1222 189.0606 C.3            1 RES1               0.0000
      2 C2         142.6539 123.8176 188.3299 C.ar           1 RES1               0.0000
      3 C3         142.3882 126.2397 188.0276 C.2            1 RES1               0.0000
      4 C4         140.8662 124.9149 189.6024 C.2            1 RES1               0.0000
      5 C5         143.2011 125.4609 190.2528 C.3            1 RES1               0.0000
      6 C6         141.6751 122.8918 187.9811 C.ar           1 RES1               0.0000
      7 C7         143.9742 123.5276 187.9961 C.ar           1 RES1               0.0000
      8 N8         141.2292 126.7694 187.5417 N.am           1 RES1               0.0000
      9 O9         143.4764 126.6231 187.6164 O.2            1 RES1               0.0000
     10 N10        139.8601 125.6898 189.0876 N.am           1 RES1               0.0000
     11 O11        140.6145 124.0759 190.4586 O.2            1 RES1               0.0000
     12 C12        142.7245 126.6430 191.0821 C.3            1 RES1               0.0000
     13 C13        142.0038 121.7200 187.3200 C.ar           1 RES1               0.0000
     14 C14        144.3007 122.3550 187.3351 C.ar           1 RES1               0.0000
     15 C15        139.9724 126.5862 188.0599 C.2            1 RES1               0.0000
     16 C16        143.3166 121.4510 186.9962 C.ar           1 RES1               0.0000
     17 O17        139.0105 127.2061 187.6154 O.2            1 RES1               0.0000
     18 H18        143.2757 124.5806 190.9031 H              1 RES1               0.0000
     19 H19        144.2052 125.6806 189.8695 H              1 RES1               0.0000
     20 H20        140.6370 123.0852 188.2298 H              1 RES1               0.0000
     21 H21        144.7652 124.2237 188.2538 H              1 RES1               0.0000
     22 H22        141.3039 127.3559 186.7166 H              1 RES1               0.0000
     23 H23        138.9424 125.5891 189.5096 H              1 RES1               0.0000
     24 H24        143.4090 126.8379 191.9050 H              1 RES1               0.0000
     25 H25        142.6629 127.5421 190.4724 H              1 RES1               0.0000
     26 H26        141.7389 126.4486 191.4999 H              1 RES1               0.0000
     27 H27        141.2257 121.0112 187.0567 H              1 RES1               0.0000
     28 H28        145.3353 122.1471 187.0828 H              1 RES1               0.0000
     29 H29        143.5737 120.5331 186.4779 H              1 RES1               0.0000
@<TRIPOS>BOND
    1    1    2 1     
    2    1    3 1     
    3    1    4 1     
    4    1    5 1     
    5    2    6 ar    
    6    2    7 ar    
    7    3    8 1     
    8    3    9 2     
    9    4   10 1     
   10    4   11 2     
   11    5   12 1     
   12    5   18 1     
   13    5   19 1     
   14    6   13 ar    
   15    6   20 1     
   16    7   14 ar    
   17    7   21 1     
   18    8   15 1     
   19    8   22 1     
   20   10   15 1     
   21   10   23 1     
   22   12   24 1     
   23   12   25 1     
   24   12   26 1     
   25   13   16 ar    
   26   13   27 1     
   27   14   16 ar    
   28   14   28 1     
   29   15   17 2     
   30   16   29 1     
@<TRIPOS>SUBSTRUCTURE
      1 RES1           1
@<TRIPOS>SET
DONOR_HYDROGENS      STATIC     ATOMS    <user>   **** ""
2 22 23
ATOM$RED        STATIC     ATOMS    COLORGROUP SYSTEM
2 22 23
@<TRIPOS>COMMENT
> <Gold.Version>
2022.3.0

> <Gold.Id.Protein>
unknown|7rmh_cavity_clean|pdb

> <Gold.Protein.RotatedTorsions>
[ 10359 10350 10349 10347 ] final  -74.12 input   59.97 | X-H torsion
[ 10338 10331 10329 10326 ] final  -68.95 input   60.01 | X-H torsion
[ 10390 10381 10380 10378 ] final  -86.82 input   59.98 | X-H torsion

> <Gold.Protein.ActiveResidues>
 ARG228  GLU230  ARG232  MET188  LEU190  ALA208  THR114  TYR115  ALA116  TYR117 
 ARG118  GLY119  GLN120 

> <Gold.Protein.RotatedAtoms>
  146.8979  127.8560  186.3485 H   0  0  0  0  0  0  0  0  0  0  0  0  # atno 10338 bound_to 10331
  136.2655  129.5294  179.1626 H   0  0  0  0  0  0  0  0  0  0  0  0  # atno 10359 bound_to 10350
  135.4318  135.7834  180.0572 H   0  0  0  0  0  0  0  0  0  0  0  0  # atno 10390 bound_to 10381
  135.7410  127.9886  179.1550 LP  0  0  0  0  0  0  0  0  0  0  0  0  # atno 14710 bound_to 10350
  136.8683  128.4755  178.0785 LP  0  0  0  0  0  0  0  0  0  0  0  0  # atno 14711 bound_to 10350
  147.8857  128.8109  185.4769 LP  0  0  0  0  0  0  0  0  0  0  0  0  # atno 14728 bound_to 10331
  147.3947  127.3741  184.8760 LP  0  0  0  0  0  0  0  0  0  0  0  0  # atno 14729 bound_to 10331
  137.0231  135.4649  179.9387 LP  0  0  0  0  0  0  0  0  0  0  0  0  # atno 14732 bound_to 10381
  136.4075  136.0580  181.3301 LP  0  0  0  0  0  0  0  0  0  0  0  0  # atno 14733 bound_to 10381

> <Gold.Score>
     Fitness  S(hb_ext) S(vdw_ext)  S(hb_int)    S(int)      intcor
     27.48       1.29      20.31       0.00      -1.74      -0.78

> <Gold.Goldscore.Fitness>
27.4809

> <Gold.Goldscore.Internal.Vdw>
-2.0565

> <Gold.Goldscore.Internal.Torsion>
-0.4557

> <Gold.Goldscore.External.Vdw>
20.3112

> <Gold.Goldscore.Internal.HBond>
0.0000

> <Gold.Goldscore.External.HBond>
1.2899

> <Gold.Goldscore.Internal.Correction>
-0.7752

> <Gold.Goldscore.Hbonds>
donor molecule, donor type, donor heavy atom, donor atom, acceptor molecule, acceptor atom, score
      L1  H     8    22       P1 10342  0.27
      L1  H    10    23       P1 10418  0.37

> <Gold.Goldscore.Internal.Vdw.Weighted>
-2.0565

> <Gold.Goldscore.Internal.Torsion.Weighted>
-0.4557

> <Gold.Goldscore.External.Vdw.Weighted>
27.9279

> <Gold.Goldscore.Internal.HBond.Weighted>
0.0000

> <Gold.Goldscore.External.HBond.Weighted>
1.2899

> <Gold.Goldscore.Internal.Correction.Weighted>
-0.7752

> <Gold.Rescore>
     Score     S(PLP)   S(hbond)     S(cho)   S(metal)  DE(clash)   DE(tors)     intcor
     21.40     -20.93       0.98       0.00       0.00       1.18       0.64       ----

> <Gold.PLP.Fitness>
21.3979

> <Gold.PLP.PLP>
-20.9302

> <Gold.PLP.part.hbond>
-1.0000

> <Gold.PLP.part.metal>
0.0000

> <Gold.PLP.part.buried>
-5.0009

> <Gold.PLP.part.nonpolar>
-18.1735

> <Gold.PLP.part.repulsive>
2.0438

> <Gold.PLP.ligand.clash>
1.1807

> <Gold.PLP.ligand.torsion>
0.6382

> <Gold.PLP.Chemscore.Hbond>
0.9750

> <Gold.PLP.Chemscore.CHOScore>
0.0000

> <Gold.PLP.Chemscore.Metal>
0.0000

> <Gold.Chemscore.Hbonds>
donor molecule, donor type, donor heavy atom, donor atom, acceptor molecule, acceptor atom, score
      L1  H     8    22       P1 10342  0.66
      L1  H    10    23       P1 10418  0.89

> <Gold.PLP.Chemscore.Internal.Correction>
   9.000000E+99

