#       Name:                CT1002167954
#       Creating user name   hitesit
#       Creation time:       Sun Apr 16 20:31:07 2023


#       File generated by GOLD software.
#

@<TRIPOS>MOLECULE
CT1002167954|ligand_prepared|mol2|1|dock8
    29    30     1
SMALL
NO_CHARGES


@<TRIPOS>ATOM
      1 C1         142.6199 128.0947 189.1053 C.3            1 RES1               0.0000
      2 C2         141.7320 129.3419 189.2920 C.ar           1 RES1               0.0000
      3 C3         142.1550 127.0783 190.1440 C.2            1 RES1               0.0000
      4 C4         142.4237 127.6436 187.6621 C.2            1 RES1               0.0000
      5 C5         144.1275 128.3631 189.3211 C.3            1 RES1               0.0000
      6 C6         140.3447 129.2331 189.2750 C.ar           1 RES1               0.0000
      7 C7         142.2846 130.6053 189.4846 C.ar           1 RES1               0.0000
      8 N8         141.4321 126.0094 189.7027 N.am           1 RES1               0.0000
      9 O9         142.3852 127.2331 191.3371 O.2            1 RES1               0.0000
     10 N10        141.8201 126.4328 187.4444 N.am           1 RES1               0.0000
     11 O11        142.7712 128.3332 186.7114 O.2            1 RES1               0.0000
     12 C12        144.9904 127.1137 189.2403 C.3            1 RES1               0.0000
     13 C13        139.5390 130.3464 189.4473 C.ar           1 RES1               0.0000
     14 C14        141.4770 131.7174 189.6565 C.ar           1 RES1               0.0000
     15 C15        141.2877 125.6092 188.3986 C.2            1 RES1               0.0000
     16 C16        140.1044 131.5891 189.6386 C.ar           1 RES1               0.0000
     17 O17        140.7116 124.5614 188.1206 O.2            1 RES1               0.0000
     18 H18        144.4707 129.0788 188.5639 H              1 RES1               0.0000
     19 H19        144.2665 128.8249 190.3064 H              1 RES1               0.0000
     20 H20        139.8817 128.2637 189.1233 H              1 RES1               0.0000
     21 H21        143.3620 130.7302 189.5013 H              1 RES1               0.0000
     22 H22        140.9547 125.4565 190.4075 H              1 RES1               0.0000
     23 H23        141.7624 126.1160 186.4818 H              1 RES1               0.0000
     24 H24        146.0387 127.3580 189.3988 H              1 RES1               0.0000
     25 H25        144.6931 126.3899 189.9963 H              1 RES1               0.0000
     26 H26        144.8961 126.6423 188.2641 H              1 RES1               0.0000
     27 H27        138.4593 130.2403 189.4310 H              1 RES1               0.0000
     28 H28        141.9264 132.6935 189.8061 H              1 RES1               0.0000
     29 H29        139.4730 132.4610 189.7739 H              1 RES1               0.0000
@<TRIPOS>BOND
    1    1    2 1     
    2    1    3 1     
    3    1    4 1     
    4    1    5 1     
    5    2    6 ar    
    6    2    7 ar    
    7    3    8 1     
    8    3    9 2     
    9    4   10 1     
   10    4   11 2     
   11    5   12 1     
   12    5   18 1     
   13    5   19 1     
   14    6   13 ar    
   15    6   20 1     
   16    7   14 ar    
   17    7   21 1     
   18    8   15 1     
   19    8   22 1     
   20   10   15 1     
   21   10   23 1     
   22   12   24 1     
   23   12   25 1     
   24   12   26 1     
   25   13   16 ar    
   26   13   27 1     
   27   14   16 ar    
   28   14   28 1     
   29   15   17 2     
   30   16   29 1     
@<TRIPOS>SUBSTRUCTURE
      1 RES1           1
@<TRIPOS>SET
DONOR_HYDROGENS      STATIC     ATOMS    <user>   **** ""
2 22 23
ATOM$RED        STATIC     ATOMS    COLORGROUP SYSTEM
2 22 23
@<TRIPOS>COMMENT
> <Gold.Version>
2022.3.0

> <Gold.Id.Protein>
unknown|7rmh_cavity_clean|pdb

> <Gold.Protein.RotatedTorsions>
[ 10359 10350 10349 10347 ] final  -41.35 input   59.97 | X-H torsion
[ 10338 10331 10329 10326 ] final  -71.94 input   60.01 | X-H torsion
[ 10390 10381 10380 10378 ] final  -77.37 input   59.98 | X-H torsion

> <Gold.Protein.ActiveResidues>
 ARG228  GLU230  ARG232  MET188  LEU190  ALA208  THR114  TYR115  ALA116  TYR117 
 ARG118  GLY119  GLN120 

> <Gold.Protein.RotatedAtoms>
  146.9132  127.8991  186.3654 H   0  0  0  0  0  0  0  0  0  0  0  0  # atno 10338 bound_to 10331
  136.6198  129.5432  178.7708 H   0  0  0  0  0  0  0  0  0  0  0  0  # atno 10359 bound_to 10350
  135.3854  135.8390  180.1934 H   0  0  0  0  0  0  0  0  0  0  0  0  # atno 10390 bound_to 10381
  135.6396  128.4277  179.4374 LP  0  0  0  0  0  0  0  0  0  0  0  0  # atno 14710 bound_to 10350
  136.6131  128.0225  178.1905 LP  0  0  0  0  0  0  0  0  0  0  0  0  # atno 14711 bound_to 10350
  147.9000  128.7954  185.4325 LP  0  0  0  0  0  0  0  0  0  0  0  0  # atno 14728 bound_to 10331
  147.3649  127.3462  184.9033 LP  0  0  0  0  0  0  0  0  0  0  0  0  # atno 14729 bound_to 10331
  136.9201  135.4433  179.8245 LP  0  0  0  0  0  0  0  0  0  0  0  0  # atno 14732 bound_to 10381
  136.5573  136.0236  181.3071 LP  0  0  0  0  0  0  0  0  0  0  0  0  # atno 14733 bound_to 10381

> <Gold.Score>
     Fitness  S(hb_ext) S(vdw_ext)  S(hb_int)    S(int)      intcor
     19.32       6.00       9.73       0.00      -0.06      -0.76

> <Gold.Goldscore.Fitness>
19.3247

> <Gold.Goldscore.Internal.Vdw>
-0.4209

> <Gold.Goldscore.Internal.Torsion>
-0.3992

> <Gold.Goldscore.External.Vdw>
9.7308

> <Gold.Goldscore.Internal.HBond>
0.0000

> <Gold.Goldscore.External.HBond>
6.0000

> <Gold.Goldscore.Internal.Correction>
-0.7650

> <Gold.Goldscore.Hbonds>
donor molecule, donor type, donor heavy atom, donor atom, acceptor molecule, acceptor atom, score
      P1  H 10398 10410       L1    17  1.00

> <Gold.Goldscore.Internal.Vdw.Weighted>
-0.4209

> <Gold.Goldscore.Internal.Torsion.Weighted>
-0.3992

> <Gold.Goldscore.External.Vdw.Weighted>
13.3799

> <Gold.Goldscore.Internal.HBond.Weighted>
0.0000

> <Gold.Goldscore.External.HBond.Weighted>
6.0000

> <Gold.Goldscore.Internal.Correction.Weighted>
-0.7650

> <Gold.Rescore>
     Score     S(PLP)   S(hbond)     S(cho)   S(metal)  DE(clash)   DE(tors)     intcor
     24.62     -17.26       2.51       0.00       0.00       0.00       0.09       ----

> <Gold.PLP.Fitness>
24.6187

> <Gold.PLP.PLP>
-17.2630

> <Gold.PLP.part.hbond>
-4.0000

> <Gold.PLP.part.metal>
0.0000

> <Gold.PLP.part.buried>
-2.8710

> <Gold.PLP.part.nonpolar>
-12.7808

> <Gold.PLP.part.repulsive>
0.2995

> <Gold.PLP.ligand.clash>
0.0000

> <Gold.PLP.ligand.torsion>
0.0861

> <Gold.PLP.Chemscore.Hbond>
2.5093

> <Gold.PLP.Chemscore.CHOScore>
0.0000

> <Gold.PLP.Chemscore.Metal>
0.0000

> <Gold.Chemscore.Hbonds>
donor molecule, donor type, donor heavy atom, donor atom, acceptor molecule, acceptor atom, score
      P1  H 10339 10351       L1    11  0.06
      P1  H 10398 10410       L1    17  1.00

> <Gold.PLP.Chemscore.Internal.Correction>
   9.000000E+99

