#       Name:                CT1002167954
#       Creating user name   hitesit
#       Creation time:       Sun Apr 16 02:28:07 2023


#       File generated by GOLD software.
#

@<TRIPOS>MOLECULE
CT1002167954|ligand_prepared|mol2|1|dock4
    29    30     1
SMALL
NO_CHARGES


@<TRIPOS>ATOM
      1 C1         260.1393 315.5819 -59.6754 C.3            1 RES1               0.0000
      2 C2         259.4108 316.2423 -60.8636 C.ar           1 RES1               0.0000
      3 C3         259.4507 314.2402 -59.4429 C.2            1 RES1               0.0000
      4 C4         261.6038 315.4670 -60.0834 C.2            1 RES1               0.0000
      5 C5         260.0709 316.4024 -58.3664 C.3            1 RES1               0.0000
      6 C6         258.1903 316.8847 -60.6781 C.ar           1 RES1               0.0000
      7 C7         259.9471 316.2197 -62.1483 C.ar           1 RES1               0.0000
      8 N8         260.1166 313.1134 -59.8262 N.am           1 RES1               0.0000
      9 O9         258.3241 314.1742 -58.9668 O.2            1 RES1               0.0000
     10 N10        262.1279 314.2117 -60.2483 N.am           1 RES1               0.0000
     11 O11        262.3042 316.4525 -60.2797 O.2            1 RES1               0.0000
     12 C12        261.0536 315.9413 -57.3016 C.3            1 RES1               0.0000
     13 C13        257.5312 317.4853 -61.7379 C.ar           1 RES1               0.0000
     14 C14        259.2862 316.8209 -63.2068 C.ar           1 RES1               0.0000
     15 C15        261.4424 313.0302 -60.1681 C.2            1 RES1               0.0000
     16 C16        258.0788 317.4543 -63.0027 C.ar           1 RES1               0.0000
     17 O17        261.9711 311.9433 -60.3834 O.2            1 RES1               0.0000
     18 H18        260.2708 317.4557 -58.5990 H              1 RES1               0.0000
     19 H19        259.0538 316.3360 -57.9607 H              1 RES1               0.0000
     20 H20        257.7427 316.9172 -59.6904 H              1 RES1               0.0000
     21 H21        260.8953 315.7262 -62.3326 H              1 RES1               0.0000
     22 H22        259.5790 312.2532 -59.8619 H              1 RES1               0.0000
     23 H23        263.1211 314.1525 -60.4494 H              1 RES1               0.0000
     24 H24        260.9640 316.5501 -56.4044 H              1 RES1               0.0000
     25 H25        260.8674 314.9049 -57.0278 H              1 RES1               0.0000
     26 H26        262.0772 316.0179 -57.6623 H              1 RES1               0.0000
     27 H27        256.5805 317.9814 -61.5722 H              1 RES1               0.0000
     28 H28        259.7206 316.7934 -64.2007 H              1 RES1               0.0000
     29 H29        257.5624 317.9252 -63.8326 H              1 RES1               0.0000
@<TRIPOS>BOND
    1    1    2 1     
    2    1    3 1     
    3    1    4 1     
    4    1    5 1     
    5    2    6 ar    
    6    2    7 ar    
    7    3    8 1     
    8    3    9 2     
    9    4   10 1     
   10    4   11 2     
   11    5   12 1     
   12    5   18 1     
   13    5   19 1     
   14    6   13 ar    
   15    6   20 1     
   16    7   14 ar    
   17    7   21 1     
   18    8   15 1     
   19    8   22 1     
   20   10   15 1     
   21   10   23 1     
   22   12   24 1     
   23   12   25 1     
   24   12   26 1     
   25   13   16 ar    
   26   13   27 1     
   27   14   16 ar    
   28   14   28 1     
   29   15   17 2     
   30   16   29 1     
@<TRIPOS>SUBSTRUCTURE
      1 RES1           1
@<TRIPOS>SET
DONOR_HYDROGENS      STATIC     ATOMS    <user>   **** ""
2 22 23
ATOM$RED        STATIC     ATOMS    COLORGROUP SYSTEM
2 22 23
@<TRIPOS>COMMENT
> <Gold.Version>
2022.3.0

> <Gold.Id.Protein>
unknown|7ts3_clean|pdb

> <Gold.Protein.RotatedTorsions>
[ 17130 17106 17107 17108 ] final   94.78 input   41.13 | X-H torsion
[ 17186 17148 17149 17150 ] final  -12.90 input  103.89 | X-H torsion
[ 18260 18245 18246 18247 ] final   49.86 input   44.49 | X-H torsion
[ 18335 18283 18284 18285 ] final  134.94 input   36.74 | X-H torsion
[ 18422 18377 18378 18379 ] final -133.59 input  100.26 | X-H torsion
[ 18430 18388 18387 18385 ] final  113.06 input   60.03 | X-H torsion
[ 18490 18457 18458 18459 ] final  115.20 input   96.11 | X-H torsion
[ 18643 18610 18611 18612 ] final -114.95 input  123.23 | X-H torsion
[ 7420 7372 7373 7374 ] final   83.04 input   96.91 | X-H torsion
[ 7454 7433 7434 7435 ] final  -99.51 input   88.26 | X-H torsion
[ 18226 18203 18204 18205 ] final -158.15 input   35.17 | X-H torsion
[ 18536 18521 18522 18523 ] final  -69.29 input  122.93 | X-H torsion
[ 10035 10015 10014 10011 ] final   12.32 input   59.98 | X-H torsion
[ 18230 18208 18207 18204 ] final   -3.35 input   59.98 | X-H torsion
[ 18170 18128 18129 18130 ] final  122.07 input   43.95 | X-H torsion
[ 17239 17211 17212 17213 ] final    4.61 input   53.98 | X-H torsion
[ 10077 10062 10063 10064 ] final  157.20 input   19.45 | X-H torsion
[ 16922 16880 16879 16877 ] final -142.49 input   60.00 | X-H torsion
[ 11366 11344 11343 11340 ] final -102.19 input   59.97 | X-H torsion
[ 11421 11386 11387 11388 ] final   68.28 input   51.38 | X-H torsion
[ 17293 17257 17258 17259 ] final  -74.94 input   68.80 | X-H torsion
[ 17355 17313 17314 17315 ] final -124.59 input   88.03 | X-H torsion
[ 18704 18669 18670 18671 ] final -144.62 input   94.89 | X-H torsion
[ 22365 22344 22345 22346 ] final   12.32 input   53.30 | X-H torsion
[ 27272 17055 17054 17053 ] final -124.10 input    0.00 | X-H torsion
[ 27276 18131 18130 18129 ] final -148.24 input    0.00 | X-H torsion
[ 27279 18248 18247 18246 ] final   51.55 input   -0.00 | X-H torsion
[ 27282 18286 18285 18284 ] final   92.41 input    0.00 | X-H torsion
[ 27285 18380 18379 18378 ] final -128.61 input   -0.00 | X-H torsion
[ 27290 18460 18459 18458 ] final  -83.63 input    0.00 | X-H torsion
[ 27304 18206 18205 18204 ] final  128.79 input    0.00 | X-H torsion
[ 27306 16948 16947 16946 ] final  172.22 input   -0.00 | X-H torsion
[ 27311 16980 16979 16978 ] final  -37.22 input    0.00 | X-H torsion
[ 27315 17109 17108 17107 ] final  -21.87 input    0.00 | X-H torsion
[ 27317 17151 17150 17149 ] final  109.53 input    0.00 | X-H torsion
[ 27322 10065 10064 10063 ] final   82.64 input    0.00 | X-H torsion
[ 27324 11342 11341 11340 ] final  -37.35 input    0.00 | X-H torsion
[ 27340 7243 7242 7241 ] final  -20.73 input   -0.00 | X-H torsion
[ 27344 17260 17259 17258 ] final   38.34 input    0.00 | X-H torsion

> <Gold.Protein.ActiveResidues>
 MET341  HIS342  TRP414  ARG419  CYS420  VAL421  GLY422  LEU429  LEU460  SER462 
 ALA463  ILE464  SER482  GLN483  ARG486  TYR567  GLY568  LEU569  PRO570  ALA571 
 VAL572  SER573  ASN574  MET575  PRO588  PHE589  SER590  GLY591  TRP592  TYR593 
 MET594  GLY595  GLU597  ILE598  ARG601  ASP602  ARG608  ILE653  VAL654  TRP683 
 PHE709  TYR711  HEM801  H4B802 

> <Gold.Protein.RotatedAtoms>
  265.1902  321.0331  -60.1618 H   0  0  0  0  0  0  0  0  0  0  0  0  # atno 7420 bound_to 7372
  267.6927  320.5935  -58.7425 H   0  0  0  0  0  0  0  0  0  0  0  0  # atno 7454 bound_to 7433
  267.5547  310.1941  -56.4197 H   0  0  0  0  0  0  0  0  0  0  0  0  # atno 10035 bound_to 10015
  266.3230  306.7855  -58.2114 H   0  0  0  0  0  0  0  0  0  0  0  0  # atno 10077 bound_to 10062
  249.0161  312.8913  -63.3521 H   0  0  0  0  0  0  0  0  0  0  0  0  # atno 11366 bound_to 11344
  251.2718  310.9002  -61.9315 H   0  0  0  0  0  0  0  0  0  0  0  0  # atno 11421 bound_to 11386
  251.7041  313.9566  -55.6567 H   0  0  0  0  0  0  0  0  0  0  0  0  # atno 16922 bound_to 16880
  256.8919  310.3375  -57.7313 H   0  0  0  0  0  0  0  0  0  0  0  0  # atno 17130 bound_to 17106
  257.9870  309.8561  -61.4487 H   0  0  0  0  0  0  0  0  0  0  0  0  # atno 17186 bound_to 17148
  255.6116  310.8311  -64.6629 H   0  0  0  0  0  0  0  0  0  0  0  0  # atno 17239 bound_to 17211
  255.5612  309.5297  -66.8199 H   0  0  0  0  0  0  0  0  0  0  0  0  # atno 17293 bound_to 17257
  255.5574  311.6484  -68.8083 H   0  0  0  0  0  0  0  0  0  0  0  0  # atno 17355 bound_to 17313
  260.4733  308.2787  -64.4585 H   0  0  0  0  0  0  0  0  0  0  0  0  # atno 18170 bound_to 18128
  261.5121  308.7563  -61.1990 H   0  0  0  0  0  0  0  0  0  0  0  0  # atno 18226 bound_to 18203
  262.9699  307.2665  -58.8096 H   0  0  0  0  0  0  0  0  0  0  0  0  # atno 18230 bound_to 18208
  262.0110  311.2768  -57.5801 H   0  0  0  0  0  0  0  0  0  0  0  0  # atno 18260 bound_to 18245
  264.4573  312.1143  -54.7673 H   0  0  0  0  0  0  0  0  0  0  0  0  # atno 18335 bound_to 18283
  261.5412  314.1465  -53.5130 H   0  0  0  0  0  0  0  0  0  0  0  0  # atno 18422 bound_to 18377
  254.2419  315.2805  -54.7022 H   0  0  0  0  0  0  0  0  0  0  0  0  # atno 18430 bound_to 18388
  261.6885  318.2539  -53.9996 H   0  0  0  0  0  0  0  0  0  0  0  0  # atno 18490 bound_to 18457
  260.6237  320.0136  -51.3137 H   0  0  0  0  0  0  0  0  0  0  0  0  # atno 18536 bound_to 18521
  257.7066  322.8786  -53.4052 H   0  0  0  0  0  0  0  0  0  0  0  0  # atno 18643 bound_to 18610
  255.6436  319.8603  -53.1630 H   0  0  0  0  0  0  0  0  0  0  0  0  # atno 18704 bound_to 18669
  263.3185  317.9871  -49.3003 H   0  0  0  0  0  0  0  0  0  0  0  0  # atno 22365 bound_to 22344
  260.1570  311.2672  -58.5599 LP  0  0  0  0  0  0  0  0  0  0  0  0  # atno 27272 bound_to 17055
  260.3036  310.5553  -56.9877 LP  0  0  0  0  0  0  0  0  0  0  0  0  # atno 27273 bound_to 17055
  258.0959  311.4844  -58.2786 LP  0  0  0  0  0  0  0  0  0  0  0  0  # atno 27274 bound_to 17106
  258.1496  311.5062  -60.8947 LP  0  0  0  0  0  0  0  0  0  0  0  0  # atno 27275 bound_to 17148
  260.2718  310.3968  -60.8351 LP  0  0  0  0  0  0  0  0  0  0  0  0  # atno 27276 bound_to 18131
  259.5384  309.2920  -61.9494 LP  0  0  0  0  0  0  0  0  0  0  0  0  # atno 27277 bound_to 18131
  263.0325  309.9981  -58.1871 LP  0  0  0  0  0  0  0  0  0  0  0  0  # atno 27278 bound_to 18245
  263.4199  309.5747  -54.6503 LP  0  0  0  0  0  0  0  0  0  0  0  0  # atno 27279 bound_to 18248
  262.0428  310.5585  -54.2820 LP  0  0  0  0  0  0  0  0  0  0  0  0  # atno 27280 bound_to 18248
  263.1381  312.8514  -55.6480 LP  0  0  0  0  0  0  0  0  0  0  0  0  # atno 27281 bound_to 18283
  262.4140  315.2530  -55.3628 LP  0  0  0  0  0  0  0  0  0  0  0  0  # atno 27282 bound_to 18286
  263.7250  315.6949  -54.3208 LP  0  0  0  0  0  0  0  0  0  0  0  0  # atno 27283 bound_to 18286
  262.0465  314.5113  -51.8796 LP  0  0  0  0  0  0  0  0  0  0  0  0  # atno 27284 bound_to 18377
  262.4279  317.7646  -50.5566 LP  0  0  0  0  0  0  0  0  0  0  0  0  # atno 27285 bound_to 18380
  263.1262  316.3353  -51.2419 LP  0  0  0  0  0  0  0  0  0  0  0  0  # atno 27286 bound_to 18380
  254.6077  313.7110  -54.4761 LP  0  0  0  0  0  0  0  0  0  0  0  0  # atno 27287 bound_to 18388
  255.1311  314.4900  -55.8125 LP  0  0  0  0  0  0  0  0  0  0  0  0  # atno 27288 bound_to 18388
  261.4453  317.5353  -52.4253 LP  0  0  0  0  0  0  0  0  0  0  0  0  # atno 27289 bound_to 18457
  259.1572  320.5218  -52.9252 LP  0  0  0  0  0  0  0  0  0  0  0  0  # atno 27290 bound_to 18460
  258.9504  319.0510  -52.0342 LP  0  0  0  0  0  0  0  0  0  0  0  0  # atno 27291 bound_to 18460
  257.8479  321.4042  -52.4865 LP  0  0  0  0  0  0  0  0  0  0  0  0  # atno 27292 bound_to 18610
  266.3250  321.2795  -61.4667 LP  0  0  0  0  0  0  0  0  0  0  0  0  # atno 27301 bound_to 7372
  266.7737  319.3725  -59.5884 LP  0  0  0  0  0  0  0  0  0  0  0  0  # atno 27302 bound_to 7433
  263.1794  308.6047  -60.6975 LP  0  0  0  0  0  0  0  0  0  0  0  0  # atno 27303 bound_to 18203
  264.9628  309.9870  -58.9691 LP  0  0  0  0  0  0  0  0  0  0  0  0  # atno 27304 bound_to 18206
  264.3818  308.3755  -58.7126 LP  0  0  0  0  0  0  0  0  0  0  0  0  # atno 27305 bound_to 18206
  259.5997  310.9029  -52.1452 LP  0  0  0  0  0  0  0  0  0  0  0  0  # atno 27306 bound_to 16948
  259.3870  311.5488  -50.5522 LP  0  0  0  0  0  0  0  0  0  0  0  0  # atno 27307 bound_to 16948
  261.5454  320.9948  -50.2033 LP  0  0  0  0  0  0  0  0  0  0  0  0  # atno 27308 bound_to 18521
  267.5399  311.1018  -57.7701 LP  0  0  0  0  0  0  0  0  0  0  0  0  # atno 27309 bound_to 10015
  268.9593  310.6849  -57.0785 LP  0  0  0  0  0  0  0  0  0  0  0  0  # atno 27310 bound_to 10015
  256.3828  308.8369  -55.1730 LP  0  0  0  0  0  0  0  0  0  0  0  0  # atno 27311 bound_to 16980
  255.9662  310.4986  -55.4286 LP  0  0  0  0  0  0  0  0  0  0  0  0  # atno 27312 bound_to 16980
  261.7409  306.2160  -58.6225 LP  0  0  0  0  0  0  0  0  0  0  0  0  # atno 27313 bound_to 18208
  262.4427  306.8971  -57.3148 LP  0  0  0  0  0  0  0  0  0  0  0  0  # atno 27314 bound_to 18208
  255.7454  308.8499  -60.4134 LP  0  0  0  0  0  0  0  0  0  0  0  0  # atno 27315 bound_to 17109
  255.4428  310.1601  -61.5051 LP  0  0  0  0  0  0  0  0  0  0  0  0  # atno 27316 bound_to 17109
  258.2703  308.6084  -63.8112 LP  0  0  0  0  0  0  0  0  0  0  0  0  # atno 27317 bound_to 17151
  258.8522  309.9921  -64.6752 LP  0  0  0  0  0  0  0  0  0  0  0  0  # atno 27318 bound_to 17151
  259.8794  307.3489  -63.0982 LP  0  0  0  0  0  0  0  0  0  0  0  0  # atno 27319 bound_to 18128
  256.3734  309.8382  -63.4447 LP  0  0  0  0  0  0  0  0  0  0  0  0  # atno 27320 bound_to 17211
  265.8962  307.7512  -59.5971 LP  0  0  0  0  0  0  0  0  0  0  0  0  # atno 27321 bound_to 10062
  264.3916  307.7772  -61.2982 LP  0  0  0  0  0  0  0  0  0  0  0  0  # atno 27322 bound_to 10065
  263.2059  306.5692  -60.9309 LP  0  0  0  0  0  0  0  0  0  0  0  0  # atno 27323 bound_to 10065
  253.9461  311.1031  -64.7807 LP  0  0  0  0  0  0  0  0  0  0  0  0  # atno 27324 bound_to 11342
  254.3110  311.7274  -63.2069 LP  0  0  0  0  0  0  0  0  0  0  0  0  # atno 27325 bound_to 11342
  251.9824  312.7074  -56.6617 LP  0  0  0  0  0  0  0  0  0  0  0  0  # atno 27326 bound_to 16880
  253.2220  313.6389  -56.1497 LP  0  0  0  0  0  0  0  0  0  0  0  0  # atno 27327 bound_to 16880
  250.1900  313.8358  -62.7368 LP  0  0  0  0  0  0  0  0  0  0  0  0  # atno 27335 bound_to 11344
  250.2240  312.2218  -62.4909 LP  0  0  0  0  0  0  0  0  0  0  0  0  # atno 27336 bound_to 11344
  252.3982  310.7739  -63.2659 LP  0  0  0  0  0  0  0  0  0  0  0  0  # atno 27337 bound_to 11386
  263.0348  323.2388  -63.0398 LP  0  0  0  0  0  0  0  0  0  0  0  0  # atno 27340 bound_to 7243
  263.4165  321.7383  -62.2634 LP  0  0  0  0  0  0  0  0  0  0  0  0  # atno 27341 bound_to 7243
  254.7324  310.8925  -66.1129 LP  0  0  0  0  0  0  0  0  0  0  0  0  # atno 27343 bound_to 17257
  253.8927  312.0401  -70.3511 LP  0  0  0  0  0  0  0  0  0  0  0  0  # atno 27344 bound_to 17260
  255.3448  311.4945  -71.1216 LP  0  0  0  0  0  0  0  0  0  0  0  0  # atno 27345 bound_to 17260
  256.8652  310.6101  -68.3145 LP  0  0  0  0  0  0  0  0  0  0  0  0  # atno 27346 bound_to 17313

> <Gold.Score>
     Fitness  S(hb_ext) S(vdw_ext)  S(hb_int)    S(int)      intcor
     54.80       1.09      39.85       0.00      -1.08      -0.76

> <Gold.Goldscore.Fitness>
54.7998

> <Gold.Goldscore.Internal.Vdw>
-1.1709

> <Gold.Goldscore.Internal.Torsion>
-0.6694

> <Gold.Goldscore.External.Vdw>
39.8494

> <Gold.Goldscore.Internal.HBond>
0.0000

> <Gold.Goldscore.External.HBond>
1.0866

> <Gold.Goldscore.Internal.Correction>
-0.7607

> <Gold.Goldscore.Hbonds>
donor molecule, donor type, donor heavy atom, donor atom, acceptor molecule, acceptor atom, score
      L1  H     8    22       P1 17106  0.18

> <Gold.Goldscore.Internal.Vdw.Weighted>
-1.1709

> <Gold.Goldscore.Internal.Torsion.Weighted>
-0.6694

> <Gold.Goldscore.External.Vdw.Weighted>
54.7929

> <Gold.Goldscore.Internal.HBond.Weighted>
0.0000

> <Gold.Goldscore.External.HBond.Weighted>
1.0866

> <Gold.Goldscore.Internal.Correction.Weighted>
-0.7607

> <Gold.Rescore>
     Score     S(PLP)   S(hbond)     S(cho)   S(metal)  DE(clash)   DE(tors)     intcor
     48.65     -44.31       0.17       0.00       1.00       0.53       0.82       ----

> <Gold.PLP.Fitness>
48.6462

> <Gold.PLP.PLP>
-44.3121

> <Gold.PLP.part.hbond>
-2.9961

> <Gold.PLP.part.metal>
-1.0000

> <Gold.PLP.part.buried>
13.1588

> <Gold.PLP.part.nonpolar>
-61.6099

> <Gold.PLP.part.repulsive>
6.4418

> <Gold.PLP.ligand.clash>
0.5333

> <Gold.PLP.ligand.torsion>
0.8237

> <Gold.PLP.Chemscore.Hbond>
0.1716

> <Gold.PLP.Chemscore.CHOScore>
0.0000

> <Gold.PLP.Chemscore.Metal>
1.0000

> <Gold.Chemscore.Hbonds>
donor molecule, donor type, donor heavy atom, donor atom, acceptor molecule, acceptor atom, score
      P1  M 26883 26883       L1    11  1.00

> <Gold.PLP.Chemscore.Internal.Correction>
   9.000000E+99

