#       Name:                CT1002167954
#       Creating user name   hitesit
#       Creation time:       Sun Apr 16 02:28:05 2023


#       File generated by GOLD software.
#

@<TRIPOS>MOLECULE
CT1002167954|ligand_prepared|mol2|1|dock1
    29    30     1
SMALL
NO_CHARGES


@<TRIPOS>ATOM
      1 C1         259.7168 315.8216 -59.4467 C.3            1 RES1               0.0000
      2 C2         258.2504 315.9591 -58.9890 C.ar           1 RES1               0.0000
      3 C3         260.5276 316.7814 -58.5809 C.2            1 RES1               0.0000
      4 C4         260.0857 314.3538 -59.2614 C.2            1 RES1               0.0000
      5 C5         259.9448 316.1877 -60.9318 C.3            1 RES1               0.0000
      6 C6         257.5962 314.8941 -58.3770 C.ar           1 RES1               0.0000
      7 C7         257.5408 317.1434 -59.1692 C.ar           1 RES1               0.0000
      8 N8         261.3101 316.2424 -57.6025 N.am           1 RES1               0.0000
      9 O9         260.4512 317.9949 -58.7285 O.2            1 RES1               0.0000
     10 N10        261.0400 314.0445 -58.3280 N.am           1 RES1               0.0000
     11 O11        259.5466 313.4609 -59.9036 O.2            1 RES1               0.0000
     12 C12        261.2282 315.6166 -61.5140 C.3            1 RES1               0.0000
     13 C13        256.2813 315.0097 -57.9577 C.ar           1 RES1               0.0000
     14 C14        256.2257 317.2568 -58.7494 C.ar           1 RES1               0.0000
     15 C15        261.6468 314.9194 -57.4685 C.2            1 RES1               0.0000
     16 C16        255.5953 316.1911 -58.1431 C.ar           1 RES1               0.0000
     17 O17        262.4558 314.5575 -56.6190 O.2            1 RES1               0.0000
     18 H18        259.0955 315.8197 -61.5205 H              1 RES1               0.0000
     19 H19        259.9699 317.2804 -61.0262 H              1 RES1               0.0000
     20 H20        258.1191 313.9557 -58.2248 H              1 RES1               0.0000
     21 H21        258.0162 317.9946 -59.6448 H              1 RES1               0.0000
     22 H22        261.6788 316.8821 -56.9061 H              1 RES1               0.0000
     23 H23        261.3245 313.0719 -58.2683 H              1 RES1               0.0000
     24 H24        261.3393 315.9033 -62.5576 H              1 RES1               0.0000
     25 H25        262.0955 315.9819 -60.9680 H              1 RES1               0.0000
     26 H26        261.2263 314.5299 -61.4594 H              1 RES1               0.0000
     27 H27        255.7892 314.1675 -57.4823 H              1 RES1               0.0000
     28 H28        255.6896 318.1883 -58.8979 H              1 RES1               0.0000
     29 H29        254.5654 316.2815 -57.8142 H              1 RES1               0.0000
@<TRIPOS>BOND
    1    1    2 1     
    2    1    3 1     
    3    1    4 1     
    4    1    5 1     
    5    2    6 ar    
    6    2    7 ar    
    7    3    8 1     
    8    3    9 2     
    9    4   10 1     
   10    4   11 2     
   11    5   12 1     
   12    5   18 1     
   13    5   19 1     
   14    6   13 ar    
   15    6   20 1     
   16    7   14 ar    
   17    7   21 1     
   18    8   15 1     
   19    8   22 1     
   20   10   15 1     
   21   10   23 1     
   22   12   24 1     
   23   12   25 1     
   24   12   26 1     
   25   13   16 ar    
   26   13   27 1     
   27   14   16 ar    
   28   14   28 1     
   29   15   17 2     
   30   16   29 1     
@<TRIPOS>SUBSTRUCTURE
      1 RES1           1
@<TRIPOS>SET
DONOR_HYDROGENS      STATIC     ATOMS    <user>   **** ""
2 22 23
ATOM$RED        STATIC     ATOMS    COLORGROUP SYSTEM
2 22 23
@<TRIPOS>COMMENT
> <Gold.Version>
2022.3.0

> <Gold.Id.Protein>
unknown|7ts3_clean|pdb

> <Gold.Protein.RotatedTorsions>
[ 17130 17106 17107 17108 ] final   48.41 input   41.13 | X-H torsion
[ 17186 17148 17149 17150 ] final   30.02 input  103.89 | X-H torsion
[ 18260 18245 18246 18247 ] final  138.26 input   44.49 | X-H torsion
[ 18335 18283 18284 18285 ] final  155.06 input   36.74 | X-H torsion
[ 18422 18377 18378 18379 ] final -153.77 input  100.26 | X-H torsion
[ 18430 18388 18387 18385 ] final  134.08 input   60.03 | X-H torsion
[ 18490 18457 18458 18459 ] final -138.22 input   96.11 | X-H torsion
[ 18643 18610 18611 18612 ] final -136.99 input  123.23 | X-H torsion
[ 7420 7372 7373 7374 ] final   10.01 input   96.91 | X-H torsion
[ 7454 7433 7434 7435 ] final   83.84 input   88.26 | X-H torsion
[ 18226 18203 18204 18205 ] final  -29.25 input   35.17 | X-H torsion
[ 18536 18521 18522 18523 ] final   28.34 input  122.93 | X-H torsion
[ 10035 10015 10014 10011 ] final -101.84 input   59.98 | X-H torsion
[ 18230 18208 18207 18204 ] final -151.58 input   59.98 | X-H torsion
[ 18170 18128 18129 18130 ] final -156.31 input   43.95 | X-H torsion
[ 17239 17211 17212 17213 ] final   54.56 input   53.98 | X-H torsion
[ 10077 10062 10063 10064 ] final  -62.31 input   19.45 | X-H torsion
[ 16922 16880 16879 16877 ] final  -18.27 input   60.00 | X-H torsion
[ 11366 11344 11343 11340 ] final  177.35 input   59.97 | X-H torsion
[ 11421 11386 11387 11388 ] final  140.05 input   51.38 | X-H torsion
[ 17293 17257 17258 17259 ] final  -40.46 input   68.80 | X-H torsion
[ 17355 17313 17314 17315 ] final   34.98 input   88.03 | X-H torsion
[ 18704 18669 18670 18671 ] final  -87.43 input   94.89 | X-H torsion
[ 22365 22344 22345 22346 ] final  127.44 input   53.30 | X-H torsion
[ 27272 17055 17054 17053 ] final   49.95 input    0.00 | X-H torsion
[ 27276 18131 18130 18129 ] final   45.35 input    0.00 | X-H torsion
[ 27279 18248 18247 18246 ] final -161.15 input   -0.00 | X-H torsion
[ 27282 18286 18285 18284 ] final   99.24 input    0.00 | X-H torsion
[ 27285 18380 18379 18378 ] final -135.91 input   -0.00 | X-H torsion
[ 27290 18460 18459 18458 ] final  126.80 input    0.00 | X-H torsion
[ 27304 18206 18205 18204 ] final   31.92 input    0.00 | X-H torsion
[ 27306 16948 16947 16946 ] final  115.38 input   -0.00 | X-H torsion
[ 27311 16980 16979 16978 ] final  -53.07 input    0.00 | X-H torsion
[ 27315 17109 17108 17107 ] final -166.37 input    0.00 | X-H torsion
[ 27317 17151 17150 17149 ] final -131.14 input    0.00 | X-H torsion
[ 27322 10065 10064 10063 ] final -102.47 input    0.00 | X-H torsion
[ 27324 11342 11341 11340 ] final -166.80 input    0.00 | X-H torsion
[ 27340 7243 7242 7241 ] final   70.36 input   -0.00 | X-H torsion
[ 27344 17260 17259 17258 ] final -138.22 input    0.00 | X-H torsion

> <Gold.Protein.ActiveResidues>
 MET341  HIS342  TRP414  ARG419  CYS420  VAL421  GLY422  LEU429  LEU460  SER462 
 ALA463  ILE464  SER482  GLN483  ARG486  TYR567  GLY568  LEU569  PRO570  ALA571 
 VAL572  SER573  ASN574  MET575  PRO588  PHE589  SER590  GLY591  TRP592  TYR593 
 MET594  GLY595  GLU597  ILE598  ARG601  ASP602  ARG608  ILE653  VAL654  TRP683 
 PHE709  TYR711  HEM801  H4B802 

> <Gold.Protein.RotatedAtoms>
  265.9281  320.3584  -60.4843 H   0  0  0  0  0  0  0  0  0  0  0  0  # atno 7420 bound_to 7372
  266.7291  319.3630  -59.5595 H   0  0  0  0  0  0  0  0  0  0  0  0  # atno 7454 bound_to 7433
  267.4638  311.0661  -57.7238 H   0  0  0  0  0  0  0  0  0  0  0  0  # atno 10035 bound_to 10015
  266.4821  307.6950  -59.5707 H   0  0  0  0  0  0  0  0  0  0  0  0  # atno 10077 bound_to 10062
  249.6585  313.8803  -63.0826 H   0  0  0  0  0  0  0  0  0  0  0  0  # atno 11366 bound_to 11344
  251.9319  311.6446  -62.2475 H   0  0  0  0  0  0  0  0  0  0  0  0  # atno 11421 bound_to 11386
  253.2253  313.5827  -56.1903 H   0  0  0  0  0  0  0  0  0  0  0  0  # atno 16922 bound_to 16880
  256.6437  310.7955  -58.2003 H   0  0  0  0  0  0  0  0  0  0  0  0  # atno 17130 bound_to 17106
  258.5448  310.1186  -61.6468 H   0  0  0  0  0  0  0  0  0  0  0  0  # atno 17186 bound_to 17148
  255.1489  310.5503  -64.1518 H   0  0  0  0  0  0  0  0  0  0  0  0  # atno 17239 bound_to 17211
  255.8695  309.9450  -66.8783 H   0  0  0  0  0  0  0  0  0  0  0  0  # atno 17293 bound_to 17257
  256.7286  310.4272  -68.5240 H   0  0  0  0  0  0  0  0  0  0  0  0  # atno 17355 bound_to 17313
  260.6213  307.1564  -64.1801 H   0  0  0  0  0  0  0  0  0  0  0  0  # atno 18170 bound_to 18128
  262.9985  309.2859  -60.9654 H   0  0  0  0  0  0  0  0  0  0  0  0  # atno 18226 bound_to 18203
  261.6751  306.1895  -58.1697 H   0  0  0  0  0  0  0  0  0  0  0  0  # atno 18230 bound_to 18208
  262.8019  311.1837  -58.5144 H   0  0  0  0  0  0  0  0  0  0  0  0  # atno 18260 bound_to 18245
  264.2677  311.8706  -54.7948 H   0  0  0  0  0  0  0  0  0  0  0  0  # atno 18335 bound_to 18283
  261.3004  314.0318  -53.3547 H   0  0  0  0  0  0  0  0  0  0  0  0  # atno 18422 bound_to 18377
  254.3773  315.3885  -54.9965 H   0  0  0  0  0  0  0  0  0  0  0  0  # atno 18430 bound_to 18388
  262.3595  317.6200  -52.9238 H   0  0  0  0  0  0  0  0  0  0  0  0  # atno 18490 bound_to 18457
  260.9619  321.2828  -51.1505 H   0  0  0  0  0  0  0  0  0  0  0  0  # atno 18536 bound_to 18521
  257.9755  322.7401  -53.5475 H   0  0  0  0  0  0  0  0  0  0  0  0  # atno 18643 bound_to 18610
  255.3135  320.6367  -53.2493 H   0  0  0  0  0  0  0  0  0  0  0  0  # atno 18704 bound_to 18669
  264.3803  317.0827  -49.8418 H   0  0  0  0  0  0  0  0  0  0  0  0  # atno 22365 bound_to 22344
  260.3170  310.6386  -56.9564 LP  0  0  0  0  0  0  0  0  0  0  0  0  # atno 27272 bound_to 17055
  260.1436  311.1839  -58.5912 LP  0  0  0  0  0  0  0  0  0  0  0  0  # atno 27273 bound_to 17055
  258.3358  311.0417  -57.8253 LP  0  0  0  0  0  0  0  0  0  0  0  0  # atno 27274 bound_to 17106
  257.6055  311.2501  -60.7015 LP  0  0  0  0  0  0  0  0  0  0  0  0  # atno 27275 bound_to 17148
  259.4906  309.1895  -61.7786 LP  0  0  0  0  0  0  0  0  0  0  0  0  # atno 27276 bound_to 18131
  260.3196  310.4993  -61.0059 LP  0  0  0  0  0  0  0  0  0  0  0  0  # atno 27277 bound_to 18131
  262.2552  310.0896  -57.2690 LP  0  0  0  0  0  0  0  0  0  0  0  0  # atno 27278 bound_to 18245
  262.3578  310.6205  -53.9151 LP  0  0  0  0  0  0  0  0  0  0  0  0  # atno 27279 bound_to 18248
  263.1049  309.5128  -55.0172 LP  0  0  0  0  0  0  0  0  0  0  0  0  # atno 27280 bound_to 18248
  263.3222  313.0881  -55.6212 LP  0  0  0  0  0  0  0  0  0  0  0  0  # atno 27281 bound_to 18283
  262.3619  315.3311  -55.3202 LP  0  0  0  0  0  0  0  0  0  0  0  0  # atno 27282 bound_to 18286
  263.7771  315.6168  -54.3634 LP  0  0  0  0  0  0  0  0  0  0  0  0  # atno 27283 bound_to 18286
  262.2814  314.6231  -52.0340 LP  0  0  0  0  0  0  0  0  0  0  0  0  # atno 27284 bound_to 18377
  262.5077  317.8200  -50.6086 LP  0  0  0  0  0  0  0  0  0  0  0  0  # atno 27285 bound_to 18380
  263.0464  316.2799  -51.1898 LP  0  0  0  0  0  0  0  0  0  0  0  0  # atno 27286 bound_to 18380
  254.4260  313.9279  -54.2806 LP  0  0  0  0  0  0  0  0  0  0  0  0  # atno 27287 bound_to 18388
  255.1763  314.1644  -55.7116 LP  0  0  0  0  0  0  0  0  0  0  0  0  # atno 27288 bound_to 18388
  260.7899  318.1544  -53.4760 LP  0  0  0  0  0  0  0  0  0  0  0  0  # atno 27289 bound_to 18457
  258.7616  319.3743  -51.7763 LP  0  0  0  0  0  0  0  0  0  0  0  0  # atno 27290 bound_to 18460
  259.3460  320.1986  -53.1831 LP  0  0  0  0  0  0  0  0  0  0  0  0  # atno 27291 bound_to 18460
  257.5808  321.5417  -52.3452 LP  0  0  0  0  0  0  0  0  0  0  0  0  # atno 27292 bound_to 18610
  265.6028  321.9398  -61.1510 LP  0  0  0  0  0  0  0  0  0  0  0  0  # atno 27301 bound_to 7372
  267.7180  320.5785  -58.7878 LP  0  0  0  0  0  0  0  0  0  0  0  0  # atno 27302 bound_to 7433
  261.7272  308.0873  -60.9257 LP  0  0  0  0  0  0  0  0  0  0  0  0  # atno 27303 bound_to 18203
  264.4174  309.0322  -59.6550 LP  0  0  0  0  0  0  0  0  0  0  0  0  # atno 27304 bound_to 18206
  264.9272  309.3303  -58.0267 LP  0  0  0  0  0  0  0  0  0  0  0  0  # atno 27305 bound_to 18206
  259.9245  310.4920  -51.5087 LP  0  0  0  0  0  0  0  0  0  0  0  0  # atno 27306 bound_to 16948
  259.0623  311.9598  -51.1888 LP  0  0  0  0  0  0  0  0  0  0  0  0  # atno 27307 bound_to 16948
  261.2124  319.7454  -50.3640 LP  0  0  0  0  0  0  0  0  0  0  0  0  # atno 27308 bound_to 18521
  268.9537  310.7381  -57.1580 LP  0  0  0  0  0  0  0  0  0  0  0  0  # atno 27309 bound_to 10015
  267.6371  310.1701  -56.3767 LP  0  0  0  0  0  0  0  0  0  0  0  0  # atno 27310 bound_to 10015
  256.4771  308.8613  -55.3910 LP  0  0  0  0  0  0  0  0  0  0  0  0  # atno 27311 bound_to 16980
  255.8718  310.4741  -55.2106 LP  0  0  0  0  0  0  0  0  0  0  0  0  # atno 27312 bound_to 16980
  262.7730  307.1719  -57.4780 LP  0  0  0  0  0  0  0  0  0  0  0  0  # atno 27313 bound_to 18208
  262.7138  307.0253  -59.1033 LP  0  0  0  0  0  0  0  0  0  0  0  0  # atno 27314 bound_to 18208
  255.6310  309.7556  -61.7874 LP  0  0  0  0  0  0  0  0  0  0  0  0  # atno 27315 bound_to 17109
  255.5572  309.2544  -60.1311 LP  0  0  0  0  0  0  0  0  0  0  0  0  # atno 27316 bound_to 17109
  258.3599  309.3932  -65.0803 LP  0  0  0  0  0  0  0  0  0  0  0  0  # atno 27317 bound_to 17151
  258.7625  309.2073  -63.4060 LP  0  0  0  0  0  0  0  0  0  0  0  0  # atno 27318 bound_to 17151
  259.7368  308.4304  -63.3665 LP  0  0  0  0  0  0  0  0  0  0  0  0  # atno 27319 bound_to 18128
  256.8273  310.1136  -63.9461 LP  0  0  0  0  0  0  0  0  0  0  0  0  # atno 27320 bound_to 17211
  265.7378  306.8459  -58.2440 LP  0  0  0  0  0  0  0  0  0  0  0  0  # atno 27321 bound_to 10062
  263.1944  306.5623  -61.0068 LP  0  0  0  0  0  0  0  0  0  0  0  0  # atno 27322 bound_to 10065
  264.4031  307.7841  -61.2222 LP  0  0  0  0  0  0  0  0  0  0  0  0  # atno 27323 bound_to 10065
  254.4116  310.9995  -63.2888 LP  0  0  0  0  0  0  0  0  0  0  0  0  # atno 27324 bound_to 11342
  253.8455  311.8311  -64.6988 LP  0  0  0  0  0  0  0  0  0  0  0  0  # atno 27325 bound_to 11342
  251.7538  313.9998  -55.6347 LP  0  0  0  0  0  0  0  0  0  0  0  0  # atno 27326 bound_to 16880
  251.9186  312.7230  -56.6393 LP  0  0  0  0  0  0  0  0  0  0  0  0  # atno 27327 bound_to 16880
  250.5626  312.7433  -62.3488 LP  0  0  0  0  0  0  0  0  0  0  0  0  # atno 27335 bound_to 11344
  249.2046  312.3188  -63.1501 LP  0  0  0  0  0  0  0  0  0  0  0  0  # atno 27336 bound_to 11344
  251.7605  310.0548  -62.9606 LP  0  0  0  0  0  0  0  0  0  0  0  0  # atno 27337 bound_to 11386
  262.5764  322.0908  -63.0641 LP  0  0  0  0  0  0  0  0  0  0  0  0  # atno 27340 bound_to 7243
  263.8749  322.8863  -62.2390 LP  0  0  0  0  0  0  0  0  0  0  0  0  # atno 27341 bound_to 7243
  254.4281  310.4827  -66.0553 LP  0  0  0  0  0  0  0  0  0  0  0  0  # atno 27343 bound_to 17257
  255.3221  311.4482  -71.1281 LP  0  0  0  0  0  0  0  0  0  0  0  0  # atno 27344 bound_to 17260
  253.9154  312.0863  -70.3445 LP  0  0  0  0  0  0  0  0  0  0  0  0  # atno 27345 bound_to 17260
  255.6970  311.8281  -68.5981 LP  0  0  0  0  0  0  0  0  0  0  0  0  # atno 27346 bound_to 17313

> <Gold.Score>
     Fitness  S(hb_ext) S(vdw_ext)  S(hb_int)    S(int)      intcor
     37.33       0.00      30.58       0.00      -4.72      -0.77

> <Gold.Goldscore.Fitness>
37.3319

> <Gold.Goldscore.Internal.Vdw>
-4.5343

> <Gold.Goldscore.Internal.Torsion>
-0.9493

> <Gold.Goldscore.External.Vdw>
30.5820

> <Gold.Goldscore.Internal.HBond>
0.0000

> <Gold.Goldscore.External.HBond>
0.0000

> <Gold.Goldscore.Internal.Correction>
-0.7653

> <Gold.Goldscore.Internal.Vdw.Weighted>
-4.5343

> <Gold.Goldscore.Internal.Torsion.Weighted>
-0.9493

> <Gold.Goldscore.External.Vdw.Weighted>
42.0502

> <Gold.Goldscore.Internal.HBond.Weighted>
0.0000

> <Gold.Goldscore.External.HBond.Weighted>
0.0000

> <Gold.Goldscore.Internal.Correction.Weighted>
-0.7653

> <Gold.Rescore>
     Score     S(PLP)   S(hbond)     S(cho)   S(metal)  DE(clash)   DE(tors)     intcor
     26.62     -27.72       0.64       0.00       0.00       0.00       1.51       ----

> <Gold.PLP.Fitness>
26.6213

> <Gold.PLP.PLP>
-27.7217

> <Gold.PLP.part.hbond>
-3.9843

> <Gold.PLP.part.metal>
0.0000

> <Gold.PLP.part.buried>
16.7138

> <Gold.PLP.part.nonpolar>
-43.4391

> <Gold.PLP.part.repulsive>
2.8206

> <Gold.PLP.ligand.clash>
0.0000

> <Gold.PLP.ligand.torsion>
1.5102

> <Gold.PLP.Chemscore.Hbond>
0.6400

> <Gold.PLP.Chemscore.CHOScore>
0.0000

> <Gold.PLP.Chemscore.Metal>
0.0000

> <Gold.PLP.Chemscore.Internal.Correction>
   9.000000E+99

