#       Name:                CT1002167954
#       Creating user name   hitesit
#       Creation time:       Sun Apr 16 02:28:10 2023


#       File generated by GOLD software.
#

@<TRIPOS>MOLECULE
CT1002167954|ligand_prepared|mol2|1|dock9
    29    30     1
SMALL
NO_CHARGES


@<TRIPOS>ATOM
      1 C1         254.0043 320.5098 -59.5356 C.3            1 RES1               0.0000
      2 C2         254.6613 319.1300 -59.7433 C.ar           1 RES1               0.0000
      3 C3         254.2368 320.8794 -58.0736 C.2            1 RES1               0.0000
      4 C4         254.6715 321.4539 -60.5297 C.2            1 RES1               0.0000
      5 C5         252.4825 320.5249 -59.8100 C.3            1 RES1               0.0000
      6 C6         254.4868 318.4343 -60.9359 C.ar           1 RES1               0.0000
      7 C7         255.4454 318.5421 -58.7542 C.ar           1 RES1               0.0000
      8 N8         255.1651 321.8418 -57.8051 N.am           1 RES1               0.0000
      9 O9         253.6433 320.3073 -57.1677 O.2            1 RES1               0.0000
     10 N10        255.4340 322.4774 -60.0307 N.am           1 RES1               0.0000
     11 O11        254.5574 321.3109 -61.7408 O.2            1 RES1               0.0000
     12 C12        251.8198 321.8616 -59.5166 C.3            1 RES1               0.0000
     13 C13        255.0772 317.1971 -61.1338 C.ar           1 RES1               0.0000
     14 C14        256.0347 317.3047 -58.9541 C.ar           1 RES1               0.0000
     15 C15        255.7361 322.6957 -58.7141 C.2            1 RES1               0.0000
     16 C16        255.8518 316.6317 -60.1434 C.ar           1 RES1               0.0000
     17 O17        256.4739 323.6058 -58.3474 O.2            1 RES1               0.0000
     18 H18        252.3110 320.2693 -60.8629 H              1 RES1               0.0000
     19 H19        252.0052 319.7518 -59.1953 H              1 RES1               0.0000
     20 H20        253.8786 318.8623 -61.7258 H              1 RES1               0.0000
     21 H21        255.6022 319.0528 -57.8102 H              1 RES1               0.0000
     22 H22        255.4624 321.9350 -56.8390 H              1 RES1               0.0000
     23 H23        255.8113 323.1377 -60.7030 H              1 RES1               0.0000
     24 H24        250.7530 321.8175 -59.7259 H              1 RES1               0.0000
     25 H25        251.9490 322.1351 -58.4715 H              1 RES1               0.0000
     26 H26        252.2530 322.6496 -60.1292 H              1 RES1               0.0000
     27 H27        254.9290 316.6710 -62.0711 H              1 RES1               0.0000
     28 H28        256.6430 316.8632 -58.1716 H              1 RES1               0.0000
     29 H29        256.3145 315.6627 -60.2989 H              1 RES1               0.0000
@<TRIPOS>BOND
    1    1    2 1     
    2    1    3 1     
    3    1    4 1     
    4    1    5 1     
    5    2    6 ar    
    6    2    7 ar    
    7    3    8 1     
    8    3    9 2     
    9    4   10 1     
   10    4   11 2     
   11    5   12 1     
   12    5   18 1     
   13    5   19 1     
   14    6   13 ar    
   15    6   20 1     
   16    7   14 ar    
   17    7   21 1     
   18    8   15 1     
   19    8   22 1     
   20   10   15 1     
   21   10   23 1     
   22   12   24 1     
   23   12   25 1     
   24   12   26 1     
   25   13   16 ar    
   26   13   27 1     
   27   14   16 ar    
   28   14   28 1     
   29   15   17 2     
   30   16   29 1     
@<TRIPOS>SUBSTRUCTURE
      1 RES1           1
@<TRIPOS>SET
DONOR_HYDROGENS      STATIC     ATOMS    <user>   **** ""
2 22 23
ATOM$RED        STATIC     ATOMS    COLORGROUP SYSTEM
2 22 23
@<TRIPOS>COMMENT
> <Gold.Version>
2022.3.0

> <Gold.Id.Protein>
unknown|7ts3_clean|pdb

> <Gold.Protein.RotatedTorsions>
[ 17130 17106 17107 17108 ] final  -26.87 input   41.13 | X-H torsion
[ 17186 17148 17149 17150 ] final  -69.99 input  103.89 | X-H torsion
[ 18260 18245 18246 18247 ] final  -61.79 input   44.49 | X-H torsion
[ 18335 18283 18284 18285 ] final  -13.42 input   36.74 | X-H torsion
[ 18422 18377 18378 18379 ] final   40.35 input  100.26 | X-H torsion
[ 18430 18388 18387 18385 ] final  132.10 input   60.03 | X-H torsion
[ 18490 18457 18458 18459 ] final  169.68 input   96.11 | X-H torsion
[ 18643 18610 18611 18612 ] final -170.38 input  123.23 | X-H torsion
[ 7420 7372 7373 7374 ] final  -92.43 input   96.91 | X-H torsion
[ 7454 7433 7434 7435 ] final  -68.88 input   88.26 | X-H torsion
[ 18226 18203 18204 18205 ] final   -8.01 input   35.17 | X-H torsion
[ 18536 18521 18522 18523 ] final -145.57 input  122.93 | X-H torsion
[ 10035 10015 10014 10011 ] final  -56.63 input   59.98 | X-H torsion
[ 18230 18208 18207 18204 ] final -145.24 input   59.98 | X-H torsion
[ 18170 18128 18129 18130 ] final  170.55 input   43.95 | X-H torsion
[ 17239 17211 17212 17213 ] final  -96.50 input   53.98 | X-H torsion
[ 10077 10062 10063 10064 ] final   26.32 input   19.45 | X-H torsion
[ 16922 16880 16879 16877 ] final  146.98 input   60.00 | X-H torsion
[ 11366 11344 11343 11340 ] final   69.66 input   59.97 | X-H torsion
[ 11421 11386 11387 11388 ] final  110.25 input   51.38 | X-H torsion
[ 17293 17257 17258 17259 ] final  -23.92 input   68.80 | X-H torsion
[ 17355 17313 17314 17315 ] final  -38.51 input   88.03 | X-H torsion
[ 18704 18669 18670 18671 ] final  -95.05 input   94.89 | X-H torsion
[ 22365 22344 22345 22346 ] final -133.81 input   53.30 | X-H torsion
[ 27272 17055 17054 17053 ] final -153.62 input    0.00 | X-H torsion
[ 27276 18131 18130 18129 ] final  117.76 input    0.00 | X-H torsion
[ 27279 18248 18247 18246 ] final  123.39 input   -0.00 | X-H torsion
[ 27282 18286 18285 18284 ] final  173.97 input    0.00 | X-H torsion
[ 27285 18380 18379 18378 ] final  -76.43 input   -0.00 | X-H torsion
[ 27290 18460 18459 18458 ] final  144.50 input    0.00 | X-H torsion
[ 27304 18206 18205 18204 ] final  -24.11 input    0.00 | X-H torsion
[ 27306 16948 16947 16946 ] final  -11.42 input   -0.00 | X-H torsion
[ 27311 16980 16979 16978 ] final  165.60 input    0.00 | X-H torsion
[ 27315 17109 17108 17107 ] final   15.22 input    0.00 | X-H torsion
[ 27317 17151 17150 17149 ] final  -11.70 input    0.00 | X-H torsion
[ 27322 10065 10064 10063 ] final    5.09 input    0.00 | X-H torsion
[ 27324 11342 11341 11340 ] final  154.34 input    0.00 | X-H torsion
[ 27340 7243 7242 7241 ] final  -52.48 input   -0.00 | X-H torsion
[ 27344 17260 17259 17258 ] final -163.65 input    0.00 | X-H torsion

> <Gold.Protein.ActiveResidues>
 MET341  HIS342  TRP414  ARG419  CYS420  VAL421  GLY422  LEU429  LEU460  SER462 
 ALA463  ILE464  SER482  GLN483  ARG486  TYR567  GLY568  LEU569  PRO570  ALA571 
 VAL572  SER573  ASN574  MET575  PRO588  PHE589  SER590  GLY591  TRP592  TYR593 
 MET594  GLY595  GLU597  ILE598  ARG601  ASP602  ARG608  ILE653  VAL654  TRP683 
 PHE709  TYR711  HEM801  H4B802 

> <Gold.Protein.RotatedAtoms>
  266.3648  321.2200  -61.4647 H   0  0  0  0  0  0  0  0  0  0  0  0  # atno 7420 bound_to 7372
  267.9433  320.4917  -59.1220 H   0  0  0  0  0  0  0  0  0  0  0  0  # atno 7454 bound_to 7433
  267.0916  310.7144  -57.2181 H   0  0  0  0  0  0  0  0  0  0  0  0  # atno 10035 bound_to 10015
  265.3337  307.5601  -59.1826 H   0  0  0  0  0  0  0  0  0  0  0  0  # atno 10077 bound_to 10062
  250.5969  312.9418  -62.3576 H   0  0  0  0  0  0  0  0  0  0  0  0  # atno 11366 bound_to 11344
  251.6045  311.4398  -62.0013 H   0  0  0  0  0  0  0  0  0  0  0  0  # atno 11421 bound_to 11386
  251.4324  313.1050  -56.2647 H   0  0  0  0  0  0  0  0  0  0  0  0  # atno 16922 bound_to 16880
  257.3135  311.5446  -58.6153 H   0  0  0  0  0  0  0  0  0  0  0  0  # atno 17130 bound_to 17106
  257.3630  310.1904  -60.9861 H   0  0  0  0  0  0  0  0  0  0  0  0  # atno 17186 bound_to 17148
  256.8393  310.3655  -64.3028 H   0  0  0  0  0  0  0  0  0  0  0  0  # atno 17239 bound_to 17211
  255.9308  310.1888  -66.8533 H   0  0  0  0  0  0  0  0  0  0  0  0  # atno 17293 bound_to 17257
  255.9256  310.5772  -69.1726 H   0  0  0  0  0  0  0  0  0  0  0  0  # atno 17355 bound_to 17313
  260.6754  307.5748  -64.4643 H   0  0  0  0  0  0  0  0  0  0  0  0  # atno 18170 bound_to 18128
  263.1589  309.0323  -60.8383 H   0  0  0  0  0  0  0  0  0  0  0  0  # atno 18226 bound_to 18203
  261.6757  306.1839  -58.2732 H   0  0  0  0  0  0  0  0  0  0  0  0  # atno 18230 bound_to 18208
  262.4440  309.8964  -57.4093 H   0  0  0  0  0  0  0  0  0  0  0  0  # atno 18260 bound_to 18245
  263.4384  313.2167  -55.5808 H   0  0  0  0  0  0  0  0  0  0  0  0  # atno 18335 bound_to 18283
  262.1264  314.5602  -51.8971 H   0  0  0  0  0  0  0  0  0  0  0  0  # atno 18422 bound_to 18377
  254.3626  315.3833  -54.9681 H   0  0  0  0  0  0  0  0  0  0  0  0  # atno 18430 bound_to 18388
  262.3408  317.9584  -53.6225 H   0  0  0  0  0  0  0  0  0  0  0  0  # atno 18490 bound_to 18457
  261.1662  319.6950  -50.4283 H   0  0  0  0  0  0  0  0  0  0  0  0  # atno 18536 bound_to 18521
  258.3176  322.3746  -53.5903 H   0  0  0  0  0  0  0  0  0  0  0  0  # atno 18643 bound_to 18610
  255.3332  320.5248  -53.2803 H   0  0  0  0  0  0  0  0  0  0  0  0  # atno 18704 bound_to 18669
  264.4873  317.0537  -48.5007 H   0  0  0  0  0  0  0  0  0  0  0  0  # atno 22365 bound_to 22344
  260.1011  310.8345  -58.6267 LP  0  0  0  0  0  0  0  0  0  0  0  0  # atno 27272 bound_to 17055
  260.3594  310.9879  -56.9209 LP  0  0  0  0  0  0  0  0  0  0  0  0  # atno 27273 bound_to 17055
  257.6884  310.3177  -57.4242 LP  0  0  0  0  0  0  0  0  0  0  0  0  # atno 27274 bound_to 17106
  258.7584  311.1801  -61.3460 LP  0  0  0  0  0  0  0  0  0  0  0  0  # atno 27275 bound_to 17148
  259.6328  309.3047  -60.7721 LP  0  0  0  0  0  0  0  0  0  0  0  0  # atno 27276 bound_to 18131
  260.1774  310.3840  -62.0125 LP  0  0  0  0  0  0  0  0  0  0  0  0  # atno 27277 bound_to 18131
  262.6069  311.3546  -58.3550 LP  0  0  0  0  0  0  0  0  0  0  0  0  # atno 27278 bound_to 18245
  263.3081  310.1594  -53.8268 LP  0  0  0  0  0  0  0  0  0  0  0  0  # atno 27279 bound_to 18248
  262.1546  309.9739  -55.1055 LP  0  0  0  0  0  0  0  0  0  0  0  0  # atno 27280 bound_to 18248
  264.1275  311.7808  -54.8580 LP  0  0  0  0  0  0  0  0  0  0  0  0  # atno 27281 bound_to 18283
  262.5011  316.0786  -54.5943 LP  0  0  0  0  0  0  0  0  0  0  0  0  # atno 27282 bound_to 18286
  263.6379  314.8692  -55.0893 LP  0  0  0  0  0  0  0  0  0  0  0  0  # atno 27283 bound_to 18286
  261.4758  314.1078  -53.4554 LP  0  0  0  0  0  0  0  0  0  0  0  0  # atno 27284 bound_to 18377
  262.0844  317.1073  -50.3825 LP  0  0  0  0  0  0  0  0  0  0  0  0  # atno 27285 bound_to 18380
  263.4696  316.9926  -51.4159 LP  0  0  0  0  0  0  0  0  0  0  0  0  # atno 27286 bound_to 18380
  254.4422  313.9037  -54.2953 LP  0  0  0  0  0  0  0  0  0  0  0  0  # atno 27287 bound_to 18388
  255.1750  314.1939  -55.7255 LP  0  0  0  0  0  0  0  0  0  0  0  0  # atno 27288 bound_to 18388
  260.8082  317.8239  -52.7936 LP  0  0  0  0  0  0  0  0  0  0  0  0  # atno 27289 bound_to 18457
  258.6863  319.6220  -51.7130 LP  0  0  0  0  0  0  0  0  0  0  0  0  # atno 27290 bound_to 18460
  259.4213  319.9508  -53.2465 LP  0  0  0  0  0  0  0  0  0  0  0  0  # atno 27291 bound_to 18460
  257.2411  321.9046  -52.3027 LP  0  0  0  0  0  0  0  0  0  0  0  0  # atno 27292 bound_to 18610
  265.1754  321.0965  -60.1914 LP  0  0  0  0  0  0  0  0  0  0  0  0  # atno 27301 bound_to 7372
  266.5281  319.4723  -59.2165 LP  0  0  0  0  0  0  0  0  0  0  0  0  # atno 27302 bound_to 7433
  261.5704  308.3351  -61.0500 LP  0  0  0  0  0  0  0  0  0  0  0  0  # atno 27303 bound_to 18203
  264.3127  308.4398  -59.1072 LP  0  0  0  0  0  0  0  0  0  0  0  0  # atno 27304 bound_to 18206
  265.0319  309.9227  -58.5745 LP  0  0  0  0  0  0  0  0  0  0  0  0  # atno 27305 bound_to 18206
  259.3590  311.5904  -50.5747 LP  0  0  0  0  0  0  0  0  0  0  0  0  # atno 27306 bound_to 16948
  259.6277  310.8614  -52.1227 LP  0  0  0  0  0  0  0  0  0  0  0  0  # atno 27307 bound_to 16948
  261.0113  321.3084  -51.0749 LP  0  0  0  0  0  0  0  0  0  0  0  0  # atno 27308 bound_to 18521
  268.6041  311.0839  -57.6907 LP  0  0  0  0  0  0  0  0  0  0  0  0  # atno 27309 bound_to 10015
  268.3616  310.1786  -56.3534 LP  0  0  0  0  0  0  0  0  0  0  0  0  # atno 27310 bound_to 10015
  256.1278  310.4233  -55.7214 LP  0  0  0  0  0  0  0  0  0  0  0  0  # atno 27311 bound_to 16980
  256.2212  308.9121  -54.8802 LP  0  0  0  0  0  0  0  0  0  0  0  0  # atno 27312 bound_to 16980
  262.7042  307.1159  -57.4232 LP  0  0  0  0  0  0  0  0  0  0  0  0  # atno 27313 bound_to 18208
  262.7819  307.0869  -59.0541 LP  0  0  0  0  0  0  0  0  0  0  0  0  # atno 27314 bound_to 18208
  255.5486  309.2762  -60.1253 LP  0  0  0  0  0  0  0  0  0  0  0  0  # atno 27315 bound_to 17109
  255.6397  309.7339  -61.7933 LP  0  0  0  0  0  0  0  0  0  0  0  0  # atno 27316 bound_to 17109
  259.0493  309.9003  -63.8536 LP  0  0  0  0  0  0  0  0  0  0  0  0  # atno 27317 bound_to 17151
  258.0732  308.7002  -64.6328 LP  0  0  0  0  0  0  0  0  0  0  0  0  # atno 27318 bound_to 17151
  259.6847  308.0272  -63.0926 LP  0  0  0  0  0  0  0  0  0  0  0  0  # atno 27319 bound_to 18128
  255.1688  310.2950  -63.7980 LP  0  0  0  0  0  0  0  0  0  0  0  0  # atno 27320 bound_to 17211
  266.8809  306.9802  -58.6304 LP  0  0  0  0  0  0  0  0  0  0  0  0  # atno 27321 bound_to 10062
  264.0786  307.4053  -60.3285 LP  0  0  0  0  0  0  0  0  0  0  0  0  # atno 27322 bound_to 10065
  263.5189  306.9411  -61.9005 LP  0  0  0  0  0  0  0  0  0  0  0  0  # atno 27323 bound_to 10065
  254.3511  311.5598  -63.1694 LP  0  0  0  0  0  0  0  0  0  0  0  0  # atno 27324 bound_to 11342
  253.9060  311.2708  -64.8182 LP  0  0  0  0  0  0  0  0  0  0  0  0  # atno 27325 bound_to 11342
  253.0238  313.0175  -56.5934 LP  0  0  0  0  0  0  0  0  0  0  0  0  # atno 27326 bound_to 16880
  252.4542  314.1864  -55.6056 LP  0  0  0  0  0  0  0  0  0  0  0  0  # atno 27327 bound_to 16880
  249.3301  312.1933  -63.0532 LP  0  0  0  0  0  0  0  0  0  0  0  0  # atno 27335 bound_to 11344
  249.4924  313.8136  -63.1756 LP  0  0  0  0  0  0  0  0  0  0  0  0  # atno 27336 bound_to 11344
  252.0768  310.2526  -63.1984 LP  0  0  0  0  0  0  0  0  0  0  0  0  # atno 27337 bound_to 11386
  263.4070  323.3283  -62.7606 LP  0  0  0  0  0  0  0  0  0  0  0  0  # atno 27340 bound_to 7243
  263.0443  321.6488  -62.5425 LP  0  0  0  0  0  0  0  0  0  0  0  0  # atno 27341 bound_to 7243
  254.3677  310.2421  -66.0800 LP  0  0  0  0  0  0  0  0  0  0  0  0  # atno 27343 bound_to 17257
  255.4257  311.8062  -71.0482 LP  0  0  0  0  0  0  0  0  0  0  0  0  # atno 27344 bound_to 17260
  253.8118  311.7283  -70.4244 LP  0  0  0  0  0  0  0  0  0  0  0  0  # atno 27345 bound_to 17260
  256.4979  311.6786  -67.9512 LP  0  0  0  0  0  0  0  0  0  0  0  0  # atno 27346 bound_to 17313

> <Gold.Score>
     Fitness  S(hb_ext) S(vdw_ext)  S(hb_int)    S(int)      intcor
     34.79       4.91      23.04       0.00      -1.80      -0.76

> <Gold.Goldscore.Fitness>
34.7912

> <Gold.Goldscore.Internal.Vdw>
-2.1607

> <Gold.Goldscore.Internal.Torsion>
-0.3929

> <Gold.Goldscore.External.Vdw>
23.0390

> <Gold.Goldscore.Internal.HBond>
0.0000

> <Gold.Goldscore.External.HBond>
4.9076

> <Gold.Goldscore.Internal.Correction>
-0.7585

> <Gold.Goldscore.Hbonds>
donor molecule, donor type, donor heavy atom, donor atom, acceptor molecule, acceptor atom, score
      P1  H 18849 18896       L1    17  0.01
      L1  H    10    23       P1 27126  0.81

> <Gold.Goldscore.Internal.Vdw.Weighted>
-2.1607

> <Gold.Goldscore.Internal.Torsion.Weighted>
-0.3929

> <Gold.Goldscore.External.Vdw.Weighted>
31.6786

> <Gold.Goldscore.Internal.HBond.Weighted>
0.0000

> <Gold.Goldscore.External.HBond.Weighted>
4.9076

> <Gold.Goldscore.Internal.Correction.Weighted>
-0.7585

> <Gold.Rescore>
     Score     S(PLP)   S(hbond)     S(cho)   S(metal)  DE(clash)   DE(tors)     intcor
     15.97     -13.31       1.37       0.00       0.00       1.27       0.08       ----

> <Gold.PLP.Fitness>
15.9710

> <Gold.PLP.PLP>
-13.3051

> <Gold.PLP.part.hbond>
-2.0066

> <Gold.PLP.part.metal>
0.0000

> <Gold.PLP.part.buried>
-0.4662

> <Gold.PLP.part.nonpolar>
-10.9155

> <Gold.PLP.part.repulsive>
1.4434

> <Gold.PLP.ligand.clash>
1.2736

> <Gold.PLP.ligand.torsion>
0.0801

> <Gold.PLP.Chemscore.Hbond>
1.3666

> <Gold.PLP.Chemscore.CHOScore>
0.0000

> <Gold.PLP.Chemscore.Metal>
0.0000

> <Gold.Chemscore.Hbonds>
donor molecule, donor type, donor heavy atom, donor atom, acceptor molecule, acceptor atom, score
      L1  H    10    23       P1 27126  0.80
      P1  H 18849 18896       L1    17  0.21

> <Gold.PLP.Chemscore.Internal.Correction>
   9.000000E+99

