#       Name:                CT1002167954
#       Creating user name   hitesit
#       Creation time:       Sun Apr 16 20:16:15 2023


#       File generated by GOLD software.
#

@<TRIPOS>MOLECULE
CT1002167954|ligand_prepared|mol2|1|dock1
    29    30     1
SMALL
NO_CHARGES


@<TRIPOS>ATOM
      1 C1          -9.4163  -8.0785  17.2065 C.3            1 RES1               0.0000
      2 C2          -9.0582  -9.3727  16.4478 C.ar           1 RES1               0.0000
      3 C3          -8.3796  -7.0383  16.7925 C.2            1 RES1               0.0000
      4 C4         -10.8443  -7.7286  16.8028 C.2            1 RES1               0.0000
      5 C5          -9.3773  -8.2253  18.7455 C.3            1 RES1               0.0000
      6 C6          -8.8114  -9.3461  15.0785 C.ar           1 RES1               0.0000
      7 C7          -8.9684 -10.5980  17.1029 C.ar           1 RES1               0.0000
      8 N8          -8.7800  -6.0517  15.9403 N.am           1 RES1               0.0000
      9 O9          -7.2184  -7.1054  17.1764 O.2            1 RES1               0.0000
     10 N10        -11.0451  -6.5790  16.0846 N.am           1 RES1               0.0000
     11 O11        -11.7955  -8.4466  17.0858 O.2            1 RES1               0.0000
     12 C12         -9.5647  -6.9136  19.4915 C.3            1 RES1               0.0000
     13 C13         -8.4837 -10.5021  14.3894 C.ar           1 RES1               0.0000
     14 C14         -8.6408 -11.7529  16.4119 C.ar           1 RES1               0.0000
     15 C15        -10.0741  -5.7406  15.6086 C.2            1 RES1               0.0000
     16 C16         -8.3978 -11.7060  15.0556 C.ar           1 RES1               0.0000
     17 O17        -10.3299  -4.7549  14.9230 O.2            1 RES1               0.0000
     18 H18        -10.1660  -8.9227  19.0538 H              1 RES1               0.0000
     19 H19         -8.4128  -8.6610  19.0343 H              1 RES1               0.0000
     20 H20         -8.8767  -8.4084  14.5369 H              1 RES1               0.0000
     21 H21         -9.1564 -10.6590  18.1695 H              1 RES1               0.0000
     22 H22         -8.0495  -5.4936  15.5098 H              1 RES1               0.0000
     23 H23        -12.0076  -6.3246  15.8865 H              1 RES1               0.0000
     24 H24         -9.5289  -7.0731  20.5671 H              1 RES1               0.0000
     25 H25         -8.7825  -6.2048  19.2278 H              1 RES1               0.0000
     26 H26        -10.5253  -6.4648  19.2472 H              1 RES1               0.0000
     27 H27         -8.2948 -10.4601  13.3218 H              1 RES1               0.0000
     28 H28         -8.5749 -12.6983  16.9401 H              1 RES1               0.0000
     29 H29         -8.1407 -12.6113  14.5156 H              1 RES1               0.0000
@<TRIPOS>BOND
    1    1    2 1     
    2    1    3 1     
    3    1    4 1     
    4    1    5 1     
    5    2    6 ar    
    6    2    7 ar    
    7    3    8 1     
    8    3    9 2     
    9    4   10 1     
   10    4   11 2     
   11    5   12 1     
   12    5   18 1     
   13    5   19 1     
   14    6   13 ar    
   15    6   20 1     
   16    7   14 ar    
   17    7   21 1     
   18    8   15 1     
   19    8   22 1     
   20   10   15 1     
   21   10   23 1     
   22   12   24 1     
   23   12   25 1     
   24   12   26 1     
   25   13   16 ar    
   26   13   27 1     
   27   14   16 ar    
   28   14   28 1     
   29   15   17 2     
   30   16   29 1     
@<TRIPOS>SUBSTRUCTURE
      1 RES1           1
@<TRIPOS>SET
DONOR_HYDROGENS      STATIC     ATOMS    <user>   **** ""
2 22 23
ATOM$RED        STATIC     ATOMS    COLORGROUP SYSTEM
2 22 23
@<TRIPOS>COMMENT
> <Gold.Version>
2022.3.0

> <Gold.Id.Protein>
unknown|3ovv_clean|pdb

> <Gold.Protein.RotatedTorsions>
[ 3718 3716 3715 3713 ] final   63.31 input   59.99 | X-H torsion
[ 3645 3636 3635 3633 ] final  175.62 input   60.03 | X-H torsion
[ 3915 3906 3905 3903 ] final  178.12 input   60.03 | X-H torsion
[ 3186 3179 3177 3174 ] final  -71.28 input   59.97 | X-H torsion
[ 5212 5203 5202 5200 ] final   74.21 input   59.98 | X-H torsion
[ 2635 2624 2623 2622 ] final  124.03 input   60.00 | X-H torsion
[  604  597  595  592 ] final   70.35 input   59.96 | X-H torsion
[ 1944 1939 1938 1935 ] final  168.37 input   60.01 | X-H torsion
[ 3236 3227 3226 3224 ] final   91.30 input   60.01 | X-H torsion
[  622  617  616  613 ] final   63.21 input   59.98 | X-H torsion
[ 3127 3124 3123 3122 ] final  -78.84 input   59.98 | X-H torsion
[ 3412 3403 3402 3400 ] final  -23.25 input   59.99 | X-H torsion
[ 3128 3125 3123 3122 ] final  -23.47 input   60.00 | X-H torsion

> <Gold.Protein.ActiveResidues>
 LEU49   GLY50   THR51   GLY52   SER53   PHE54   VAL79   LEU82   LYS83   GLN84  
 HIS87   THR88   GLY126  GLU127  MET128  PHE129  SER130  HIS131  LEU132  ARG133 
 ARG134  ILE135  GLY136  ARG137  ARG165  ASP166  LEU167  LYS168  PRO169  GLU170 
 ASN171  LEU173  ASP184  GLY186  PHE187  TRP196  TPO197  LEU198  CYS199  GLY200 
 THR201  PRO202  GLU203  TYR204  LEU205  ILE209  ILE210  TYR215  VAL226  LEU227 
 TYR229  GLU230  ALA233  GLY234  TYR235  PRO236  PRO237  PHE238  PHE239  ALA240 
 ASP241  GLN242  PRO243  ILE244  GLN245  ILE246  TYR247  ARG256  PHE257  PRO258 
 SER259  HIS260  ASN326  PHE327  ASP328  ASP329  TYR330 

> <Gold.Protein.RotatedAtoms>
   -5.8015   -1.6627   14.3546 H   0  0  0  0  0  0  0  0  0  0  0  0  # atno 604  bound_to 597 
   -7.4675    0.9317   21.1373 H   0  0  0  0  0  0  0  0  0  0  0  0  # atno 622  bound_to 617 
  -13.3784   -8.7758    7.8602 H   0  0  0  0  0  0  0  0  0  0  0  0  # atno 1944 bound_to 1939
  -14.3911   -1.2371   20.0145 H   0  0  0  0  0  0  0  0  0  0  0  0  # atno 2635 bound_to 2624
  -14.0541   -1.1291   18.3959 H   0  0  0  0  0  0  0  0  0  0  0  0  # atno 2636 bound_to 2624
  -15.4507   -0.4698   18.9978 H   0  0  0  0  0  0  0  0  0  0  0  0  # atno 2637 bound_to 2624
  -14.4472   -0.1380   33.5710 H   0  0  0  0  0  0  0  0  0  0  0  0  # atno 3127 bound_to 3124
  -16.8342    1.4926   35.3512 H   0  0  0  0  0  0  0  0  0  0  0  0  # atno 3128 bound_to 3125
  -15.7165    0.8048   20.4470 H   0  0  0  0  0  0  0  0  0  0  0  0  # atno 3186 bound_to 3179
  -22.7503   -3.6971   16.1604 H   0  0  0  0  0  0  0  0  0  0  0  0  # atno 3236 bound_to 3227
  -18.6469    2.0372   32.0681 H   0  0  0  0  0  0  0  0  0  0  0  0  # atno 3412 bound_to 3403
  -33.6609    2.3101   12.4141 H   0  0  0  0  0  0  0  0  0  0  0  0  # atno 3645 bound_to 3636
  -32.7097    3.1661    7.9606 H   0  0  0  0  0  0  0  0  0  0  0  0  # atno 3718 bound_to 3716
  -17.5518    9.4098   22.8572 H   0  0  0  0  0  0  0  0  0  0  0  0  # atno 3915 bound_to 3906
   -8.5694   -5.4046   11.5061 H   0  0  0  0  0  0  0  0  0  0  0  0  # atno 5212 bound_to 5203
  -32.9662    1.6871    8.5882 LP  0  0  0  0  0  0  0  0  0  0  0  0  # atno 5527 bound_to 3716
  -32.6275    1.8558    6.9996 LP  0  0  0  0  0  0  0  0  0  0  0  0  # atno 5528 bound_to 3716
  -32.6314    1.8764   11.2307 LP  0  0  0  0  0  0  0  0  0  0  0  0  # atno 5529 bound_to 3636
  -32.1549    2.9264   12.3870 LP  0  0  0  0  0  0  0  0  0  0  0  0  # atno 5530 bound_to 3636
  -18.1541    8.1939   21.9587 LP  0  0  0  0  0  0  0  0  0  0  0  0  # atno 5588 bound_to 3906
  -18.1585    8.0884   23.5883 LP  0  0  0  0  0  0  0  0  0  0  0  0  # atno 5589 bound_to 3906
  -16.5270   -0.5637   20.1019 LP  0  0  0  0  0  0  0  0  0  0  0  0  # atno 5590 bound_to 3179
  -16.4943    0.0053   21.6322 LP  0  0  0  0  0  0  0  0  0  0  0  0  # atno 5591 bound_to 3179
   -8.9740   -5.3562    9.9307 LP  0  0  0  0  0  0  0  0  0  0  0  0  # atno 5600 bound_to 5203
   -8.7568   -3.9687   10.7638 LP  0  0  0  0  0  0  0  0  0  0  0  0  # atno 5601 bound_to 5203
   -5.8073   -2.8548   13.2471 LP  0  0  0  0  0  0  0  0  0  0  0  0  # atno 5606 bound_to 597 
   -4.7806   -1.5948   13.0892 LP  0  0  0  0  0  0  0  0  0  0  0  0  # atno 5607 bound_to 597 
  -14.2833   -7.7189    8.7043 LP  0  0  0  0  0  0  0  0  0  0  0  0  # atno 5610 bound_to 1939
  -13.7598   -7.3354    7.2058 LP  0  0  0  0  0  0  0  0  0  0  0  0  # atno 5611 bound_to 1939
  -23.3877   -2.3368   15.5346 LP  0  0  0  0  0  0  0  0  0  0  0  0  # atno 5640 bound_to 3227
  -24.3177   -3.3450   16.4208 LP  0  0  0  0  0  0  0  0  0  0  0  0  # atno 5641 bound_to 3227
   -7.1328    2.2817   20.2926 LP  0  0  0  0  0  0  0  0  0  0  0  0  # atno 5648 bound_to 617 
   -7.5163    2.3804   21.8768 LP  0  0  0  0  0  0  0  0  0  0  0  0  # atno 5649 bound_to 617 
  -13.8097   -0.8041   34.9117 LP  0  0  0  0  0  0  0  0  0  0  0  0  # atno 5673 bound_to 3124
  -13.0923    0.4887   34.2184 LP  0  0  0  0  0  0  0  0  0  0  0  0  # atno 5674 bound_to 3124
  -18.9994    0.5287   31.5704 LP  0  0  0  0  0  0  0  0  0  0  0  0  # atno 5675 bound_to 3403
  -18.5104    0.7916   33.1061 LP  0  0  0  0  0  0  0  0  0  0  0  0  # atno 5676 bound_to 3403

> <Gold.Score>
     Fitness  S(hb_ext) S(vdw_ext)  S(hb_int)    S(int)      intcor
     44.98       0.10      32.68       0.00      -0.06      -0.77

> <Gold.Goldscore.Fitness>
44.9796

> <Gold.Goldscore.Internal.Vdw>
-0.3765

> <Gold.Goldscore.Internal.Torsion>
-0.4474

> <Gold.Goldscore.External.Vdw>
32.6796

> <Gold.Goldscore.Internal.HBond>
0.0000

> <Gold.Goldscore.External.HBond>
0.1005

> <Gold.Goldscore.Internal.Correction>
-0.7686

> <Gold.Goldscore.Hbonds>
donor molecule, donor type, donor heavy atom, donor atom, acceptor molecule, acceptor atom, score
      L1  H     8    22       P1   594  0.01
      L1  H    10    23       P1  2655  0.04

> <Gold.Goldscore.Internal.Vdw.Weighted>
-0.3765

> <Gold.Goldscore.Internal.Torsion.Weighted>
-0.4474

> <Gold.Goldscore.External.Vdw.Weighted>
44.9344

> <Gold.Goldscore.Internal.HBond.Weighted>
0.0000

> <Gold.Goldscore.External.HBond.Weighted>
0.1005

> <Gold.Goldscore.Internal.Correction.Weighted>
-0.7686

> <Gold.Rescore>
     Score     S(PLP)   S(hbond)     S(cho)   S(metal)  DE(clash)   DE(tors)     intcor
     48.45     -47.63       0.88       0.00       0.00       0.00       0.91       ----

> <Gold.PLP.Fitness>
48.4548

> <Gold.PLP.PLP>
-47.6306

> <Gold.PLP.part.hbond>
-2.7053

> <Gold.PLP.part.metal>
0.0000

> <Gold.PLP.part.buried>
-1.1615

> <Gold.PLP.part.nonpolar>
-46.4007

> <Gold.PLP.part.repulsive>
2.3018

> <Gold.PLP.ligand.clash>
0.0000

> <Gold.PLP.ligand.torsion>
0.9122

> <Gold.PLP.Chemscore.Hbond>
0.8829

> <Gold.PLP.Chemscore.CHOScore>
0.0000

> <Gold.PLP.Chemscore.Metal>
0.0000

> <Gold.Chemscore.Hbonds>
donor molecule, donor type, donor heavy atom, donor atom, acceptor molecule, acceptor atom, score
      L1  H     8    22       P1   594  0.37
      L1  H    10    23       P1  2655  0.07

> <Gold.PLP.Chemscore.Internal.Correction>
   9.000000E+99

