#       Name:                CT1002167954
#       Creating user name   hitesit
#       Creation time:       Sun Apr 16 20:18:38 2023


#       File generated by GOLD software.
#

@<TRIPOS>MOLECULE
CT1002167954|ligand_prepared|mol2|1|dock8
    29    30     1
SMALL
NO_CHARGES


@<TRIPOS>ATOM
      1 C1         209.8406  24.8074  70.0867 C.3            1 RES1               0.0000
      2 C2         208.8993  26.0232  69.9666 C.ar           1 RES1               0.0000
      3 C3         210.3085  24.4862  68.6703 C.2            1 RES1               0.0000
      4 C4         210.9609  25.2270  71.0319 C.2            1 RES1               0.0000
      5 C5         209.1634  23.5488  70.6775 C.3            1 RES1               0.0000
      6 C6         208.0636  26.3793  71.0209 C.ar           1 RES1               0.0000
      7 C7         208.8573  26.7985  68.8108 C.ar           1 RES1               0.0000
      8 N8         211.5913  24.8104  68.3399 N.am           1 RES1               0.0000
      9 O9         209.5514  23.9923  67.8438 O.2            1 RES1               0.0000
     10 N10        212.2290  25.3236  70.5216 N.am           1 RES1               0.0000
     11 O11        210.7543  25.4908  72.2100 O.2            1 RES1               0.0000
     12 C12        210.0628  22.3230  70.7022 C.3            1 RES1               0.0000
     13 C13        207.2188  27.4726  70.9246 C.ar           1 RES1               0.0000
     14 C14        208.0116  27.8914  68.7165 C.ar           1 RES1               0.0000
     15 C15        212.5898  25.1641  69.2114 C.2            1 RES1               0.0000
     16 C16        207.1925  28.2296  69.7727 C.ar           1 RES1               0.0000
     17 O17        213.7426  25.3211  68.8195 O.2            1 RES1               0.0000
     18 H18        208.8397  23.7700  71.7020 H              1 RES1               0.0000
     19 H19        208.2688  23.3185  70.0857 H              1 RES1               0.0000
     20 H20        208.0687  25.7940  71.9344 H              1 RES1               0.0000
     21 H21        209.4921  26.5505  67.9669 H              1 RES1               0.0000
     22 H22        211.8303  24.7877  67.3537 H              1 RES1               0.0000
     23 H23        212.9729  25.5339  71.1794 H              1 RES1               0.0000
     24 H24        209.5390  21.4687  71.1258 H              1 RES1               0.0000
     25 H25        210.3832  22.0593  69.6964 H              1 RES1               0.0000
     26 H26        210.9507  22.5082  71.3031 H              1 RES1               0.0000
     27 H27        206.5752  27.7338  71.7581 H              1 RES1               0.0000
     28 H28        207.9938  28.4839  67.8078 H              1 RES1               0.0000
     29 H29        206.5309  29.0862  69.6976 H              1 RES1               0.0000
@<TRIPOS>BOND
    1    1    2 1     
    2    1    3 1     
    3    1    4 1     
    4    1    5 1     
    5    2    6 ar    
    6    2    7 ar    
    7    3    8 1     
    8    3    9 2     
    9    4   10 1     
   10    4   11 2     
   11    5   12 1     
   12    5   18 1     
   13    5   19 1     
   14    6   13 ar    
   15    6   20 1     
   16    7   14 ar    
   17    7   21 1     
   18    8   15 1     
   19    8   22 1     
   20   10   15 1     
   21   10   23 1     
   22   12   24 1     
   23   12   25 1     
   24   12   26 1     
   25   13   16 ar    
   26   13   27 1     
   27   14   16 ar    
   28   14   28 1     
   29   15   17 2     
   30   16   29 1     
@<TRIPOS>SUBSTRUCTURE
      1 RES1           1
@<TRIPOS>SET
DONOR_HYDROGENS      STATIC     ATOMS    <user>   **** ""
2 22 23
ATOM$RED        STATIC     ATOMS    COLORGROUP SYSTEM
2 22 23
@<TRIPOS>COMMENT
> <Gold.Version>
2022.3.0

> <Gold.Id.Protein>
unknown|4v3u_clean|pdb

> <Gold.Protein.RotatedTorsions>
[  566  526  525  524 ] final  -88.98 input   59.98 | X-H torsion
[  717  667  668  669 ] final -148.38 input  100.61 | X-H torsion
[ 26064 26019 26018 26016 ] final  -89.30 input   60.01 | X-H torsion
[ 27169 27085 27084 27080 ] final -123.25 input   60.01 | X-H torsion
[  799  758  759  760 ] final  -15.80 input  102.90 | X-H torsion
[ 18483 18438 18437 18435 ] final   24.96 input   59.97 | X-H torsion
[ 18287 18264 18263 18260 ] final  -64.53 input   59.98 | X-H torsion
[ 10108 10080 10079 10076 ] final  -46.79 input   60.03 | X-H torsion
[ 16975 16930 16929 16927 ] final   30.77 input   60.03 | X-H torsion
[ 11433 11400 11399 11396 ] final   75.98 input   59.99 | X-H torsion
[ 27163 27087 27086 27084 ] final  127.66 input   60.02 | X-H torsion
[ 27201  670  669  668 ] final  -51.08 input    0.00 | X-H torsion

> <Gold.Protein.ActiveResidues>
 LYS309  TRP311  GLU312  MET341  HIS342  TRP414  ALA417  ARG419  CYS420  VAL421 
 GLY422  ARG423  SER462  ALA463  SER482  GLN483  LEU484  ILE485  ARG486  ALA502 
 TRP566  TYR567  LEU569  PRO570  ALA571  VAL572  SER573  ASN574  MET575  PHE589 
 SER590  GLY591  TRP592  TYR593  MET594  GLU597  ILE598  ARG601  ASP602  ASP605 
 ARG608  TRP683  HIS697  GLU699  TYR711  HEM750  H4B760 

> <Gold.Protein.RotatedAtoms>
  216.6178   10.1369   66.9890 H   0  0  0  0  0  0  0  0  0  0  0  0  # atno 566  bound_to 526 
  216.4103   11.6508   66.3462 H   0  0  0  0  0  0  0  0  0  0  0  0  # atno 567  bound_to 526 
  215.8380   11.3083   67.8642 H   0  0  0  0  0  0  0  0  0  0  0  0  # atno 568  bound_to 526 
  210.2352    9.9193   65.1296 H   0  0  0  0  0  0  0  0  0  0  0  0  # atno 717  bound_to 667 
  209.2975    9.5696   68.1135 H   0  0  0  0  0  0  0  0  0  0  0  0  # atno 799  bound_to 758 
  205.7718   37.9362   69.5896 H   0  0  0  0  0  0  0  0  0  0  0  0  # atno 10108 bound_to 10080
  214.1418   23.4163   74.9751 H   0  0  0  0  0  0  0  0  0  0  0  0  # atno 11433 bound_to 11400
  207.6348   24.4501   77.7417 H   0  0  0  0  0  0  0  0  0  0  0  0  # atno 16975 bound_to 16930
  210.6253   36.8700   73.3639 H   0  0  0  0  0  0  0  0  0  0  0  0  # atno 18287 bound_to 18264
  206.2559   26.3536   75.1885 H   0  0  0  0  0  0  0  0  0  0  0  0  # atno 18483 bound_to 18438
  212.0982   21.9650   63.3242 H   0  0  0  0  0  0  0  0  0  0  0  0  # atno 26064 bound_to 26019
  207.8068   15.2037   59.9682 H   0  0  0  0  0  0  0  0  0  0  0  0  # atno 27163 bound_to 27087
  206.6585   14.3343   64.3906 H   0  0  0  0  0  0  0  0  0  0  0  0  # atno 27169 bound_to 27085
  208.6861    9.6731   65.9019 LP  0  0  0  0  0  0  0  0  0  0  0  0  # atno 27200 bound_to 667 
  210.9304   10.8959   69.5551 LP  0  0  0  0  0  0  0  0  0  0  0  0  # atno 27201 bound_to 670 
  209.3933   11.4827   70.0963 LP  0  0  0  0  0  0  0  0  0  0  0  0  # atno 27202 bound_to 670 
  212.0562   23.1345   62.1932 LP  0  0  0  0  0  0  0  0  0  0  0  0  # atno 27208 bound_to 26019
  212.0070   23.5253   63.7779 LP  0  0  0  0  0  0  0  0  0  0  0  0  # atno 27209 bound_to 26019
  205.5347   13.9729   63.2706 LP  0  0  0  0  0  0  0  0  0  0  0  0  # atno 27212 bound_to 27085
  205.2954   15.2183   64.2993 LP  0  0  0  0  0  0  0  0  0  0  0  0  # atno 27213 bound_to 27085
  207.8023   10.4300   67.8197 LP  0  0  0  0  0  0  0  0  0  0  0  0  # atno 27214 bound_to 758 
  205.4324   25.8794   76.5094 LP  0  0  0  0  0  0  0  0  0  0  0  0  # atno 27251 bound_to 18438
  206.3381   27.2376   76.5522 LP  0  0  0  0  0  0  0  0  0  0  0  0  # atno 27252 bound_to 18438
  209.8070   36.6992   74.7601 LP  0  0  0  0  0  0  0  0  0  0  0  0  # atno 27253 bound_to 18264
  208.9993   36.9347   73.3606 LP  0  0  0  0  0  0  0  0  0  0  0  0  # atno 27254 bound_to 18264
  205.4411   38.6124   68.1468 LP  0  0  0  0  0  0  0  0  0  0  0  0  # atno 27255 bound_to 10080
  204.8195   39.2537   69.5139 LP  0  0  0  0  0  0  0  0  0  0  0  0  # atno 27256 bound_to 10080
  208.9934   25.3287   77.5685 LP  0  0  0  0  0  0  0  0  0  0  0  0  # atno 27261 bound_to 16930
  207.6638   25.6949   76.6941 LP  0  0  0  0  0  0  0  0  0  0  0  0  # atno 27262 bound_to 16930
  215.5870   23.0786   75.6424 LP  0  0  0  0  0  0  0  0  0  0  0  0  # atno 27269 bound_to 11400
  214.8143   21.9522   74.7475 LP  0  0  0  0  0  0  0  0  0  0  0  0  # atno 27270 bound_to 11400

> <Gold.Score>
     Fitness  S(hb_ext) S(vdw_ext)  S(hb_int)    S(int)      intcor
     34.15       3.76      23.11       0.00      -1.38      -0.76

> <Gold.Goldscore.Fitness>
34.1528

> <Gold.Goldscore.Internal.Vdw>
-1.7379

> <Gold.Goldscore.Internal.Torsion>
-0.3980

> <Gold.Goldscore.External.Vdw>
23.1086

> <Gold.Goldscore.Internal.HBond>
0.0000

> <Gold.Goldscore.External.HBond>
3.7559

> <Gold.Goldscore.Internal.Correction>
-0.7585

> <Gold.Goldscore.Hbonds>
donor molecule, donor type, donor heavy atom, donor atom, acceptor molecule, acceptor atom, score
      L1  H     8    22       P1 26790  0.56
      L1  H    10    23       P1 11398  0.19

> <Gold.Goldscore.Internal.Vdw.Weighted>
-1.7379

> <Gold.Goldscore.Internal.Torsion.Weighted>
-0.3980

> <Gold.Goldscore.External.Vdw.Weighted>
31.7743

> <Gold.Goldscore.Internal.HBond.Weighted>
0.0000

> <Gold.Goldscore.External.HBond.Weighted>
3.7559

> <Gold.Goldscore.Internal.Correction.Weighted>
-0.7585

> <Gold.Rescore>
     Score     S(PLP)   S(hbond)     S(cho)   S(metal)  DE(clash)   DE(tors)     intcor
     17.96     -16.48       1.00       0.00       0.00       1.12       0.20       ----

> <Gold.PLP.Fitness>
17.9605

> <Gold.PLP.PLP>
-16.4782

> <Gold.PLP.part.hbond>
-2.0000

> <Gold.PLP.part.metal>
0.0000

> <Gold.PLP.part.buried>
5.5381

> <Gold.PLP.part.nonpolar>
-30.4863

> <Gold.PLP.part.repulsive>
9.2582

> <Gold.PLP.ligand.clash>
1.1242

> <Gold.PLP.ligand.torsion>
0.1968

> <Gold.PLP.Chemscore.Hbond>
1.0000

> <Gold.PLP.Chemscore.CHOScore>
0.0000

> <Gold.PLP.Chemscore.Metal>
0.0000

> <Gold.Chemscore.Hbonds>
donor molecule, donor type, donor heavy atom, donor atom, acceptor molecule, acceptor atom, score
      L1  H     8    22       P1 26790  0.60

> <Gold.PLP.Chemscore.Internal.Correction>
   9.000000E+99

