#       Name:                CT1002167954
#       Creating user name   hitesit
#       Creation time:       Sun Apr 16 20:18:34 2023


#       File generated by GOLD software.
#

@<TRIPOS>MOLECULE
CT1002167954|ligand_prepared|mol2|1|dock3
    29    30     1
SMALL
NO_CHARGES


@<TRIPOS>ATOM
      1 C1         207.2194  23.1873  71.6849 C.3            1 RES1               0.0000
      2 C2         208.4883  23.7856  71.0441 C.ar           1 RES1               0.0000
      3 C3         207.6629  21.9213  72.4122 C.2            1 RES1               0.0000
      4 C4         206.6552  24.2665  72.6023 C.2            1 RES1               0.0000
      5 C5         206.1227  22.8079  70.6627 C.3            1 RES1               0.0000
      6 C6         209.7514  23.3477  71.4308 C.ar           1 RES1               0.0000
      7 C7         208.4118  24.7725  70.0649 C.ar           1 RES1               0.0000
      8 N8         207.7214  21.9626  73.7741 N.am           1 RES1               0.0000
      9 O9         207.9942  20.9145  71.7983 O.2            1 RES1               0.0000
     10 N10        206.6506  24.0247  73.9511 N.am           1 RES1               0.0000
     11 O11        206.2299  25.3309  72.1706 O.2            1 RES1               0.0000
     12 C12        204.9217  22.1109  71.2824 C.3            1 RES1               0.0000
     13 C13        210.8965  23.8751  70.8573 C.ar           1 RES1               0.0000
     14 C14        209.5583  25.2987  69.4929 C.ar           1 RES1               0.0000
     15 C15        207.1863  22.9344  74.5809 C.2            1 RES1               0.0000
     16 C16        210.8008  24.8505  69.8878 C.ar           1 RES1               0.0000
     17 O17        207.1925  22.8137  75.8026 O.2            1 RES1               0.0000
     18 H18        205.7801  23.7195  70.1577 H              1 RES1               0.0000
     19 H19        206.5606  22.1483  69.9034 H              1 RES1               0.0000
     20 H20        209.8466  22.5826  72.1941 H              1 RES1               0.0000
     21 H21        207.4450  25.1411  69.7394 H              1 RES1               0.0000
     22 H22        208.2080  21.2005  74.2353 H              1 RES1               0.0000
     23 H23        206.2066  24.7219  74.5402 H              1 RES1               0.0000
     24 H24        204.1827  21.8668  70.5221 H              1 RES1               0.0000
     25 H25        205.2221  21.1868  71.7720 H              1 RES1               0.0000
     26 H26        204.4463  22.7487  72.0247 H              1 RES1               0.0000
     27 H27        211.8721  23.5199  71.1726 H              1 RES1               0.0000
     28 H28        209.4782  26.0667  68.7306 H              1 RES1               0.0000
     29 H29        211.6980  25.2632  69.4384 H              1 RES1               0.0000
@<TRIPOS>BOND
    1    1    2 1     
    2    1    3 1     
    3    1    4 1     
    4    1    5 1     
    5    2    6 ar    
    6    2    7 ar    
    7    3    8 1     
    8    3    9 2     
    9    4   10 1     
   10    4   11 2     
   11    5   12 1     
   12    5   18 1     
   13    5   19 1     
   14    6   13 ar    
   15    6   20 1     
   16    7   14 ar    
   17    7   21 1     
   18    8   15 1     
   19    8   22 1     
   20   10   15 1     
   21   10   23 1     
   22   12   24 1     
   23   12   25 1     
   24   12   26 1     
   25   13   16 ar    
   26   13   27 1     
   27   14   16 ar    
   28   14   28 1     
   29   15   17 2     
   30   16   29 1     
@<TRIPOS>SUBSTRUCTURE
      1 RES1           1
@<TRIPOS>SET
DONOR_HYDROGENS      STATIC     ATOMS    <user>   **** ""
2 22 23
ATOM$RED        STATIC     ATOMS    COLORGROUP SYSTEM
2 22 23
@<TRIPOS>COMMENT
> <Gold.Version>
2022.3.0

> <Gold.Id.Protein>
unknown|4v3u_clean|pdb

> <Gold.Protein.RotatedTorsions>
[  566  526  525  524 ] final   77.74 input   59.98 | X-H torsion
[  717  667  668  669 ] final  139.60 input  100.61 | X-H torsion
[ 26064 26019 26018 26016 ] final  -46.50 input   60.01 | X-H torsion
[ 27169 27085 27084 27080 ] final  110.91 input   60.01 | X-H torsion
[  799  758  759  760 ] final  -73.64 input  102.90 | X-H torsion
[ 18483 18438 18437 18435 ] final -126.20 input   59.97 | X-H torsion
[ 18287 18264 18263 18260 ] final -143.22 input   59.98 | X-H torsion
[ 10108 10080 10079 10076 ] final -178.49 input   60.03 | X-H torsion
[ 16975 16930 16929 16927 ] final  164.63 input   60.03 | X-H torsion
[ 11433 11400 11399 11396 ] final   71.77 input   59.99 | X-H torsion
[ 27163 27087 27086 27084 ] final   90.42 input   60.02 | X-H torsion
[ 27201  670  669  668 ] final  117.90 input    0.00 | X-H torsion

> <Gold.Protein.ActiveResidues>
 LYS309  TRP311  GLU312  MET341  HIS342  TRP414  ALA417  ARG419  CYS420  VAL421 
 GLY422  ARG423  SER462  ALA463  SER482  GLN483  LEU484  ILE485  ARG486  ALA502 
 TRP566  TYR567  LEU569  PRO570  ALA571  VAL572  SER573  ASN574  MET575  PHE589 
 SER590  GLY591  TRP592  TYR593  MET594  GLU597  ILE598  ARG601  ASP602  ASP605 
 ARG608  TRP683  HIS697  GLU699  TYR711  HEM750  H4B760 

> <Gold.Protein.RotatedAtoms>
  216.0441   11.9488   66.9405 H   0  0  0  0  0  0  0  0  0  0  0  0  # atno 566  bound_to 526 
  216.0666   10.5855   67.8834 H   0  0  0  0  0  0  0  0  0  0  0  0  # atno 567  bound_to 526 
  216.7551   10.5628   66.3752 H   0  0  0  0  0  0  0  0  0  0  0  0  # atno 568  bound_to 526 
  209.3848   10.5051   64.9965 H   0  0  0  0  0  0  0  0  0  0  0  0  # atno 717  bound_to 667 
  209.2046   10.3624   68.4324 H   0  0  0  0  0  0  0  0  0  0  0  0  # atno 799  bound_to 758 
  205.3292   38.7671   68.1636 H   0  0  0  0  0  0  0  0  0  0  0  0  # atno 10108 bound_to 10080
  214.1762   23.4621   75.0132 H   0  0  0  0  0  0  0  0  0  0  0  0  # atno 11433 bound_to 11400
  207.8657   25.7987   76.6950 H   0  0  0  0  0  0  0  0  0  0  0  0  # atno 16975 bound_to 16930
  210.4260   36.7077   74.5229 H   0  0  0  0  0  0  0  0  0  0  0  0  # atno 18287 bound_to 18264
  205.5410   26.2351   76.8506 H   0  0  0  0  0  0  0  0  0  0  0  0  # atno 18483 bound_to 18438
  212.0676   22.3590   63.8817 H   0  0  0  0  0  0  0  0  0  0  0  0  # atno 26064 bound_to 26019
  208.1234   15.4621   60.4045 H   0  0  0  0  0  0  0  0  0  0  0  0  # atno 27163 bound_to 27087
  205.4596   14.0326   63.2722 H   0  0  0  0  0  0  0  0  0  0  0  0  # atno 27169 bound_to 27085
  209.5150    9.1021   66.0316 LP  0  0  0  0  0  0  0  0  0  0  0  0  # atno 27200 bound_to 667 
  209.4367   11.6224   70.0171 LP  0  0  0  0  0  0  0  0  0  0  0  0  # atno 27201 bound_to 670 
  210.8870   10.7563   69.6344 LP  0  0  0  0  0  0  0  0  0  0  0  0  # atno 27202 bound_to 670 
  212.0904   22.4502   62.2569 LP  0  0  0  0  0  0  0  0  0  0  0  0  # atno 27208 bound_to 26019
  212.0035   23.8127   63.1528 LP  0  0  0  0  0  0  0  0  0  0  0  0  # atno 27209 bound_to 26019
  205.3645   15.2357   64.3637 LP  0  0  0  0  0  0  0  0  0  0  0  0  # atno 27212 bound_to 27085
  206.6730   14.2593   64.3324 LP  0  0  0  0  0  0  0  0  0  0  0  0  # atno 27213 bound_to 27085
  207.8923    9.6618   67.5107 LP  0  0  0  0  0  0  0  0  0  0  0  0  # atno 27214 bound_to 758 
  206.5378   27.2706   76.0878 LP  0  0  0  0  0  0  0  0  0  0  0  0  # atno 27251 bound_to 18438
  205.9528   25.9657   75.2995 LP  0  0  0  0  0  0  0  0  0  0  0  0  # atno 27252 bound_to 18438
  208.8876   36.8438   74.0101 LP  0  0  0  0  0  0  0  0  0  0  0  0  # atno 27253 bound_to 18264
  210.1194   36.9536   72.9438 LP  0  0  0  0  0  0  0  0  0  0  0  0  # atno 27254 bound_to 18264
  204.8693   39.1602   69.6744 LP  0  0  0  0  0  0  0  0  0  0  0  0  # atno 27255 bound_to 10080
  205.8370   37.8691   69.4223 LP  0  0  0  0  0  0  0  0  0  0  0  0  # atno 27256 bound_to 10080
  207.4618   24.5150   77.6099 LP  0  0  0  0  0  0  0  0  0  0  0  0  # atno 27261 bound_to 16930
  208.9629   25.1505   77.7068 LP  0  0  0  0  0  0  0  0  0  0  0  0  # atno 27262 bound_to 16930
  215.6137   23.0157   75.6313 LP  0  0  0  0  0  0  0  0  0  0  0  0  # atno 27269 bound_to 11400
  214.7529   21.9690   74.7203 LP  0  0  0  0  0  0  0  0  0  0  0  0  # atno 27270 bound_to 11400

> <Gold.Score>
     Fitness  S(hb_ext) S(vdw_ext)  S(hb_int)    S(int)      intcor
     37.59       7.19      23.31       0.00      -1.65      -0.78

> <Gold.Goldscore.Fitness>
37.5938

> <Gold.Goldscore.Internal.Vdw>
-2.0162

> <Gold.Goldscore.Internal.Torsion>
-0.4070

> <Gold.Goldscore.External.Vdw>
23.3113

> <Gold.Goldscore.Internal.HBond>
0.0000

> <Gold.Goldscore.External.HBond>
7.1886

> <Gold.Goldscore.Internal.Correction>
-0.7752

> <Gold.Goldscore.Hbonds>
donor molecule, donor type, donor heavy atom, donor atom, acceptor molecule, acceptor atom, score
      P1  H 11446 11493       L1    17  0.02
      P1  H 19321 19379       L1    17  0.99
      L1  H    10    23       P1 18438  0.60

> <Gold.Goldscore.Internal.Vdw.Weighted>
-2.0162

> <Gold.Goldscore.Internal.Torsion.Weighted>
-0.4070

> <Gold.Goldscore.External.Vdw.Weighted>
32.0530

> <Gold.Goldscore.Internal.HBond.Weighted>
0.0000

> <Gold.Goldscore.External.HBond.Weighted>
7.1886

> <Gold.Goldscore.Internal.Correction.Weighted>
-0.7752

> <Gold.Rescore>
     Score     S(PLP)   S(hbond)     S(cho)   S(metal)  DE(clash)   DE(tors)     intcor
     26.65     -23.97       1.61       0.00       0.00       2.04       0.05       ----

> <Gold.PLP.Fitness>
26.6542

> <Gold.PLP.PLP>
-23.9653

> <Gold.PLP.part.hbond>
-3.8548

> <Gold.PLP.part.metal>
0.0000

> <Gold.PLP.part.buried>
0.0065

> <Gold.PLP.part.nonpolar>
-22.6821

> <Gold.PLP.part.repulsive>
2.0654

> <Gold.PLP.ligand.clash>
2.0387

> <Gold.PLP.ligand.torsion>
0.0493

> <Gold.PLP.Chemscore.Hbond>
1.6088

> <Gold.PLP.Chemscore.CHOScore>
0.0000

> <Gold.PLP.Chemscore.Metal>
0.0000

> <Gold.Chemscore.Hbonds>
donor molecule, donor type, donor heavy atom, donor atom, acceptor molecule, acceptor atom, score
      L1  H    10    23       P1 18438  0.08
      P1  H 19321 19379       L1    17  1.00

> <Gold.PLP.Chemscore.Internal.Correction>
   9.000000E+99

