#       Name:                CT1002167954
#       Creating user name   hitesit
#       Creation time:       Sun Apr 16 20:17:49 2023


#       File generated by GOLD software.
#

@<TRIPOS>MOLECULE
CT1002167954|ligand_prepared|mol2|1|dock7
    29    30     1
SMALL
NO_CHARGES


@<TRIPOS>ATOM
      1 C1         -13.4150   3.7796  19.9152 C.3            1 RES1               0.0000
      2 C2         -13.9370   2.5099  20.6180 C.ar           1 RES1               0.0000
      3 C3         -12.0097   3.4489  19.4212 C.2            1 RES1               0.0000
      4 C4         -14.4089   4.0899  18.8014 C.2            1 RES1               0.0000
      5 C5         -13.3323   5.0164  20.8399 C.3            1 RES1               0.0000
      6 C6         -15.0518   2.5674  21.4490 C.ar           1 RES1               0.0000
      7 C7         -13.3170   1.2755  20.4434 C.ar           1 RES1               0.0000
      8 N8         -11.8413   3.2482  18.0828 N.am           1 RES1               0.0000
      9 O9         -11.0712   3.3271  20.1989 O.2            1 RES1               0.0000
     10 N10        -13.9727   3.9927  17.5060 N.am           1 RES1               0.0000
     11 O11        -15.5705   4.4015  19.0335 O.2            1 RES1               0.0000
     12 C12        -12.6481   6.2148  20.2012 C.3            1 RES1               0.0000
     13 C13        -15.5313   1.4317  22.0803 C.ar           1 RES1               0.0000
     14 C14        -13.7980   0.1409  21.0758 C.ar           1 RES1               0.0000
     15 C15        -12.7426   3.5561  17.0956 C.2            1 RES1               0.0000
     16 C16        -14.9051   0.2177  21.8937 C.ar           1 RES1               0.0000
     17 O17        -12.4425   3.4440  15.9105 O.2            1 RES1               0.0000
     18 H18        -14.3486   5.3056  21.1345 H              1 RES1               0.0000
     19 H19        -12.7849   4.7410  21.7498 H              1 RES1               0.0000
     20 H20        -15.5562   3.5144  21.6098 H              1 RES1               0.0000
     21 H21        -12.4439   1.1915  19.8052 H              1 RES1               0.0000
     22 H22        -10.9642   2.8304  17.7888 H              1 RES1               0.0000
     23 H23        -14.6254   4.2718  16.7805 H              1 RES1               0.0000
     24 H24        -12.6168   7.0546  20.8922 H              1 RES1               0.0000
     25 H25        -11.6263   5.9703  19.9184 H              1 RES1               0.0000
     26 H26        -13.1807   6.5316  19.3068 H              1 RES1               0.0000
     27 H27        -16.4021   1.4977  22.7241 H              1 RES1               0.0000
     28 H28        -13.3016  -0.8123  20.9266 H              1 RES1               0.0000
     29 H29        -15.2812  -0.6719  22.3880 H              1 RES1               0.0000
@<TRIPOS>BOND
    1    1    2 1     
    2    1    3 1     
    3    1    4 1     
    4    1    5 1     
    5    2    6 ar    
    6    2    7 ar    
    7    3    8 1     
    8    3    9 2     
    9    4   10 1     
   10    4   11 2     
   11    5   12 1     
   12    5   18 1     
   13    5   19 1     
   14    6   13 ar    
   15    6   20 1     
   16    7   14 ar    
   17    7   21 1     
   18    8   15 1     
   19    8   22 1     
   20   10   15 1     
   21   10   23 1     
   22   12   24 1     
   23   12   25 1     
   24   12   26 1     
   25   13   16 ar    
   26   13   27 1     
   27   14   16 ar    
   28   14   28 1     
   29   15   17 2     
   30   16   29 1     
@<TRIPOS>SUBSTRUCTURE
      1 RES1           1
@<TRIPOS>SET
DONOR_HYDROGENS      STATIC     ATOMS    <user>   **** ""
2 22 23
ATOM$RED        STATIC     ATOMS    COLORGROUP SYSTEM
2 22 23
@<TRIPOS>COMMENT
> <Gold.Version>
2022.3.0

> <Gold.Id.Protein>
unknown|3mvj_clean|pdb

> <Gold.Protein.RotatedTorsions>
[ 11816 11799 11798 11795 ] final    7.35 input   60.01 | X-H torsion
[ 11879 11856 11855 11854 ] final  146.32 input   60.02 | X-H torsion
[ 10986 10959 10958 10956 ] final  -99.59 input   60.00 | X-H torsion
[ 10978 10948 10949 10950 ] final  -26.47 input   32.02 | X-H torsion
[ 10745 10719 10718 10716 ] final  -39.30 input   60.01 | X-H torsion
[ 12083 12056 12057 12058 ] final   39.75 input   63.02 | X-H torsion
[ 10921 10911 10912 10913 ] final  103.06 input  -92.90 | X-H torsion
[ 6177 6140 6141 6142 ] final  -49.84 input   39.58 | X-H torsion
[ 6115 6105 6106 6107 ] final   12.71 input  -69.34 | X-H torsion
[ 5955 5918 5919 5920 ] final  -66.80 input  125.26 | X-H torsion
[ 6027 5990 5991 5992 ] final  -90.05 input  110.40 | X-H torsion
[ 6086 6056 6057 6058 ] final -156.88 input  107.04 | X-H torsion
[ 11660 11631 11630 11629 ] final -167.33 input   60.02 | X-H torsion
[ 11213 11201 11202 11203 ] final   50.19 input   18.84 | X-H torsion
[ 11249 11237 11238 11239 ] final -161.05 input  111.29 | X-H torsion
[ 11182 11153 11154 11155 ] final   77.30 input   30.50 | X-H torsion
[ 11292 11275 11276 11277 ] final  -54.97 input   58.53 | X-H torsion
[ 9445 9430 9431 9432 ] final  116.10 input  110.06 | X-H torsion
[ 11493 11474 11475 11476 ] final -104.46 input  115.95 | X-H torsion
[ 11385 11366 11367 11368 ] final   75.40 input  117.79 | X-H torsion
[ 11568 11550 11549 11547 ] final  171.41 input   59.97 | X-H torsion
[ 9362 9348 9346 9343 ] final   56.09 input   60.02 | X-H torsion
[ 9502 9481 9482 9483 ] final  128.09 input   75.78 | X-H torsion
[ 15476 15466 15465 15463 ] final  -73.36 input   60.00 | X-H torsion
[ 7768 7731 7730 7729 ] final  117.86 input   60.02 | X-H torsion
[ 7852 7831 7832 7833 ] final  -86.87 input  113.97 | X-H torsion
[ 5737 5717 5718 5719 ] final   55.21 input  137.93 | X-H torsion
[ 5778 5767 5768 5769 ] final   88.41 input  116.46 | X-H torsion
[ 1832 1818 1819 1820 ] final  -26.28 input   43.70 | X-H torsion
[ 5782 5772 5771 5768 ] final  147.39 input   59.97 | X-H torsion
[ 15411 15403 15404 15405 ] final -159.08 input  102.24 | X-H torsion
[ 1801 1791 1792 1793 ] final   40.63 input  -10.55 | X-H torsion
[ 5638 5617 5618 5619 ] final  154.01 input   93.34 | X-H torsion
[ 7894 7874 7875 7876 ] final  103.47 input   68.03 | X-H torsion
[ 1838 1824 1822 1819 ] final  112.32 input   60.02 | X-H torsion
[ 1861 1854 1855 1856 ] final   85.75 input   57.50 | X-H torsion
[ 9356 9342 9343 9344 ] final   17.85 input   55.58 | X-H torsion
[ 9510 9492 9491 9489 ] final  -24.24 input   60.02 | X-H torsion
[ 7758 7723 7724 7725 ] final  172.63 input   17.81 | X-H torsion
[ 1898 1884 1883 1880 ] final -129.81 input   60.01 | X-H torsion
[ 9322 9315 9316 9317 ] final  -53.05 input  -36.21 | X-H torsion
[ 1894 1879 1880 1881 ] final -128.69 input   98.21 | X-H torsion
[ 9297 9286 9287 9288 ] final  115.71 input   37.00 | X-H torsion
[ 9252 9233 9234 9235 ] final  138.79 input   95.32 | X-H torsion
[ 3370 3362 3363 3364 ] final   37.29 input   97.92 | X-H torsion
[ 1951 1922 1923 1924 ] final  154.84 input  104.43 | X-H torsion
[ 12164 12148 12149 12150 ] final  -50.07 input  116.04 | X-H torsion
[ 11673 11649 11648 11647 ] final  -75.18 input   59.99 | X-H torsion
[ 12008 11984 11985 11986 ] final  101.98 input   61.04 | X-H torsion
[ 11122 11093 11094 11095 ] final  -24.12 input   39.50 | X-H torsion
[ 7946 7916 7917 7918 ] final  163.31 input   66.66 | X-H torsion
[ 8659 8630 8631 8632 ] final -123.34 input   75.31 | X-H torsion
[ 9555 9536 9537 9538 ] final -150.02 input  103.50 | X-H torsion
[ 16472 10886 10885 10884 ] final  -66.64 input    0.00 | X-H torsion
[ 16475 11004 11003 11002 ] final -139.75 input    0.00 | X-H torsion
[ 16477 10914 10913 10912 ] final -170.60 input    0.00 | X-H torsion
[ 16479 10951 10950 10949 ] final   44.40 input   -0.00 | X-H torsion
[ 16484 11987 11986 11985 ] final  176.41 input    0.00 | X-H torsion
[ 16486 12059 12058 12057 ] final  161.17 input   -0.00 | X-H torsion
[ 16490 11046 11045 11044 ] final  -69.58 input    0.00 | X-H torsion
[ 16500 6108 6107 6106 ] final   17.62 input    0.00 | X-H torsion
[ 16503 5921 5920 5919 ] final -127.65 input   -0.00 | X-H torsion
[ 16506 6059 6058 6057 ] final  168.21 input    0.00 | X-H torsion
[ 16510 5858 5857 5856 ] final  -34.28 input    0.00 | X-H torsion
[ 16518 5993 5992 5991 ] final   -0.66 input   -0.00 | X-H torsion
[ 16523 11156 11155 11154 ] final -165.37 input    0.00 | X-H torsion
[ 16528 11204 11203 11202 ] final  -28.75 input    0.00 | X-H torsion
[ 16540 11096 11095 11094 ] final -105.34 input   -0.00 | X-H torsion
[ 16544 10768 10767 10766 ] final  159.30 input   -0.00 | X-H torsion
[ 16552 11240 11239 11238 ] final   93.30 input    0.00 | X-H torsion
[ 16558 11278 11277 11276 ] final  -24.87 input   -0.00 | X-H torsion
[ 16562 11325 11324 11323 ] final -156.69 input   -0.00 | X-H torsion
[ 16566 9387 9386 9385 ] final   -0.85 input   -0.00 | X-H torsion
[ 16570 9345 9344 9343 ] final  -75.02 input    0.00 | X-H torsion
[ 16579 5720 5719 5718 ] final  110.16 input    0.00 | X-H torsion
[ 16592 1821 1820 1819 ] final -170.71 input    0.00 | X-H torsion
[ 16594 7834 7833 7832 ] final  -12.90 input    0.00 | X-H torsion
[ 16600 1745 1744 1743 ] final  -56.97 input    0.00 | X-H torsion
[ 16608 5620 5619 5618 ] final  156.65 input   -0.00 | X-H torsion
[ 16610 7788 7787 7786 ] final   47.05 input   -0.00 | X-H torsion
[ 16613 1794 1793 1792 ] final   19.91 input   -0.00 | X-H torsion
[ 16622 9318 9317 9316 ] final -120.45 input   -0.00 | X-H torsion
[ 16627 9433 9432 9431 ] final   30.51 input    0.00 | X-H torsion
[ 16631 7667 7666 7665 ] final  -32.72 input   -0.00 | X-H torsion
[ 16635 7726 7725 7724 ] final  -32.74 input    0.00 | X-H torsion
[ 16637 10539 10538 10537 ] final  141.17 input   -0.00 | X-H torsion
[ 16643 1857 1856 1855 ] final -128.81 input    0.00 | X-H torsion
[ 16645 7565 7564 7563 ] final   58.03 input    0.00 | X-H torsion
[ 16647 9289 9288 9287 ] final   52.51 input    0.00 | X-H torsion
[ 16649 9236 9235 9234 ] final   96.26 input    0.00 | X-H torsion
[ 16655 3365 3364 3363 ] final  142.67 input    0.00 | X-H torsion

> <Gold.Protein.ActiveResidues>
 LEU49   GLY50   THR51   GLY52   SER53   PHE54   VAL57   LEU82   LYS83   GLN84  
 HIS87   GLU127  PHE129  SER130  LEU132  ARG133  ARG134  ILE135  GLY136  ARG137 
 ARG165  ASP166  LEU167  LYS168  PRO169  GLU170  ASN171  LEU172  LEU173  ASP184 
 GLY186  PHE187  TPO197  LEU198  CYS199  GLY200  THR201  PRO202  GLU203  TYR204 
 LEU205  ILE209  ILE210  VAL226  LEU227  TYR229  GLU230  ALA233  GLY234  TYR235 
 PRO236  PRO237  PHE238  PHE239  ALA240  ASP241  GLN242  PRO243  ILE244  GLN245 
 ILE246  TYR247  GLU248  LYS249  ILE250  VAL251  SER252  LYS254  ARG256  PHE257 
 PRO258  SER259  PHE327  ASP328  TYR330 

> <Gold.Protein.RotatedAtoms>
    1.0900  -15.0575   21.2405 H   0  0  0  0  0  0  0  0  0  0  0  0  # atno 1801 bound_to 1791
   -1.8168  -14.0971   24.0305 H   0  0  0  0  0  0  0  0  0  0  0  0  # atno 1832 bound_to 1818
   -0.1669  -15.1411   28.7776 H   0  0  0  0  0  0  0  0  0  0  0  0  # atno 1838 bound_to 1824
   -2.5417  -16.9033   26.6166 H   0  0  0  0  0  0  0  0  0  0  0  0  # atno 1861 bound_to 1854
   -3.9751  -16.2269   29.9456 H   0  0  0  0  0  0  0  0  0  0  0  0  # atno 1894 bound_to 1879
   -5.8725  -15.5240   33.2901 H   0  0  0  0  0  0  0  0  0  0  0  0  # atno 1898 bound_to 1884
   -5.3510  -19.4979   30.6045 H   0  0  0  0  0  0  0  0  0  0  0  0  # atno 1951 bound_to 1922
   -7.9140  -25.0271   35.7042 H   0  0  0  0  0  0  0  0  0  0  0  0  # atno 3370 bound_to 3362
   -3.8900  -10.6004   14.1211 H   0  0  0  0  0  0  0  0  0  0  0  0  # atno 5638 bound_to 5617
   -7.9880   -7.9270   14.5074 H   0  0  0  0  0  0  0  0  0  0  0  0  # atno 5737 bound_to 5717
   -6.4653   -6.5276   15.0026 H   0  0  0  0  0  0  0  0  0  0  0  0  # atno 5778 bound_to 5767
   -3.0762   -6.0335   13.8119 H   0  0  0  0  0  0  0  0  0  0  0  0  # atno 5782 bound_to 5772
   -9.7514   -1.3281   14.2079 H   0  0  0  0  0  0  0  0  0  0  0  0  # atno 5955 bound_to 5918
   -7.5593    0.6884   15.2373 H   0  0  0  0  0  0  0  0  0  0  0  0  # atno 6027 bound_to 5990
   -6.8410    1.1093   11.6032 H   0  0  0  0  0  0  0  0  0  0  0  0  # atno 6086 bound_to 6056
  -10.3666    1.6255   11.7820 H   0  0  0  0  0  0  0  0  0  0  0  0  # atno 6115 bound_to 6105
  -12.1456    1.8262   11.4009 H   0  0  0  0  0  0  0  0  0  0  0  0  # atno 6177 bound_to 6140
  -15.7809  -13.2615   18.7703 H   0  0  0  0  0  0  0  0  0  0  0  0  # atno 7758 bound_to 7723
  -12.4325  -13.2149   24.5902 H   0  0  0  0  0  0  0  0  0  0  0  0  # atno 7768 bound_to 7731
  -11.0238  -12.4880   24.1059 H   0  0  0  0  0  0  0  0  0  0  0  0  # atno 7769 bound_to 7731
  -12.4338  -11.6165   24.1508 H   0  0  0  0  0  0  0  0  0  0  0  0  # atno 7770 bound_to 7731
  -10.5383   -9.8767   16.8070 H   0  0  0  0  0  0  0  0  0  0  0  0  # atno 7852 bound_to 7831
  -11.0335  -12.6796   17.8875 H   0  0  0  0  0  0  0  0  0  0  0  0  # atno 7894 bound_to 7874
  -11.0619  -13.6529   15.4889 H   0  0  0  0  0  0  0  0  0  0  0  0  # atno 7946 bound_to 7916
  -13.0149  -23.0209   23.9297 H   0  0  0  0  0  0  0  0  0  0  0  0  # atno 8659 bound_to 8630
  -21.8673  -21.0041   32.0377 H   0  0  0  0  0  0  0  0  0  0  0  0  # atno 9252 bound_to 9233
  -20.0304  -19.7854   29.2303 H   0  0  0  0  0  0  0  0  0  0  0  0  # atno 9297 bound_to 9286
  -16.7037  -17.1206   27.4986 H   0  0  0  0  0  0  0  0  0  0  0  0  # atno 9322 bound_to 9315
  -18.0421  -13.5582   25.4097 H   0  0  0  0  0  0  0  0  0  0  0  0  # atno 9356 bound_to 9342
  -15.1286  -13.9236   24.4331 H   0  0  0  0  0  0  0  0  0  0  0  0  # atno 9362 bound_to 9348
  -17.7059   -8.3230   25.7530 H   0  0  0  0  0  0  0  0  0  0  0  0  # atno 9445 bound_to 9430
  -18.7774   -9.4893   23.6079 H   0  0  0  0  0  0  0  0  0  0  0  0  # atno 9502 bound_to 9481
  -16.7724   -6.8848   18.5980 H   0  0  0  0  0  0  0  0  0  0  0  0  # atno 9510 bound_to 9492
  -20.7132  -11.6311   24.2601 H   0  0  0  0  0  0  0  0  0  0  0  0  # atno 9555 bound_to 9536
  -23.3211    1.2643   18.7480 H   0  0  0  0  0  0  0  0  0  0  0  0  # atno 10745 bound_to 10719
  -17.4418    1.6321   14.0361 H   0  0  0  0  0  0  0  0  0  0  0  0  # atno 10921 bound_to 10911
  -17.2055   -0.0496   16.3679 H   0  0  0  0  0  0  0  0  0  0  0  0  # atno 10978 bound_to 10948
  -21.9943    4.5510   16.5382 H   0  0  0  0  0  0  0  0  0  0  0  0  # atno 10986 bound_to 10959
  -21.8522   -2.0924   22.3187 H   0  0  0  0  0  0  0  0  0  0  0  0  # atno 11122 bound_to 11093
  -21.3675   -0.5881   24.8678 H   0  0  0  0  0  0  0  0  0  0  0  0  # atno 11182 bound_to 11153
  -18.8991   -1.5635   28.3965 H   0  0  0  0  0  0  0  0  0  0  0  0  # atno 11213 bound_to 11201
  -17.6019    1.4274   30.6933 H   0  0  0  0  0  0  0  0  0  0  0  0  # atno 11249 bound_to 11237
  -17.0107   -1.3960   32.0956 H   0  0  0  0  0  0  0  0  0  0  0  0  # atno 11292 bound_to 11275
  -19.6229   -5.1703   34.5932 H   0  0  0  0  0  0  0  0  0  0  0  0  # atno 11385 bound_to 11366
  -22.3990   -2.6620   31.2526 H   0  0  0  0  0  0  0  0  0  0  0  0  # atno 11493 bound_to 11474
  -19.0408  -10.6575   32.6882 H   0  0  0  0  0  0  0  0  0  0  0  0  # atno 11568 bound_to 11550
   -9.4062    8.1297   26.3717 H   0  0  0  0  0  0  0  0  0  0  0  0  # atno 11660 bound_to 11631
   -8.0921    8.4800   25.4249 H   0  0  0  0  0  0  0  0  0  0  0  0  # atno 11661 bound_to 11631
   -8.3424    9.3139   26.8347 H   0  0  0  0  0  0  0  0  0  0  0  0  # atno 11662 bound_to 11631
  -25.5794    2.2844   28.0717 H   0  0  0  0  0  0  0  0  0  0  0  0  # atno 11673 bound_to 11649
  -24.3927    2.2939   29.2298 H   0  0  0  0  0  0  0  0  0  0  0  0  # atno 11674 bound_to 11649
  -24.1499    3.0753   27.7882 H   0  0  0  0  0  0  0  0  0  0  0  0  # atno 11675 bound_to 11649
  -12.8272   16.9370   22.5211 H   0  0  0  0  0  0  0  0  0  0  0  0  # atno 11816 bound_to 11799
  -18.3554   16.1378   24.8147 H   0  0  0  0  0  0  0  0  0  0  0  0  # atno 11879 bound_to 11856
  -17.0108   15.9008   23.8746 H   0  0  0  0  0  0  0  0  0  0  0  0  # atno 11880 bound_to 11856
  -17.3739   14.8296   25.0866 H   0  0  0  0  0  0  0  0  0  0  0  0  # atno 11881 bound_to 11856
  -28.0462    1.2321   20.5020 H   0  0  0  0  0  0  0  0  0  0  0  0  # atno 12008 bound_to 11984
  -28.2998    3.9823   16.7905 H   0  0  0  0  0  0  0  0  0  0  0  0  # atno 12083 bound_to 12056
  -25.0669    6.3304   12.6974 H   0  0  0  0  0  0  0  0  0  0  0  0  # atno 12164 bound_to 12148
    0.7966   -7.4678   17.2785 H   0  0  0  0  0  0  0  0  0  0  0  0  # atno 15411 bound_to 15403
   -1.4083   -9.2104   21.1997 H   0  0  0  0  0  0  0  0  0  0  0  0  # atno 15476 bound_to 15466
  -12.4850   15.3481   22.5992 LP  0  0  0  0  0  0  0  0  0  0  0  0  # atno 16466 bound_to 11799
  -13.5830   16.0008   23.6166 LP  0  0  0  0  0  0  0  0  0  0  0  0  # atno 16467 bound_to 11799
  -21.4785    5.7763   17.4768 LP  0  0  0  0  0  0  0  0  0  0  0  0  # atno 16468 bound_to 10959
  -22.5233    4.6716   18.0725 LP  0  0  0  0  0  0  0  0  0  0  0  0  # atno 16469 bound_to 10959
  -17.4069    3.6285   13.6132 LP  0  0  0  0  0  0  0  0  0  0  0  0  # atno 16472 bound_to 10886
  -17.2985    3.3087   15.3120 LP  0  0  0  0  0  0  0  0  0  0  0  0  # atno 16473 bound_to 10886
  -16.4765    1.4880   16.7889 LP  0  0  0  0  0  0  0  0  0  0  0  0  # atno 16474 bound_to 10948
  -21.2749   -0.4723   21.7075 LP  0  0  0  0  0  0  0  0  0  0  0  0  # atno 16475 bound_to 11004
  -20.0215    0.0452   20.6299 LP  0  0  0  0  0  0  0  0  0  0  0  0  # atno 16476 bound_to 11004
  -14.6693    0.8903   18.1840 LP  0  0  0  0  0  0  0  0  0  0  0  0  # atno 16477 bound_to 10914
  -13.8417    1.4251   16.7596 LP  0  0  0  0  0  0  0  0  0  0  0  0  # atno 16478 bound_to 10914
  -18.9336   -0.6858   16.7744 LP  0  0  0  0  0  0  0  0  0  0  0  0  # atno 16479 bound_to 10951
  -20.1498   -0.7192   18.0071 LP  0  0  0  0  0  0  0  0  0  0  0  0  # atno 16480 bound_to 10951
  -24.8510    1.1911   18.1988 LP  0  0  0  0  0  0  0  0  0  0  0  0  # atno 16482 bound_to 10719
  -23.6873    1.8909   17.2917 LP  0  0  0  0  0  0  0  0  0  0  0  0  # atno 16483 bound_to 10719
  -25.8010    1.6462   17.0777 LP  0  0  0  0  0  0  0  0  0  0  0  0  # atno 16484 bound_to 11987
  -26.1736    1.3583   18.7445 LP  0  0  0  0  0  0  0  0  0  0  0  0  # atno 16485 bound_to 11987
  -26.3811    6.2586   15.2619 LP  0  0  0  0  0  0  0  0  0  0  0  0  # atno 16486 bound_to 12059
  -27.8572    5.3525   15.2776 LP  0  0  0  0  0  0  0  0  0  0  0  0  # atno 16487 bound_to 12059
  -24.2068    0.1047   22.1801 LP  0  0  0  0  0  0  0  0  0  0  0  0  # atno 16490 bound_to 11046
  -25.1782   -1.2206   22.7280 LP  0  0  0  0  0  0  0  0  0  0  0  0  # atno 16491 bound_to 11046
  -27.7242    2.4259   17.3360 LP  0  0  0  0  0  0  0  0  0  0  0  0  # atno 16492 bound_to 12056
  -17.3923   -0.0974   14.3041 LP  0  0  0  0  0  0  0  0  0  0  0  0  # atno 16493 bound_to 10911
  -12.7819    1.3056   14.5504 LP  0  0  0  0  0  0  0  0  0  0  0  0  # atno 16500 bound_to 6108
  -13.5960    0.4604   13.2765 LP  0  0  0  0  0  0  0  0  0  0  0  0  # atno 16501 bound_to 6108
  -13.2561    3.0285   12.0148 LP  0  0  0  0  0  0  0  0  0  0  0  0  # atno 16502 bound_to 6140
   -8.5890    2.4186   14.5938 LP  0  0  0  0  0  0  0  0  0  0  0  0  # atno 16503 bound_to 5921
   -8.5321    2.2022   16.3113 LP  0  0  0  0  0  0  0  0  0  0  0  0  # atno 16504 bound_to 5921
   -9.3282    2.6782   12.7193 LP  0  0  0  0  0  0  0  0  0  0  0  0  # atno 16505 bound_to 6105
  -10.7553    4.4930   11.4308 LP  0  0  0  0  0  0  0  0  0  0  0  0  # atno 16506 bound_to 6059
   -9.3203    4.5422   10.4622 LP  0  0  0  0  0  0  0  0  0  0  0  0  # atno 16507 bound_to 6059
  -10.1272    0.2057   12.5759 LP  0  0  0  0  0  0  0  0  0  0  0  0  # atno 16510 bound_to 5858
  -10.3885    0.5669   14.2496 LP  0  0  0  0  0  0  0  0  0  0  0  0  # atno 16511 bound_to 5858
   -8.6499   -2.4067   15.0280 LP  0  0  0  0  0  0  0  0  0  0  0  0  # atno 16516 bound_to 5918
   -7.0947   -0.5771   14.1161 LP  0  0  0  0  0  0  0  0  0  0  0  0  # atno 16517 bound_to 5990
   -6.1657    3.7882   13.0332 LP  0  0  0  0  0  0  0  0  0  0  0  0  # atno 16518 bound_to 5993
   -7.2587    3.7879   11.6896 LP  0  0  0  0  0  0  0  0  0  0  0  0  # atno 16519 bound_to 5993
   -8.2305    1.1976   12.6485 LP  0  0  0  0  0  0  0  0  0  0  0  0  # atno 16520 bound_to 6056
  -20.7493    1.2465   27.9857 LP  0  0  0  0  0  0  0  0  0  0  0  0  # atno 16523 bound_to 11156
  -21.5366    0.4856   26.6435 LP  0  0  0  0  0  0  0  0  0  0  0  0  # atno 16524 bound_to 11156
  -19.3334   -0.1888   27.3987 LP  0  0  0  0  0  0  0  0  0  0  0  0  # atno 16525 bound_to 11201
  -17.0514   -1.4092   29.0656 LP  0  0  0  0  0  0  0  0  0  0  0  0  # atno 16528 bound_to 11204
  -15.8326   -0.5051   29.9006 LP  0  0  0  0  0  0  0  0  0  0  0  0  # atno 16529 bound_to 11204
  -18.2193    0.0036   31.4974 LP  0  0  0  0  0  0  0  0  0  0  0  0  # atno 16530 bound_to 11237
  -21.6283   -2.1668   25.5779 LP  0  0  0  0  0  0  0  0  0  0  0  0  # atno 16533 bound_to 11153
  -20.6178   -4.0699   25.4581 LP  0  0  0  0  0  0  0  0  0  0  0  0  # atno 16540 bound_to 11096
  -20.3091   -3.6593   23.8040 LP  0  0  0  0  0  0  0  0  0  0  0  0  # atno 16541 bound_to 11096
  -16.0265   -2.0501   13.8114 LP  0  0  0  0  0  0  0  0  0  0  0  0  # atno 16544 bound_to 10768
  -16.9764   -1.3207   15.0626 LP  0  0  0  0  0  0  0  0  0  0  0  0  # atno 16545 bound_to 10768
  -14.4364   -1.4650   33.3574 LP  0  0  0  0  0  0  0  0  0  0  0  0  # atno 16552 bound_to 11240
  -14.8119   -2.0014   31.7539 LP  0  0  0  0  0  0  0  0  0  0  0  0  # atno 16553 bound_to 11240
  -17.4884   -0.6517   33.6030 LP  0  0  0  0  0  0  0  0  0  0  0  0  # atno 16554 bound_to 11275
  -19.6251   -2.6779   32.7993 LP  0  0  0  0  0  0  0  0  0  0  0  0  # atno 16558 bound_to 11278
  -19.5107   -4.0475   31.7453 LP  0  0  0  0  0  0  0  0  0  0  0  0  # atno 16559 bound_to 11278
  -19.2746   -8.8016   26.3621 LP  0  0  0  0  0  0  0  0  0  0  0  0  # atno 16561 bound_to 9430
  -21.7661   -5.8656   32.2196 LP  0  0  0  0  0  0  0  0  0  0  0  0  # atno 16562 bound_to 11325
  -20.6327   -6.6822   31.1955 LP  0  0  0  0  0  0  0  0  0  0  0  0  # atno 16563 bound_to 11325
  -21.7194   -4.1957   31.7588 LP  0  0  0  0  0  0  0  0  0  0  0  0  # atno 16564 bound_to 11474
  -19.8754   -6.5621   33.5809 LP  0  0  0  0  0  0  0  0  0  0  0  0  # atno 16565 bound_to 11366
  -21.1299   -9.2762   27.4846 LP  0  0  0  0  0  0  0  0  0  0  0  0  # atno 16566 bound_to 9387
  -21.1454   -8.2164   26.1147 LP  0  0  0  0  0  0  0  0  0  0  0  0  # atno 16567 bound_to 9387
  -18.6924   -9.9539   31.2629 LP  0  0  0  0  0  0  0  0  0  0  0  0  # atno 16568 bound_to 11550
  -19.4341  -11.4082   31.2991 LP  0  0  0  0  0  0  0  0  0  0  0  0  # atno 16569 bound_to 11550
  -18.4777  -11.0357   24.4532 LP  0  0  0  0  0  0  0  0  0  0  0  0  # atno 16570 bound_to 9345
  -19.3912  -11.7834   25.7206 LP  0  0  0  0  0  0  0  0  0  0  0  0  # atno 16571 bound_to 9345
  -14.0152  -13.1831   25.3603 LP  0  0  0  0  0  0  0  0  0  0  0  0  # atno 16572 bound_to 9348
  -14.0444  -12.9218   23.7487 LP  0  0  0  0  0  0  0  0  0  0  0  0  # atno 16573 bound_to 9348
  -20.3595   -9.0640   24.2217 LP  0  0  0  0  0  0  0  0  0  0  0  0  # atno 16574 bound_to 9481
   -8.0390   -3.6084   16.5660 LP  0  0  0  0  0  0  0  0  0  0  0  0  # atno 16579 bound_to 5720
   -8.9005   -3.8235   15.0788 LP  0  0  0  0  0  0  0  0  0  0  0  0  # atno 16580 bound_to 5720
   -2.1904  -10.0736   22.3358 LP  0  0  0  0  0  0  0  0  0  0  0  0  # atno 16587 bound_to 15466
   -1.6134  -10.8120   20.9985 LP  0  0  0  0  0  0  0  0  0  0  0  0  # atno 16588 bound_to 15466
  -11.4280  -10.3030   18.2590 LP  0  0  0  0  0  0  0  0  0  0  0  0  # atno 16591 bound_to 7831
   -3.8803  -13.8094   27.0930 LP  0  0  0  0  0  0  0  0  0  0  0  0  # atno 16592 bound_to 1821
   -2.7963  -13.1470   25.9156 LP  0  0  0  0  0  0  0  0  0  0  0  0  # atno 16593 bound_to 1821
   -7.2139  -12.2730   18.1154 LP  0  0  0  0  0  0  0  0  0  0  0  0  # atno 16594 bound_to 7834
   -7.9251  -13.8340   17.8756 LP  0  0  0  0  0  0  0  0  0  0  0  0  # atno 16595 bound_to 7834
   -9.7282   -7.7561   14.3511 LP  0  0  0  0  0  0  0  0  0  0  0  0  # atno 16596 bound_to 5717
   -7.3936   -5.4557   16.0285 LP  0  0  0  0  0  0  0  0  0  0  0  0  # atno 16597 bound_to 5767
   -0.0810  -12.2054   19.1352 LP  0  0  0  0  0  0  0  0  0  0  0  0  # atno 16600 bound_to 1745
   -1.1147  -13.5485   19.4924 LP  0  0  0  0  0  0  0  0  0  0  0  0  # atno 16601 bound_to 1745
   -0.0865  -13.9304   24.2272 LP  0  0  0  0  0  0  0  0  0  0  0  0  # atno 16602 bound_to 1818
   -4.6448   -5.8484   13.4201 LP  0  0  0  0  0  0  0  0  0  0  0  0  # atno 16603 bound_to 5772
   -4.1966   -7.0046   14.4826 LP  0  0  0  0  0  0  0  0  0  0  0  0  # atno 16604 bound_to 5772
    1.7155   -8.8554   17.8130 LP  0  0  0  0  0  0  0  0  0  0  0  0  # atno 16605 bound_to 15403
    1.0681  -13.3508   20.8513 LP  0  0  0  0  0  0  0  0  0  0  0  0  # atno 16606 bound_to 1791
   -4.3582   -9.6625   12.7178 LP  0  0  0  0  0  0  0  0  0  0  0  0  # atno 16607 bound_to 5617
   -6.6135   -7.3767   12.6367 LP  0  0  0  0  0  0  0  0  0  0  0  0  # atno 16608 bound_to 5620
   -5.4581   -7.7893   13.8593 LP  0  0  0  0  0  0  0  0  0  0  0  0  # atno 16609 bound_to 5620
   -9.8569   -9.5835   14.8687 LP  0  0  0  0  0  0  0  0  0  0  0  0  # atno 16610 bound_to 7788
   -9.4759  -11.1217   15.5677 LP  0  0  0  0  0  0  0  0  0  0  0  0  # atno 16611 bound_to 7788
   -9.4365  -12.3813   17.2531 LP  0  0  0  0  0  0  0  0  0  0  0  0  # atno 16612 bound_to 7874
    0.8953  -16.0411   22.7491 LP  0  0  0  0  0  0  0  0  0  0  0  0  # atno 16613 bound_to 1794
    0.0624  -16.5228   24.1893 LP  0  0  0  0  0  0  0  0  0  0  0  0  # atno 16614 bound_to 1794
   -1.3868  -14.3230   28.0772 LP  0  0  0  0  0  0  0  0  0  0  0  0  # atno 16615 bound_to 1824
    0.0035  -13.5550   28.4565 LP  0  0  0  0  0  0  0  0  0  0  0  0  # atno 16616 bound_to 1824
   -2.2885  -15.2203   27.0452 LP  0  0  0  0  0  0  0  0  0  0  0  0  # atno 16617 bound_to 1854
  -15.9754  -14.0582   28.0732 LP  0  0  0  0  0  0  0  0  0  0  0  0  # atno 16622 bound_to 9318
  -15.1546  -15.3119   27.2045 LP  0  0  0  0  0  0  0  0  0  0  0  0  # atno 16623 bound_to 9318
  -16.5536  -14.4058   25.7661 LP  0  0  0  0  0  0  0  0  0  0  0  0  # atno 16624 bound_to 9342
  -21.0648   -6.8369   22.8210 LP  0  0  0  0  0  0  0  0  0  0  0  0  # atno 16627 bound_to 9433
  -21.8831   -8.3634   22.8163 LP  0  0  0  0  0  0  0  0  0  0  0  0  # atno 16628 bound_to 9433
  -17.7319   -7.4873   17.4297 LP  0  0  0  0  0  0  0  0  0  0  0  0  # atno 16629 bound_to 9492
  -16.2600   -8.1411   17.6993 LP  0  0  0  0  0  0  0  0  0  0  0  0  # atno 16630 bound_to 9492
  -18.0034  -12.9602   19.3126 LP  0  0  0  0  0  0  0  0  0  0  0  0  # atno 16631 bound_to 7667
  -16.6257  -12.2362   20.0727 LP  0  0  0  0  0  0  0  0  0  0  0  0  # atno 16632 bound_to 7667
  -14.7468  -13.4506   17.3662 LP  0  0  0  0  0  0  0  0  0  0  0  0  # atno 16634 bound_to 7723
  -12.9348  -13.0503   17.1400 LP  0  0  0  0  0  0  0  0  0  0  0  0  # atno 16635 bound_to 7726
  -12.6988  -12.0662   15.7343 LP  0  0  0  0  0  0  0  0  0  0  0  0  # atno 16636 bound_to 7726
  -19.5821   -6.1525   16.4766 LP  0  0  0  0  0  0  0  0  0  0  0  0  # atno 16637 bound_to 10539
  -21.2163   -5.5786   16.4678 LP  0  0  0  0  0  0  0  0  0  0  0  0  # atno 16638 bound_to 10539
   -6.7428  -16.0249   32.0099 LP  0  0  0  0  0  0  0  0  0  0  0  0  # atno 16639 bound_to 1884
   -5.2232  -15.4653   31.7995 LP  0  0  0  0  0  0  0  0  0  0  0  0  # atno 16640 bound_to 1884
  -18.4549  -17.1649   27.5384 LP  0  0  0  0  0  0  0  0  0  0  0  0  # atno 16641 bound_to 9315
   -5.1399  -17.5048   29.6825 LP  0  0  0  0  0  0  0  0  0  0  0  0  # atno 16642 bound_to 1879
   -1.9380  -17.6747   30.0398 LP  0  0  0  0  0  0  0  0  0  0  0  0  # atno 16643 bound_to 1857
   -1.6884  -16.0298   29.5579 LP  0  0  0  0  0  0  0  0  0  0  0  0  # atno 16644 bound_to 1857
  -17.8463  -18.3440   23.5444 LP  0  0  0  0  0  0  0  0  0  0  0  0  # atno 16645 bound_to 7565
  -17.8983  -16.7290   22.9208 LP  0  0  0  0  0  0  0  0  0  0  0  0  # atno 16646 bound_to 7565
  -20.5712  -17.3507   27.4313 LP  0  0  0  0  0  0  0  0  0  0  0  0  # atno 16647 bound_to 9289
  -19.7718  -17.5799   25.9120 LP  0  0  0  0  0  0  0  0  0  0  0  0  # atno 16648 bound_to 9289
  -18.3008  -19.8858   31.3856 LP  0  0  0  0  0  0  0  0  0  0  0  0  # atno 16649 bound_to 9236
  -18.5451  -18.2295   31.8294 LP  0  0  0  0  0  0  0  0  0  0  0  0  # atno 16650 bound_to 9236
  -20.2363  -18.1175   29.7114 LP  0  0  0  0  0  0  0  0  0  0  0  0  # atno 16653 bound_to 9286
  -21.0773  -21.2309   30.4934 LP  0  0  0  0  0  0  0  0  0  0  0  0  # atno 16654 bound_to 9233
  -11.4926  -24.0235   33.4884 LP  0  0  0  0  0  0  0  0  0  0  0  0  # atno 16655 bound_to 3365
  -11.3818  -22.5392   34.3742 LP  0  0  0  0  0  0  0  0  0  0  0  0  # atno 16656 bound_to 3365
   -7.6039  -23.8948   36.9991 LP  0  0  0  0  0  0  0  0  0  0  0  0  # atno 16657 bound_to 3362
   -3.6451  -19.1035   30.6836 LP  0  0  0  0  0  0  0  0  0  0  0  0  # atno 16658 bound_to 1922

> <Gold.Score>
     Fitness  S(hb_ext) S(vdw_ext)  S(hb_int)    S(int)      intcor
     25.36       0.00      19.35       0.00      -1.25      -0.76

> <Gold.Goldscore.Fitness>
25.3586

> <Gold.Goldscore.Internal.Vdw>
-1.5422

> <Gold.Goldscore.Internal.Torsion>
-0.4648

> <Gold.Goldscore.External.Vdw>
19.3506

> <Gold.Goldscore.Internal.HBond>
0.0000

> <Gold.Goldscore.External.HBond>
0.0000

> <Gold.Goldscore.Internal.Correction>
-0.7585

> <Gold.Goldscore.Internal.Vdw.Weighted>
-1.5422

> <Gold.Goldscore.Internal.Torsion.Weighted>
-0.4648

> <Gold.Goldscore.External.Vdw.Weighted>
26.6071

> <Gold.Goldscore.Internal.HBond.Weighted>
0.0000

> <Gold.Goldscore.External.HBond.Weighted>
0.0000

> <Gold.Goldscore.Internal.Correction.Weighted>
-0.7585

> <Gold.Rescore>
     Score     S(PLP)   S(hbond)     S(cho)   S(metal)  DE(clash)   DE(tors)     intcor
     26.41     -25.91       0.74       0.00       0.00       0.66       0.53       ----

> <Gold.PLP.Fitness>
26.4129

> <Gold.PLP.PLP>
-25.9095

> <Gold.PLP.part.hbond>
-1.1676

> <Gold.PLP.part.metal>
0.0000

> <Gold.PLP.part.buried>
-2.8179

> <Gold.PLP.part.nonpolar>
-22.5075

> <Gold.PLP.part.repulsive>
1.0680

> <Gold.PLP.ligand.clash>
0.6553

> <Gold.PLP.ligand.torsion>
0.5290

> <Gold.PLP.Chemscore.Hbond>
0.7389

> <Gold.PLP.Chemscore.CHOScore>
0.0000

> <Gold.PLP.Chemscore.Metal>
0.0000

> <Gold.PLP.Chemscore.Internal.Correction>
   9.000000E+99

