#       Name:                CT1002167954
#       Creating user name   hitesit
#       Creation time:       Sun Apr 16 20:23:34 2023


#       File generated by GOLD software.
#

@<TRIPOS>MOLECULE
CT1002167954|ligand_prepared|mol2|1|dock5
    29    30     1
SMALL
NO_CHARGES


@<TRIPOS>ATOM
      1 C1         191.2176  -6.7720  48.7197 C.3            1 RES1               0.0000
      2 C2         190.4804  -5.4907  49.1595 C.ar           1 RES1               0.0000
      3 C3         190.6138  -7.1744  47.3774 C.2            1 RES1               0.0000
      4 C4         192.6975  -6.4111  48.6529 C.2            1 RES1               0.0000
      5 C5         191.0580  -7.9539  49.7041 C.3            1 RES1               0.0000
      6 C6         189.9738  -4.6045  48.2136 C.ar           1 RES1               0.0000
      7 C7         190.2970  -5.1833  50.5051 C.ar           1 RES1               0.0000
      8 N8         191.3638  -6.9625  46.2582 N.am           1 RES1               0.0000
      9 O9         189.4812  -7.6340  47.2983 O.2            1 RES1               0.0000
     10 N10        193.3085  -6.4305  47.4265 N.am           1 RES1               0.0000
     11 O11        193.3359  -6.0940  49.6490 O.2            1 RES1               0.0000
     12 C12        191.5413  -9.2843  49.1485 C.3            1 RES1               0.0000
     13 C13        189.3056  -3.4541  48.5988 C.ar           1 RES1               0.0000
     14 C14        189.6286  -4.0322  50.8881 C.ar           1 RES1               0.0000
     15 C15        192.7013  -6.6600  46.2220 C.2            1 RES1               0.0000
     16 C16        189.1321  -3.1674  49.9361 C.ar           1 RES1               0.0000
     17 O17        193.3071  -6.6065  45.1556 O.2            1 RES1               0.0000
     18 H18        191.6188  -7.7290  50.6197 H              1 RES1               0.0000
     19 H19        189.9989  -8.0480  49.9742 H              1 RES1               0.0000
     20 H20        190.1029  -4.8122  47.1566 H              1 RES1               0.0000
     21 H21        190.6800  -5.8486  51.2714 H              1 RES1               0.0000
     22 H22        190.8860  -7.0356  45.3657 H              1 RES1               0.0000
     23 H23        194.3086  -6.2581  47.4100 H              1 RES1               0.0000
     24 H24        191.4067 -10.0792  49.8790 H              1 RES1               0.0000
     25 H25        190.9875  -9.5515  48.2509 H              1 RES1               0.0000
     26 H26        192.5977  -9.2345  48.8926 H              1 RES1               0.0000
     27 H27        188.9180  -2.7760  47.8456 H              1 RES1               0.0000
     28 H28        189.4949  -3.8103  51.9417 H              1 RES1               0.0000
     29 H29        188.6082  -2.2663  50.2375 H              1 RES1               0.0000
@<TRIPOS>BOND
    1    1    2 1     
    2    1    3 1     
    3    1    4 1     
    4    1    5 1     
    5    2    6 ar    
    6    2    7 ar    
    7    3    8 1     
    8    3    9 2     
    9    4   10 1     
   10    4   11 2     
   11    5   12 1     
   12    5   18 1     
   13    5   19 1     
   14    6   13 ar    
   15    6   20 1     
   16    7   14 ar    
   17    7   21 1     
   18    8   15 1     
   19    8   22 1     
   20   10   15 1     
   21   10   23 1     
   22   12   24 1     
   23   12   25 1     
   24   12   26 1     
   25   13   16 ar    
   26   13   27 1     
   27   14   16 ar    
   28   14   28 1     
   29   15   17 2     
   30   16   29 1     
@<TRIPOS>SUBSTRUCTURE
      1 RES1           1
@<TRIPOS>SET
DONOR_HYDROGENS      STATIC     ATOMS    <user>   **** ""
2 22 23
ATOM$RED        STATIC     ATOMS    COLORGROUP SYSTEM
2 22 23
@<TRIPOS>COMMENT
> <Gold.Version>
2022.3.0

> <Gold.Id.Protein>
unknown|4d1n_clean|pdb

> <Gold.Protein.RotatedTorsions>
[ 6603 6557 6558 6559 ] final  -57.94 input  116.17 | X-H torsion
[ 6691 6637 6638 6639 ] final   57.12 input  120.05 | X-H torsion
[ 8044 8009 8010 8011 ] final -113.59 input   40.01 | X-H torsion
[ 8121 8086 8087 8088 ] final  -89.83 input   93.99 | X-H torsion
[ 8189 8152 8153 8154 ] final -143.12 input   75.44 | X-H torsion
[ 8262 8220 8221 8222 ] final  -25.48 input   81.29 | X-H torsion
[ 9571 9520 9519 9517 ] final  -77.79 input   60.00 | X-H torsion
[ 8325 8297 8298 8299 ] final   68.02 input   91.63 | X-H torsion
[ 10215 10169 10170 10171 ] final   17.55 input   34.07 | X-H torsion
[ 7962 7922 7923 7924 ] final  116.56 input   79.92 | X-H torsion
[ 7898 7875 7876 7877 ] final -118.38 input   91.72 | X-H torsion
[ 7902 7880 7879 7876 ] final  -73.67 input   60.02 | X-H torsion
[ 6839 6786 6787 6788 ] final  164.27 input  113.73 | X-H torsion
[ 27193 6320 6319 6318 ] final -130.36 input    0.00 | X-H torsion
[ 27196 6560 6559 6558 ] final -132.99 input    0.00 | X-H torsion
[ 27199 7878 7877 7876 ] final   39.45 input    0.00 | X-H torsion
[ 27202 8012 8011 8010 ] final -161.11 input    0.00 | X-H torsion
[ 27205 8089 8088 8087 ] final  -17.02 input   -0.00 | X-H torsion
[ 27208 8155 8154 8153 ] final  134.73 input   -0.00 | X-H torsion
[ 27214 10086 10085 10084 ] final  -22.65 input    0.00 | X-H torsion
[ 27217 10172 10171 10170 ] final  115.58 input    0.00 | X-H torsion
[ 27220 6367 6366 6365 ] final  -35.64 input    0.00 | X-H torsion
[ 27222 7925 7924 7923 ] final -137.34 input   -0.00 | X-H torsion
[ 27224 7790 7789 7788 ] final  -48.84 input   -0.00 | X-H torsion

> <Gold.Protein.ActiveResidues>
 ASP403  THR404  LEU406  ILE407  TYR408  ALA410  LYS411  TRP414  TRP426  SER427 
 LYS428  LEU429  GLN430  VAL431  PHE432  ASP433  TYR453  SER462  ALA463  ILE464 

> <Gold.Protein.RotatedAtoms>
  196.0569   -1.9658   37.6151 H   0  0  0  0  0  0  0  0  0  0  0  0  # atno 6603 bound_to 6557
  197.8643   -2.5225   38.8229 H   0  0  0  0  0  0  0  0  0  0  0  0  # atno 6691 bound_to 6637
  196.1885    0.2755   42.2749 H   0  0  0  0  0  0  0  0  0  0  0  0  # atno 6839 bound_to 6786
  197.2163    0.0614   49.3907 H   0  0  0  0  0  0  0  0  0  0  0  0  # atno 7898 bound_to 7875
  198.2767   -2.8176   51.3265 H   0  0  0  0  0  0  0  0  0  0  0  0  # atno 7902 bound_to 7880
  195.3006   -1.9713   50.8094 H   0  0  0  0  0  0  0  0  0  0  0  0  # atno 7962 bound_to 7922
  192.2517   -2.4118   48.9681 H   0  0  0  0  0  0  0  0  0  0  0  0  # atno 8044 bound_to 8009
  190.9037   -2.4276   46.0261 H   0  0  0  0  0  0  0  0  0  0  0  0  # atno 8121 bound_to 8086
  189.8393   -2.3548   43.4329 H   0  0  0  0  0  0  0  0  0  0  0  0  # atno 8189 bound_to 8152
  188.7886   -1.7590   39.6488 H   0  0  0  0  0  0  0  0  0  0  0  0  # atno 8262 bound_to 8220
  187.1774   -3.6021   36.8068 H   0  0  0  0  0  0  0  0  0  0  0  0  # atno 8325 bound_to 8297
  186.5258   -5.0894   47.0171 H   0  0  0  0  0  0  0  0  0  0  0  0  # atno 9571 bound_to 9520
  187.6488    0.5726   43.1192 H   0  0  0  0  0  0  0  0  0  0  0  0  # atno 10215 bound_to 10169
  196.3668   -4.7140   36.5657 LP  0  0  0  0  0  0  0  0  0  0  0  0  # atno 27193 bound_to 6320
  194.6900   -5.1401   36.6474 LP  0  0  0  0  0  0  0  0  0  0  0  0  # atno 27194 bound_to 6320
  195.8840   -3.6975   37.4656 LP  0  0  0  0  0  0  0  0  0  0  0  0  # atno 27195 bound_to 6557
  197.2152   -0.7284   41.1725 LP  0  0  0  0  0  0  0  0  0  0  0  0  # atno 27196 bound_to 6560
  196.0092   -1.7631   41.8618 LP  0  0  0  0  0  0  0  0  0  0  0  0  # atno 27197 bound_to 6560
  197.3642   -3.3086   40.3052 LP  0  0  0  0  0  0  0  0  0  0  0  0  # atno 27198 bound_to 6637
  196.3141   -4.4335   48.2262 LP  0  0  0  0  0  0  0  0  0  0  0  0  # atno 27199 bound_to 7878
  194.6724   -3.9363   47.9866 LP  0  0  0  0  0  0  0  0  0  0  0  0  # atno 27200 bound_to 7878
  193.3804   -2.8077   47.6940 LP  0  0  0  0  0  0  0  0  0  0  0  0  # atno 27201 bound_to 8009
  191.6132   -3.4627   44.5111 LP  0  0  0  0  0  0  0  0  0  0  0  0  # atno 27202 bound_to 8012
  192.8766   -3.2983   45.6845 LP  0  0  0  0  0  0  0  0  0  0  0  0  # atno 27203 bound_to 8012
  189.4156   -1.6622   46.5370 LP  0  0  0  0  0  0  0  0  0  0  0  0  # atno 27204 bound_to 8086
  188.0368   -0.8537   44.3196 LP  0  0  0  0  0  0  0  0  0  0  0  0  # atno 27205 bound_to 8089
  188.8454   -0.5685   42.8146 LP  0  0  0  0  0  0  0  0  0  0  0  0  # atno 27206 bound_to 8089
  189.4255   -3.8681   42.6563 LP  0  0  0  0  0  0  0  0  0  0  0  0  # atno 27207 bound_to 8152
  187.8827   -4.4953   39.9844 LP  0  0  0  0  0  0  0  0  0  0  0  0  # atno 27208 bound_to 8155
  189.5949   -4.4356   39.7299 LP  0  0  0  0  0  0  0  0  0  0  0  0  # atno 27209 bound_to 8155
  187.5467   -1.8393   40.8724 LP  0  0  0  0  0  0  0  0  0  0  0  0  # atno 27210 bound_to 8220
  185.6417   -6.0559   47.9829 LP  0  0  0  0  0  0  0  0  0  0  0  0  # atno 27211 bound_to 9520
  186.0756   -4.5657   48.4907 LP  0  0  0  0  0  0  0  0  0  0  0  0  # atno 27212 bound_to 9520
  187.7482   -2.0858   37.4675 LP  0  0  0  0  0  0  0  0  0  0  0  0  # atno 27213 bound_to 8297
  188.1028   -1.2510   48.4415 LP  0  0  0  0  0  0  0  0  0  0  0  0  # atno 27214 bound_to 10086
  187.2468   -1.0823   46.9453 LP  0  0  0  0  0  0  0  0  0  0  0  0  # atno 27215 bound_to 10086
  187.9154    1.8719   44.2605 LP  0  0  0  0  0  0  0  0  0  0  0  0  # atno 27216 bound_to 10169
  186.8439    0.0025   40.7370 LP  0  0  0  0  0  0  0  0  0  0  0  0  # atno 27217 bound_to 10172
  188.5623    0.1964   40.6389 LP  0  0  0  0  0  0  0  0  0  0  0  0  # atno 27218 bound_to 10172
  195.2834   -2.2899   49.0888 LP  0  0  0  0  0  0  0  0  0  0  0  0  # atno 27219 bound_to 7922
  197.5883   -5.1990   38.5376 LP  0  0  0  0  0  0  0  0  0  0  0  0  # atno 27220 bound_to 6367
  199.1074   -4.4525   38.1700 LP  0  0  0  0  0  0  0  0  0  0  0  0  # atno 27221 bound_to 6367
  190.9194   -1.0775   49.6029 LP  0  0  0  0  0  0  0  0  0  0  0  0  # atno 27222 bound_to 7925
  192.3043   -0.5955   50.5248 LP  0  0  0  0  0  0  0  0  0  0  0  0  # atno 27223 bound_to 7925
  195.3423    0.7793   47.9373 LP  0  0  0  0  0  0  0  0  0  0  0  0  # atno 27224 bound_to 7790
  196.6868   -0.1635   47.3862 LP  0  0  0  0  0  0  0  0  0  0  0  0  # atno 27225 bound_to 7790
  196.9652   -0.8950   50.8252 LP  0  0  0  0  0  0  0  0  0  0  0  0  # atno 27226 bound_to 7875
  198.7287   -4.2847   50.7857 LP  0  0  0  0  0  0  0  0  0  0  0  0  # atno 27227 bound_to 7880
  197.1553   -3.8490   50.7540 LP  0  0  0  0  0  0  0  0  0  0  0  0  # atno 27228 bound_to 7880

> <Gold.Score>
     Fitness  S(hb_ext) S(vdw_ext)  S(hb_int)    S(int)      intcor
     30.31       3.76      19.75       0.00      -0.60      -0.77

> <Gold.Goldscore.Fitness>
30.3103

> <Gold.Goldscore.Internal.Vdw>
-0.7892

> <Gold.Goldscore.Internal.Torsion>
-0.5806

> <Gold.Goldscore.External.Vdw>
19.7462

> <Gold.Goldscore.Internal.HBond>
0.0000

> <Gold.Goldscore.External.HBond>
3.7638

> <Gold.Goldscore.Internal.Correction>
-0.7653

> <Gold.Goldscore.Hbonds>
donor molecule, donor type, donor heavy atom, donor atom, acceptor molecule, acceptor atom, score
      P1  H  6794  6850       L1    17  0.63

> <Gold.Goldscore.Internal.Vdw.Weighted>
-0.7892

> <Gold.Goldscore.Internal.Torsion.Weighted>
-0.5806

> <Gold.Goldscore.External.Vdw.Weighted>
27.1510

> <Gold.Goldscore.Internal.HBond.Weighted>
0.0000

> <Gold.Goldscore.External.HBond.Weighted>
3.7638

> <Gold.Goldscore.Internal.Correction.Weighted>
-0.7653

> <Gold.Rescore>
     Score     S(PLP)   S(hbond)     S(cho)   S(metal)  DE(clash)   DE(tors)     intcor
     30.94     -30.01       0.99       0.00       0.00       0.06       1.00       ----

> <Gold.PLP.Fitness>
30.9359

> <Gold.PLP.PLP>
-30.0121

> <Gold.PLP.part.hbond>
-2.0000

> <Gold.PLP.part.metal>
0.0000

> <Gold.PLP.part.buried>
-5.8488

> <Gold.PLP.part.nonpolar>
-23.6678

> <Gold.PLP.part.repulsive>
0.3242

> <Gold.PLP.ligand.clash>
0.0616

> <Gold.PLP.ligand.torsion>
0.9953

> <Gold.PLP.Chemscore.Hbond>
0.9920

> <Gold.PLP.Chemscore.CHOScore>
0.0000

> <Gold.PLP.Chemscore.Metal>
0.0000

> <Gold.Chemscore.Hbonds>
donor molecule, donor type, donor heavy atom, donor atom, acceptor molecule, acceptor atom, score
      P1  H  6794  6850       L1    17  1.00

> <Gold.PLP.Chemscore.Internal.Correction>
   9.000000E+99

