#       Name:                CT1002167954
#       Creating user name   hitesit
#       Creation time:       Sun Apr 16 20:23:36 2023


#       File generated by GOLD software.
#

@<TRIPOS>MOLECULE
CT1002167954|ligand_prepared|mol2|1|dock8
    29    30     1
SMALL
NO_CHARGES


@<TRIPOS>ATOM
      1 C1         191.7707  -7.4186  45.1065 C.3            1 RES1               0.0000
      2 C2         191.6342  -6.6628  46.4440 C.ar           1 RES1               0.0000
      3 C3         190.3867  -7.4060  44.4640 C.2            1 RES1               0.0000
      4 C4         192.8355  -6.6783  44.3049 C.2            1 RES1               0.0000
      5 C5         192.2261  -8.8882  45.2630 C.3            1 RES1               0.0000
      6 C6         190.5468  -5.8261  46.6773 C.ar           1 RES1               0.0000
      7 C7         192.5844  -6.7939  47.4532 C.ar           1 RES1               0.0000
      8 N8         190.1927  -6.5780  43.3978 N.am           1 RES1               0.0000
      9 O9         189.4686  -8.0826  44.9107 O.2            1 RES1               0.0000
     10 N10        192.4485  -6.0488  43.1509 N.am           1 RES1               0.0000
     11 O11        194.0030  -6.6204  44.6709 O.2            1 RES1               0.0000
     12 C12        192.2440  -9.6669  43.9571 C.3            1 RES1               0.0000
     13 C13        190.4126  -5.1475  47.8772 C.ar           1 RES1               0.0000
     14 C14        192.4484  -6.1141  48.6523 C.ar           1 RES1               0.0000
     15 C15        191.1695  -5.9392  42.6771 C.2            1 RES1               0.0000
     16 C16        191.3629  -5.2913  48.8656 C.ar           1 RES1               0.0000
     17 O17        190.8931  -5.3100  41.6599 O.2            1 RES1               0.0000
     18 H18        193.2341  -8.9013  45.6958 H              1 RES1               0.0000
     19 H19        191.5527  -9.3936  45.9662 H              1 RES1               0.0000
     20 H20        189.7902  -5.6986  45.9103 H              1 RES1               0.0000
     21 H21        193.4471  -7.4350  47.3072 H              1 RES1               0.0000
     22 H22        189.2324  -6.4191  43.1098 H              1 RES1               0.0000
     23 H23        193.1818  -5.6225  42.5933 H              1 RES1               0.0000
     24 H24        192.5707 -10.6913  44.1233 H              1 RES1               0.0000
     25 H25        191.2519  -9.6957  43.5115 H              1 RES1               0.0000
     26 H26        192.9232  -9.2063  43.2427 H              1 RES1               0.0000
     27 H27        189.5573  -4.5000  48.0396 H              1 RES1               0.0000
     28 H28        193.1990  -6.2298  49.4272 H              1 RES1               0.0000
     29 H29        191.2574  -4.7598  49.8056 H              1 RES1               0.0000
@<TRIPOS>BOND
    1    1    2 1     
    2    1    3 1     
    3    1    4 1     
    4    1    5 1     
    5    2    6 ar    
    6    2    7 ar    
    7    3    8 1     
    8    3    9 2     
    9    4   10 1     
   10    4   11 2     
   11    5   12 1     
   12    5   18 1     
   13    5   19 1     
   14    6   13 ar    
   15    6   20 1     
   16    7   14 ar    
   17    7   21 1     
   18    8   15 1     
   19    8   22 1     
   20   10   15 1     
   21   10   23 1     
   22   12   24 1     
   23   12   25 1     
   24   12   26 1     
   25   13   16 ar    
   26   13   27 1     
   27   14   16 ar    
   28   14   28 1     
   29   15   17 2     
   30   16   29 1     
@<TRIPOS>SUBSTRUCTURE
      1 RES1           1
@<TRIPOS>SET
DONOR_HYDROGENS      STATIC     ATOMS    <user>   **** ""
2 22 23
ATOM$RED        STATIC     ATOMS    COLORGROUP SYSTEM
2 22 23
@<TRIPOS>COMMENT
> <Gold.Version>
2022.3.0

> <Gold.Id.Protein>
unknown|4d1n_clean|pdb

> <Gold.Protein.RotatedTorsions>
[ 6603 6557 6558 6559 ] final  165.02 input  116.17 | X-H torsion
[ 6691 6637 6638 6639 ] final   99.78 input  120.05 | X-H torsion
[ 8044 8009 8010 8011 ] final  173.26 input   40.01 | X-H torsion
[ 8121 8086 8087 8088 ] final -175.03 input   93.99 | X-H torsion
[ 8189 8152 8153 8154 ] final  165.59 input   75.44 | X-H torsion
[ 8262 8220 8221 8222 ] final  146.24 input   81.29 | X-H torsion
[ 9571 9520 9519 9517 ] final  162.98 input   60.00 | X-H torsion
[ 8325 8297 8298 8299 ] final   24.70 input   91.63 | X-H torsion
[ 10215 10169 10170 10171 ] final  -33.47 input   34.07 | X-H torsion
[ 7962 7922 7923 7924 ] final  149.24 input   79.92 | X-H torsion
[ 7898 7875 7876 7877 ] final  122.47 input   91.72 | X-H torsion
[ 7902 7880 7879 7876 ] final -143.54 input   60.02 | X-H torsion
[ 6839 6786 6787 6788 ] final   70.71 input  113.73 | X-H torsion
[ 27193 6320 6319 6318 ] final -163.98 input    0.00 | X-H torsion
[ 27196 6560 6559 6558 ] final  -89.15 input    0.00 | X-H torsion
[ 27199 7878 7877 7876 ] final  165.32 input    0.00 | X-H torsion
[ 27202 8012 8011 8010 ] final   69.90 input    0.00 | X-H torsion
[ 27205 8089 8088 8087 ] final  150.10 input   -0.00 | X-H torsion
[ 27208 8155 8154 8153 ] final   86.24 input   -0.00 | X-H torsion
[ 27214 10086 10085 10084 ] final -101.61 input    0.00 | X-H torsion
[ 27217 10172 10171 10170 ] final   46.26 input    0.00 | X-H torsion
[ 27220 6367 6366 6365 ] final -155.47 input    0.00 | X-H torsion
[ 27222 7925 7924 7923 ] final  -73.35 input   -0.00 | X-H torsion
[ 27224 7790 7789 7788 ] final  175.51 input   -0.00 | X-H torsion

> <Gold.Protein.ActiveResidues>
 ASP403  THR404  LEU406  ILE407  TYR408  ALA410  LYS411  TRP414  TRP426  SER427 
 LYS428  LEU429  GLN430  VAL431  PHE432  ASP433  TYR453  SER462  ALA463  ILE464 

> <Gold.Protein.RotatedAtoms>
  195.3163   -3.4134   37.3857 H   0  0  0  0  0  0  0  0  0  0  0  0  # atno 6603 bound_to 6557
  198.0705   -3.1361   38.8453 H   0  0  0  0  0  0  0  0  0  0  0  0  # atno 6691 bound_to 6637
  197.3991    0.5620   41.9548 H   0  0  0  0  0  0  0  0  0  0  0  0  # atno 6839 bound_to 6786
  197.7837   -0.7000   50.5587 H   0  0  0  0  0  0  0  0  0  0  0  0  # atno 7898 bound_to 7875
  198.9782   -3.5969   51.0998 H   0  0  0  0  0  0  0  0  0  0  0  0  # atno 7902 bound_to 7880
  195.5046   -2.4237   50.7481 H   0  0  0  0  0  0  0  0  0  0  0  0  # atno 7962 bound_to 7922
  193.1385   -1.8943   48.7318 H   0  0  0  0  0  0  0  0  0  0  0  0  # atno 8044 bound_to 8009
  190.0826   -2.7172   46.8553 H   0  0  0  0  0  0  0  0  0  0  0  0  # atno 8121 bound_to 8086
  190.4327   -2.8164   43.2647 H   0  0  0  0  0  0  0  0  0  0  0  0  # atno 8189 bound_to 8152
  187.5181   -1.7163   40.8587 H   0  0  0  0  0  0  0  0  0  0  0  0  # atno 8262 bound_to 8220
  186.7352   -3.1236   36.7317 H   0  0  0  0  0  0  0  0  0  0  0  0  # atno 8325 bound_to 8297
  185.6470   -6.0535   47.9697 H   0  0  0  0  0  0  0  0  0  0  0  0  # atno 9571 bound_to 9520
  187.0256    0.9701   43.3176 H   0  0  0  0  0  0  0  0  0  0  0  0  # atno 10215 bound_to 10169
  196.3224   -5.0588   36.9265 LP  0  0  0  0  0  0  0  0  0  0  0  0  # atno 27193 bound_to 6320
  194.7345   -4.7954   36.2867 LP  0  0  0  0  0  0  0  0  0  0  0  0  # atno 27194 bound_to 6320
  196.6094   -2.2794   37.6904 LP  0  0  0  0  0  0  0  0  0  0  0  0  # atno 27195 bound_to 6557
  196.6234   -0.5896   40.9520 LP  0  0  0  0  0  0  0  0  0  0  0  0  # atno 27196 bound_to 6560
  196.6010   -1.9018   42.0824 LP  0  0  0  0  0  0  0  0  0  0  0  0  # atno 27197 bound_to 6560
  197.1650   -2.7158   40.2836 LP  0  0  0  0  0  0  0  0  0  0  0  0  # atno 27198 bound_to 6637
  194.8163   -4.4176   48.5938 LP  0  0  0  0  0  0  0  0  0  0  0  0  # atno 27199 bound_to 7878
  196.1702   -3.9522   47.6190 LP  0  0  0  0  0  0  0  0  0  0  0  0  # atno 27200 bound_to 7878
  192.5144   -3.3131   47.9248 LP  0  0  0  0  0  0  0  0  0  0  0  0  # atno 27201 bound_to 8009
  192.4091   -3.8690   45.7938 LP  0  0  0  0  0  0  0  0  0  0  0  0  # atno 27202 bound_to 8012
  192.0808   -2.8920   44.4017 LP  0  0  0  0  0  0  0  0  0  0  0  0  # atno 27203 bound_to 8012
  190.2120   -1.3813   45.7328 LP  0  0  0  0  0  0  0  0  0  0  0  0  # atno 27204 bound_to 8086
  188.9871   -0.5004   42.9288 LP  0  0  0  0  0  0  0  0  0  0  0  0  # atno 27205 bound_to 8089
  187.8951   -0.9218   44.2055 LP  0  0  0  0  0  0  0  0  0  0  0  0  # atno 27206 bound_to 8089
  188.8519   -3.4220   42.8188 LP  0  0  0  0  0  0  0  0  0  0  0  0  # atno 27207 bound_to 8152
  188.2691   -4.6588   40.5586 LP  0  0  0  0  0  0  0  0  0  0  0  0  # atno 27208 bound_to 8155
  189.2084   -4.2722   39.1557 LP  0  0  0  0  0  0  0  0  0  0  0  0  # atno 27209 bound_to 8155
  188.7966   -1.8813   39.6822 LP  0  0  0  0  0  0  0  0  0  0  0  0  # atno 27210 bound_to 8220
  186.0688   -4.5732   48.4981 LP  0  0  0  0  0  0  0  0  0  0  0  0  # atno 27211 bound_to 9520
  186.5337   -5.0773   47.0161 LP  0  0  0  0  0  0  0  0  0  0  0  0  # atno 27212 bound_to 9520
  188.1768   -2.5495   37.5402 LP  0  0  0  0  0  0  0  0  0  0  0  0  # atno 27213 bound_to 8297
  188.4957   -1.1302   47.4198 LP  0  0  0  0  0  0  0  0  0  0  0  0  # atno 27214 bound_to 10086
  186.8540   -1.2031   47.9670 LP  0  0  0  0  0  0  0  0  0  0  0  0  # atno 27215 bound_to 10086
  188.5194    1.4867   44.0683 LP  0  0  0  0  0  0  0  0  0  0  0  0  # atno 27216 bound_to 10169
  187.4586   -0.0524   41.5047 LP  0  0  0  0  0  0  0  0  0  0  0  0  # atno 27217 bound_to 10172
  187.9476    0.2513   39.8711 LP  0  0  0  0  0  0  0  0  0  0  0  0  # atno 27218 bound_to 10172
  195.0857   -1.8515   49.1482 LP  0  0  0  0  0  0  0  0  0  0  0  0  # atno 27219 bound_to 7922
  198.3649   -4.0451   37.9792 LP  0  0  0  0  0  0  0  0  0  0  0  0  # atno 27220 bound_to 6367
  198.3308   -5.6064   38.7284 LP  0  0  0  0  0  0  0  0  0  0  0  0  # atno 27221 bound_to 6367
  191.1009   -1.4326   50.4295 LP  0  0  0  0  0  0  0  0  0  0  0  0  # atno 27222 bound_to 7925
  192.1228   -0.2405   49.6982 LP  0  0  0  0  0  0  0  0  0  0  0  0  # atno 27223 bound_to 7925
  196.1866   -0.5370   47.5804 LP  0  0  0  0  0  0  0  0  0  0  0  0  # atno 27224 bound_to 7790
  195.8425    1.1528   47.7430 LP  0  0  0  0  0  0  0  0  0  0  0  0  # atno 27225 bound_to 7790
  196.4001   -0.1368   49.6621 LP  0  0  0  0  0  0  0  0  0  0  0  0  # atno 27226 bound_to 7875
  197.6776   -4.4293   50.5852 LP  0  0  0  0  0  0  0  0  0  0  0  0  # atno 27227 bound_to 7880
  197.5003   -2.9200   51.1827 LP  0  0  0  0  0  0  0  0  0  0  0  0  # atno 27228 bound_to 7880

> <Gold.Score>
     Fitness  S(hb_ext) S(vdw_ext)  S(hb_int)    S(int)      intcor
     34.12       9.72      18.77       0.00      -1.42      -0.77

> <Gold.Goldscore.Fitness>
34.1157

> <Gold.Goldscore.Internal.Vdw>
-1.7743

> <Gold.Goldscore.Internal.Torsion>
-0.4090

> <Gold.Goldscore.External.Vdw>
18.7712

> <Gold.Goldscore.Internal.HBond>
0.0000

> <Gold.Goldscore.External.HBond>
9.7234

> <Gold.Goldscore.Internal.Correction>
-0.7653

> <Gold.Goldscore.Hbonds>
donor molecule, donor type, donor heavy atom, donor atom, acceptor molecule, acceptor atom, score
      P1  H  6794  6850       L1    11  0.61
      P1  H  8093  8127       L1     9  0.04
      L1  H     8    22       P1  8094  1.00

> <Gold.Goldscore.Internal.Vdw.Weighted>
-1.7743

> <Gold.Goldscore.Internal.Torsion.Weighted>
-0.4090

> <Gold.Goldscore.External.Vdw.Weighted>
25.8104

> <Gold.Goldscore.Internal.HBond.Weighted>
0.0000

> <Gold.Goldscore.External.HBond.Weighted>
9.7234

> <Gold.Goldscore.Internal.Correction.Weighted>
-0.7653

> <Gold.Rescore>
     Score     S(PLP)   S(hbond)     S(cho)   S(metal)  DE(clash)   DE(tors)     intcor
     30.50     -23.60       2.99       0.00       0.00       2.06       0.01       ----

> <Gold.PLP.Fitness>
30.5042

> <Gold.PLP.PLP>
-23.5996

> <Gold.PLP.part.hbond>
-3.2899

> <Gold.PLP.part.metal>
0.0000

> <Gold.PLP.part.buried>
-1.6796

> <Gold.PLP.part.nonpolar>
-20.1114

> <Gold.PLP.part.repulsive>
1.7396

> <Gold.PLP.ligand.clash>
2.0563

> <Gold.PLP.ligand.torsion>
0.0065

> <Gold.PLP.Chemscore.Hbond>
2.9913

> <Gold.PLP.Chemscore.CHOScore>
0.0000

> <Gold.PLP.Chemscore.Metal>
0.0000

> <Gold.Chemscore.Hbonds>
donor molecule, donor type, donor heavy atom, donor atom, acceptor molecule, acceptor atom, score
      L1  H     8    22       P1  8094  0.40
      P1  H  6794  6850       L1    11  0.83
      P1  H  8093  8127       L1     9  0.83

> <Gold.PLP.Chemscore.Internal.Correction>
   9.000000E+99

