#       Name:                CT1002167954
#       Creating user name   hitesit
#       Creation time:       Sun Apr 16 20:23:33 2023


#       File generated by GOLD software.
#

@<TRIPOS>MOLECULE
CT1002167954|ligand_prepared|mol2|1|dock3
    29    30     1
SMALL
NO_CHARGES


@<TRIPOS>ATOM
      1 C1         191.2277  -7.3675  44.5624 C.3            1 RES1               0.0000
      2 C2         190.7837  -6.9193  45.9697 C.ar           1 RES1               0.0000
      3 C3         192.7090  -7.7173  44.6716 C.2            1 RES1               0.0000
      4 C4         190.3360  -8.5465  44.1890 C.2            1 RES1               0.0000
      5 C5         191.0589  -6.2784  43.4775 C.3            1 RES1               0.0000
      6 C6         191.1817  -5.6870  46.4794 C.ar           1 RES1               0.0000
      7 C7         189.9753  -7.7245  46.7676 C.ar           1 RES1               0.0000
      8 N8         193.0496  -9.0377  44.6498 N.am           1 RES1               0.0000
      9 O9         193.5616  -6.8496  44.8145 O.2            1 RES1               0.0000
     10 N10        190.9239  -9.7759  44.0449 N.am           1 RES1               0.0000
     11 O11        189.1270  -8.4251  44.0345 O.2            1 RES1               0.0000
     12 C12        191.3563  -6.7656  42.0681 C.3            1 RES1               0.0000
     13 C13        190.7837  -5.2734  47.7399 C.ar           1 RES1               0.0000
     14 C14        189.5785  -7.3091  48.0279 C.ar           1 RES1               0.0000
     15 C15        192.2353 -10.0807  44.2885 C.2            1 RES1               0.0000
     16 C16        189.9815  -6.0838  48.5147 C.ar           1 RES1               0.0000
     17 O17        192.6781 -11.2215  44.1895 O.2            1 RES1               0.0000
     18 H18        190.0288  -5.9030  43.5114 H              1 RES1               0.0000
     19 H19        191.7287  -5.4413  43.7103 H              1 RES1               0.0000
     20 H20        191.8150  -5.0368  45.8851 H              1 RES1               0.0000
     21 H21        189.6470  -8.6930  46.4057 H              1 RES1               0.0000
     22 H22        193.9975  -9.2711  44.9280 H              1 RES1               0.0000
     23 H23        190.3287 -10.5340  43.7265 H              1 RES1               0.0000
     24 H24        191.2227  -5.9626  41.3462 H              1 RES1               0.0000
     25 H25        192.3811  -7.1230  41.9917 H              1 RES1               0.0000
     26 H26        190.6912  -7.5819  41.7939 H              1 RES1               0.0000
     27 H27        191.1047  -4.3087  48.1189 H              1 RES1               0.0000
     28 H28        188.9477  -7.9504  48.6346 H              1 RES1               0.0000
     29 H29        189.6695  -5.7594  49.5019 H              1 RES1               0.0000
@<TRIPOS>BOND
    1    1    2 1     
    2    1    3 1     
    3    1    4 1     
    4    1    5 1     
    5    2    6 ar    
    6    2    7 ar    
    7    3    8 1     
    8    3    9 2     
    9    4   10 1     
   10    4   11 2     
   11    5   12 1     
   12    5   18 1     
   13    5   19 1     
   14    6   13 ar    
   15    6   20 1     
   16    7   14 ar    
   17    7   21 1     
   18    8   15 1     
   19    8   22 1     
   20   10   15 1     
   21   10   23 1     
   22   12   24 1     
   23   12   25 1     
   24   12   26 1     
   25   13   16 ar    
   26   13   27 1     
   27   14   16 ar    
   28   14   28 1     
   29   15   17 2     
   30   16   29 1     
@<TRIPOS>SUBSTRUCTURE
      1 RES1           1
@<TRIPOS>SET
DONOR_HYDROGENS      STATIC     ATOMS    <user>   **** ""
2 22 23
ATOM$RED        STATIC     ATOMS    COLORGROUP SYSTEM
2 22 23
@<TRIPOS>COMMENT
> <Gold.Version>
2022.3.0

> <Gold.Id.Protein>
unknown|4d1n_clean|pdb

> <Gold.Protein.RotatedTorsions>
[ 6603 6557 6558 6559 ] final -119.82 input  116.17 | X-H torsion
[ 6691 6637 6638 6639 ] final -176.54 input  120.05 | X-H torsion
[ 8044 8009 8010 8011 ] final  159.89 input   40.01 | X-H torsion
[ 8121 8086 8087 8088 ] final -101.57 input   93.99 | X-H torsion
[ 8189 8152 8153 8154 ] final  -63.09 input   75.44 | X-H torsion
[ 8262 8220 8221 8222 ] final  121.33 input   81.29 | X-H torsion
[ 9571 9520 9519 9517 ] final  -69.67 input   60.00 | X-H torsion
[ 8325 8297 8298 8299 ] final  120.19 input   91.63 | X-H torsion
[ 10215 10169 10170 10171 ] final  -59.82 input   34.07 | X-H torsion
[ 7962 7922 7923 7924 ] final -167.08 input   79.92 | X-H torsion
[ 7898 7875 7876 7877 ] final  130.69 input   91.72 | X-H torsion
[ 7902 7880 7879 7876 ] final -156.82 input   60.02 | X-H torsion
[ 6839 6786 6787 6788 ] final -169.33 input  113.73 | X-H torsion
[ 27193 6320 6319 6318 ] final -108.59 input    0.00 | X-H torsion
[ 27196 6560 6559 6558 ] final -119.82 input    0.00 | X-H torsion
[ 27199 7878 7877 7876 ] final  -80.34 input    0.00 | X-H torsion
[ 27202 8012 8011 8010 ] final  -43.10 input    0.00 | X-H torsion
[ 27205 8089 8088 8087 ] final  -56.04 input   -0.00 | X-H torsion
[ 27208 8155 8154 8153 ] final -151.40 input   -0.00 | X-H torsion
[ 27214 10086 10085 10084 ] final  -29.35 input    0.00 | X-H torsion
[ 27217 10172 10171 10170 ] final   15.38 input    0.00 | X-H torsion
[ 27220 6367 6366 6365 ] final  -33.51 input    0.00 | X-H torsion
[ 27222 7925 7924 7923 ] final -105.31 input   -0.00 | X-H torsion
[ 27224 7790 7789 7788 ] final  -23.85 input   -0.00 | X-H torsion

> <Gold.Protein.ActiveResidues>
 ASP403  THR404  LEU406  ILE407  TYR408  ALA410  LYS411  TRP414  TRP426  SER427 
 LYS428  LEU429  GLN430  VAL431  PHE432  ASP433  TYR453  SER462  ALA463  ILE464 

> <Gold.Protein.RotatedAtoms>
  195.2482   -2.3410   37.4463 H   0  0  0  0  0  0  0  0  0  0  0  0  # atno 6603 bound_to 6557
  197.7969   -3.7585   39.8195 H   0  0  0  0  0  0  0  0  0  0  0  0  # atno 6691 bound_to 6637
  195.9284    0.5698   42.3622 H   0  0  0  0  0  0  0  0  0  0  0  0  # atno 6839 bound_to 6786
  197.8524   -0.6435   50.4708 H   0  0  0  0  0  0  0  0  0  0  0  0  # atno 7898 bound_to 7875
  198.9768   -3.7970   51.0173 H   0  0  0  0  0  0  0  0  0  0  0  0  # atno 7902 bound_to 7880
  195.6599   -2.8647   50.2806 H   0  0  0  0  0  0  0  0  0  0  0  0  # atno 7962 bound_to 7922
  193.2897   -1.9115   48.5931 H   0  0  0  0  0  0  0  0  0  0  0  0  # atno 8044 bound_to 8009
  190.8623   -2.5506   46.1532 H   0  0  0  0  0  0  0  0  0  0  0  0  # atno 8121 bound_to 8086
  188.8181   -2.7658   43.1187 H   0  0  0  0  0  0  0  0  0  0  0  0  # atno 8189 bound_to 8152
  187.5351   -1.3689   40.7072 H   0  0  0  0  0  0  0  0  0  0  0  0  # atno 8262 bound_to 8220
  187.8924   -3.6122   37.1222 H   0  0  0  0  0  0  0  0  0  0  0  0  # atno 8325 bound_to 8297
  186.5565   -4.9702   47.0664 H   0  0  0  0  0  0  0  0  0  0  0  0  # atno 9571 bound_to 9520
  186.9097    1.2817   43.5490 H   0  0  0  0  0  0  0  0  0  0  0  0  # atno 10215 bound_to 10169
  196.2428   -4.5221   36.3316 LP  0  0  0  0  0  0  0  0  0  0  0  0  # atno 27193 bound_to 6320
  194.8140   -5.3320   36.8816 LP  0  0  0  0  0  0  0  0  0  0  0  0  # atno 27194 bound_to 6320
  196.6761   -3.3299   37.6310 LP  0  0  0  0  0  0  0  0  0  0  0  0  # atno 27195 bound_to 6557
  197.0599   -0.6489   41.0775 LP  0  0  0  0  0  0  0  0  0  0  0  0  # atno 27196 bound_to 6560
  196.1645   -1.8425   41.9569 LP  0  0  0  0  0  0  0  0  0  0  0  0  # atno 27197 bound_to 6560
  197.4293   -2.1145   39.3425 LP  0  0  0  0  0  0  0  0  0  0  0  0  # atno 27198 bound_to 6637
  195.2952   -3.6562   47.4497 LP  0  0  0  0  0  0  0  0  0  0  0  0  # atno 27199 bound_to 7878
  195.6913   -4.7136   48.7631 LP  0  0  0  0  0  0  0  0  0  0  0  0  # atno 27200 bound_to 7878
  192.3666   -3.2963   48.0602 LP  0  0  0  0  0  0  0  0  0  0  0  0  # atno 27201 bound_to 8009
  192.8066   -2.7283   45.0020 LP  0  0  0  0  0  0  0  0  0  0  0  0  # atno 27202 bound_to 8012
  191.6833   -4.0327   45.1935 LP  0  0  0  0  0  0  0  0  0  0  0  0  # atno 27203 bound_to 8012
  189.4558   -1.5429   46.4137 LP  0  0  0  0  0  0  0  0  0  0  0  0  # atno 27204 bound_to 8086
  187.6980   -1.0243   43.8829 LP  0  0  0  0  0  0  0  0  0  0  0  0  # atno 27205 bound_to 8089
  189.1842   -0.3979   43.2513 LP  0  0  0  0  0  0  0  0  0  0  0  0  # atno 27206 bound_to 8089
  190.4125   -3.4709   42.9600 LP  0  0  0  0  0  0  0  0  0  0  0  0  # atno 27207 bound_to 8152
  188.3755   -4.2512   39.1008 LP  0  0  0  0  0  0  0  0  0  0  0  0  # atno 27208 bound_to 8155
  189.1020   -4.6798   40.6136 LP  0  0  0  0  0  0  0  0  0  0  0  0  # atno 27209 bound_to 8155
  188.7798   -2.2231   39.8312 LP  0  0  0  0  0  0  0  0  0  0  0  0  # atno 27210 bound_to 8220
  185.6832   -6.0904   47.8607 LP  0  0  0  0  0  0  0  0  0  0  0  0  # atno 27211 bound_to 9520
  186.0032   -4.6514   48.5633 LP  0  0  0  0  0  0  0  0  0  0  0  0  # atno 27212 bound_to 9520
  187.0555   -2.0761   37.1619 LP  0  0  0  0  0  0  0  0  0  0  0  0  # atno 27213 bound_to 8297
  188.1877   -1.2442   48.3869 LP  0  0  0  0  0  0  0  0  0  0  0  0  # atno 27214 bound_to 10086
  187.1620   -1.0891   46.9999 LP  0  0  0  0  0  0  0  0  0  0  0  0  # atno 27215 bound_to 10086
  188.6318    1.1848   43.8440 LP  0  0  0  0  0  0  0  0  0  0  0  0  # atno 27216 bound_to 10169
  187.9173   -0.0071   41.5202 LP  0  0  0  0  0  0  0  0  0  0  0  0  # atno 27217 bound_to 10172
  187.4889    0.2060   39.8556 LP  0  0  0  0  0  0  0  0  0  0  0  0  # atno 27218 bound_to 10172
  194.9352   -1.4239   49.6013 LP  0  0  0  0  0  0  0  0  0  0  0  0  # atno 27219 bound_to 7922
  197.6043   -5.2242   38.5497 LP  0  0  0  0  0  0  0  0  0  0  0  0  # atno 27220 bound_to 6367
  199.0914   -4.4273   38.1580 LP  0  0  0  0  0  0  0  0  0  0  0  0  # atno 27221 bound_to 6367
  190.9025   -1.3302   50.0082 LP  0  0  0  0  0  0  0  0  0  0  0  0  # atno 27222 bound_to 7925
  192.3212   -0.3428   50.1195 LP  0  0  0  0  0  0  0  0  0  0  0  0  # atno 27223 bound_to 7925
  195.5917    1.0420   47.8415 LP  0  0  0  0  0  0  0  0  0  0  0  0  # atno 27224 bound_to 7790
  196.4373   -0.4262   47.4819 LP  0  0  0  0  0  0  0  0  0  0  0  0  # atno 27225 bound_to 7790
  196.3318   -0.1930   49.7497 LP  0  0  0  0  0  0  0  0  0  0  0  0  # atno 27226 bound_to 7875
  197.4910   -4.3187   50.6057 LP  0  0  0  0  0  0  0  0  0  0  0  0  # atno 27227 bound_to 7880
  197.6882   -2.8292   51.2453 LP  0  0  0  0  0  0  0  0  0  0  0  0  # atno 27228 bound_to 7880

> <Gold.Score>
     Fitness  S(hb_ext) S(vdw_ext)  S(hb_int)    S(int)      intcor
     28.24       7.13      16.40       0.00      -1.44      -0.77

> <Gold.Goldscore.Fitness>
28.2440

> <Gold.Goldscore.Internal.Vdw>
-1.7856

> <Gold.Goldscore.Internal.Torsion>
-0.4243

> <Gold.Goldscore.External.Vdw>
16.4039

> <Gold.Goldscore.Internal.HBond>
0.0000

> <Gold.Goldscore.External.HBond>
7.1331

> <Gold.Goldscore.Internal.Correction>
-0.7653

> <Gold.Goldscore.Hbonds>
donor molecule, donor type, donor heavy atom, donor atom, acceptor molecule, acceptor atom, score
      P1  H  6794  6850       L1     9  1.00
      P1  H  8093  8127       L1    11  0.57

> <Gold.Goldscore.Internal.Vdw.Weighted>
-1.7856

> <Gold.Goldscore.Internal.Torsion.Weighted>
-0.4243

> <Gold.Goldscore.External.Vdw.Weighted>
22.5554

> <Gold.Goldscore.Internal.HBond.Weighted>
0.0000

> <Gold.Goldscore.External.HBond.Weighted>
7.1331

> <Gold.Goldscore.Internal.Correction.Weighted>
-0.7653

> <Gold.Rescore>
     Score     S(PLP)   S(hbond)     S(cho)   S(metal)  DE(clash)   DE(tors)     intcor
     25.75     -21.40       2.00       0.00       0.00       0.98       0.33       ----

> <Gold.PLP.Fitness>
25.7548

> <Gold.PLP.PLP>
-21.3964

> <Gold.PLP.part.hbond>
-2.0000

> <Gold.PLP.part.metal>
0.0000

> <Gold.PLP.part.buried>
-3.0836

> <Gold.PLP.part.nonpolar>
-17.5205

> <Gold.PLP.part.repulsive>
0.1780

> <Gold.PLP.ligand.clash>
0.9766

> <Gold.PLP.ligand.torsion>
0.3325

> <Gold.PLP.Chemscore.Hbond>
2.0000

> <Gold.PLP.Chemscore.CHOScore>
0.0000

> <Gold.PLP.Chemscore.Metal>
0.0000

> <Gold.Chemscore.Hbonds>
donor molecule, donor type, donor heavy atom, donor atom, acceptor molecule, acceptor atom, score
      P1  H  6794  6850       L1     9  1.00
      P1  H  8093  8127       L1    11  1.00

> <Gold.PLP.Chemscore.Internal.Correction>
   9.000000E+99

