#       Name:                CT1002167954
#       Creating user name   hitesit
#       Creation time:       Sun Apr 16 20:23:32 2023


#       File generated by GOLD software.
#

@<TRIPOS>MOLECULE
CT1002167954|ligand_prepared|mol2|1|dock1
    29    30     1
SMALL
NO_CHARGES


@<TRIPOS>ATOM
      1 C1         191.7111  -7.1545  45.0073 C.3            1 RES1               0.0000
      2 C2         191.7152  -6.6510  46.4651 C.ar           1 RES1               0.0000
      3 C3         193.1341  -7.6182  44.7101 C.2            1 RES1               0.0000
      4 C4         190.6685  -8.2651  44.9425 C.2            1 RES1               0.0000
      5 C5         191.3212  -6.0723  43.9737 C.3            1 RES1               0.0000
      6 C6         192.6588  -7.1201  47.3741 C.ar           1 RES1               0.0000
      7 C7         190.7851  -5.7173  46.9142 C.ar           1 RES1               0.0000
      8 N8         193.3597  -8.9615  44.6426 N.am           1 RES1               0.0000
      9 O9         194.0520  -6.8183  44.5763 O.2            1 RES1               0.0000
     10 N10        191.1026  -9.5391  44.6851 N.am           1 RES1               0.0000
     11 O11        189.4769  -8.0512  45.1284 O.2            1 RES1               0.0000
     12 C12        191.6263  -6.4599  42.5353 C.3            1 RES1               0.0000
     13 C13        192.6740  -6.6700  48.6839 C.ar           1 RES1               0.0000
     14 C14        190.8019  -5.2687  48.2246 C.ar           1 RES1               0.0000
     15 C15        192.4043  -9.9426  44.5627 C.2            1 RES1               0.0000
     16 C16        191.7460  -5.7437  49.1098 C.ar           1 RES1               0.0000
     17 O17        192.7188 -11.1161  44.3859 O.2            1 RES1               0.0000
     18 H18        190.2471  -5.8683  44.0641 H              1 RES1               0.0000
     19 H19        191.8595  -5.1465  44.2116 H              1 RES1               0.0000
     20 H20        193.3955  -7.8511  47.0577 H              1 RES1               0.0000
     21 H21        190.0325  -5.3305  46.2356 H              1 RES1               0.0000
     22 H22        194.3284  -9.2646  44.6526 H              1 RES1               0.0000
     23 H23        190.3893 -10.2527  44.5743 H              1 RES1               0.0000
     24 H24        191.3335  -5.6660  41.8515 H              1 RES1               0.0000
     25 H25        192.6902  -6.6457  42.4033 H              1 RES1               0.0000
     26 H26        191.0874  -7.3632  42.2567 H              1 RES1               0.0000
     27 H27        193.4182  -7.0480  49.3770 H              1 RES1               0.0000
     28 H28        190.0692  -4.5401  48.5556 H              1 RES1               0.0000
     29 H29        191.7583  -5.3910  50.1358 H              1 RES1               0.0000
@<TRIPOS>BOND
    1    1    2 1     
    2    1    3 1     
    3    1    4 1     
    4    1    5 1     
    5    2    6 ar    
    6    2    7 ar    
    7    3    8 1     
    8    3    9 2     
    9    4   10 1     
   10    4   11 2     
   11    5   12 1     
   12    5   18 1     
   13    5   19 1     
   14    6   13 ar    
   15    6   20 1     
   16    7   14 ar    
   17    7   21 1     
   18    8   15 1     
   19    8   22 1     
   20   10   15 1     
   21   10   23 1     
   22   12   24 1     
   23   12   25 1     
   24   12   26 1     
   25   13   16 ar    
   26   13   27 1     
   27   14   16 ar    
   28   14   28 1     
   29   15   17 2     
   30   16   29 1     
@<TRIPOS>SUBSTRUCTURE
      1 RES1           1
@<TRIPOS>SET
DONOR_HYDROGENS      STATIC     ATOMS    <user>   **** ""
2 22 23
ATOM$RED        STATIC     ATOMS    COLORGROUP SYSTEM
2 22 23
@<TRIPOS>COMMENT
> <Gold.Version>
2022.3.0

> <Gold.Id.Protein>
unknown|4d1n_clean|pdb

> <Gold.Protein.RotatedTorsions>
[ 6603 6557 6558 6559 ] final  -93.72 input  116.17 | X-H torsion
[ 6691 6637 6638 6639 ] final   83.25 input  120.05 | X-H torsion
[ 8044 8009 8010 8011 ] final -116.80 input   40.01 | X-H torsion
[ 8121 8086 8087 8088 ] final -115.88 input   93.99 | X-H torsion
[ 8189 8152 8153 8154 ] final -117.77 input   75.44 | X-H torsion
[ 8262 8220 8221 8222 ] final   71.39 input   81.29 | X-H torsion
[ 9571 9520 9519 9517 ] final -130.81 input   60.00 | X-H torsion
[ 8325 8297 8298 8299 ] final  157.94 input   91.63 | X-H torsion
[ 10215 10169 10170 10171 ] final   15.49 input   34.07 | X-H torsion
[ 7962 7922 7923 7924 ] final  116.34 input   79.92 | X-H torsion
[ 7898 7875 7876 7877 ] final  -65.68 input   91.72 | X-H torsion
[ 7902 7880 7879 7876 ] final  -99.15 input   60.02 | X-H torsion
[ 6839 6786 6787 6788 ] final   -9.75 input  113.73 | X-H torsion
[ 27193 6320 6319 6318 ] final -118.14 input    0.00 | X-H torsion
[ 27196 6560 6559 6558 ] final  172.34 input    0.00 | X-H torsion
[ 27199 7878 7877 7876 ] final -118.82 input    0.00 | X-H torsion
[ 27202 8012 8011 8010 ] final -107.93 input    0.00 | X-H torsion
[ 27205 8089 8088 8087 ] final  -18.05 input   -0.00 | X-H torsion
[ 27208 8155 8154 8153 ] final   23.04 input   -0.00 | X-H torsion
[ 27214 10086 10085 10084 ] final -167.00 input    0.00 | X-H torsion
[ 27217 10172 10171 10170 ] final  144.99 input    0.00 | X-H torsion
[ 27220 6367 6366 6365 ] final  137.87 input    0.00 | X-H torsion
[ 27222 7925 7924 7923 ] final  101.37 input   -0.00 | X-H torsion
[ 27224 7790 7789 7788 ] final  -33.20 input   -0.00 | X-H torsion

> <Gold.Protein.ActiveResidues>
 ASP403  THR404  LEU406  ILE407  TYR408  ALA410  LYS411  TRP414  TRP426  SER427 
 LYS428  LEU429  GLN430  VAL431  PHE432  ASP433  TYR453  SER462  ALA463  ILE464 

> <Gold.Protein.RotatedAtoms>
  195.5349   -2.0730   37.5153 H   0  0  0  0  0  0  0  0  0  0  0  0  # atno 6603 bound_to 6557
  198.0153   -2.8936   38.7845 H   0  0  0  0  0  0  0  0  0  0  0  0  # atno 6691 bound_to 6637
  197.2252    1.6819   42.0612 H   0  0  0  0  0  0  0  0  0  0  0  0  # atno 6839 bound_to 6786
  196.4796   -0.0650   49.5952 H   0  0  0  0  0  0  0  0  0  0  0  0  # atno 7898 bound_to 7875
  198.6432   -3.0058   51.2982 H   0  0  0  0  0  0  0  0  0  0  0  0  # atno 7902 bound_to 7880
  195.2992   -1.9683   50.8088 H   0  0  0  0  0  0  0  0  0  0  0  0  # atno 7962 bound_to 7922
  192.2809   -2.3735   48.9801 H   0  0  0  0  0  0  0  0  0  0  0  0  # atno 8044 bound_to 8009
  190.7714   -2.6714   46.3149 H   0  0  0  0  0  0  0  0  0  0  0  0  # atno 8121 bound_to 8086
  189.4505   -2.3323   43.4029 H   0  0  0  0  0  0  0  0  0  0  0  0  # atno 8189 bound_to 8152
  187.8966   -0.9634   40.2005 H   0  0  0  0  0  0  0  0  0  0  0  0  # atno 8262 bound_to 8220
  188.2321   -3.2217   37.3726 H   0  0  0  0  0  0  0  0  0  0  0  0  # atno 8325 bound_to 8297
  186.1499   -5.8304   47.1076 H   0  0  0  0  0  0  0  0  0  0  0  0  # atno 9571 bound_to 9520
  187.6177    0.5800   43.1189 H   0  0  0  0  0  0  0  0  0  0  0  0  # atno 10215 bound_to 10169
  196.3112   -4.6007   36.4314 LP  0  0  0  0  0  0  0  0  0  0  0  0  # atno 27193 bound_to 6320
  194.7456   -5.2535   36.7818 LP  0  0  0  0  0  0  0  0  0  0  0  0  # atno 27194 bound_to 6320
  196.3952   -3.5924   37.5634 LP  0  0  0  0  0  0  0  0  0  0  0  0  # atno 27195 bound_to 6557
  197.4600   -1.2797   41.6908 LP  0  0  0  0  0  0  0  0  0  0  0  0  # atno 27196 bound_to 6560
  195.7644   -1.2117   41.3436 LP  0  0  0  0  0  0  0  0  0  0  0  0  # atno 27197 bound_to 6560
  197.2183   -2.9501   40.3423 LP  0  0  0  0  0  0  0  0  0  0  0  0  # atno 27198 bound_to 6637
  194.8203   -3.7811   47.7403 LP  0  0  0  0  0  0  0  0  0  0  0  0  # atno 27199 bound_to 7878
  196.1663   -4.5887   48.4725 LP  0  0  0  0  0  0  0  0  0  0  0  0  # atno 27200 bound_to 7878
  193.3519   -2.8451   47.6823 LP  0  0  0  0  0  0  0  0  0  0  0  0  # atno 27201 bound_to 8009
  192.1066   -2.8734   44.4095 LP  0  0  0  0  0  0  0  0  0  0  0  0  # atno 27202 bound_to 8012
  192.3832   -3.8876   45.7861 LP  0  0  0  0  0  0  0  0  0  0  0  0  # atno 27203 bound_to 8012
  189.5440   -1.4257   46.2569 LP  0  0  0  0  0  0  0  0  0  0  0  0  # atno 27204 bound_to 8086
  188.0246   -0.8594   44.3118 LP  0  0  0  0  0  0  0  0  0  0  0  0  # atno 27205 bound_to 8089
  188.8576   -0.5628   42.8224 LP  0  0  0  0  0  0  0  0  0  0  0  0  # atno 27206 bound_to 8089
  189.8013   -3.8899   42.6853 LP  0  0  0  0  0  0  0  0  0  0  0  0  # atno 27207 bound_to 8152
  189.1764   -4.6697   40.5760 LP  0  0  0  0  0  0  0  0  0  0  0  0  # atno 27208 bound_to 8155
  188.3011   -4.2612   39.1383 LP  0  0  0  0  0  0  0  0  0  0  0  0  # atno 27209 bound_to 8155
  188.4241   -2.6220   40.3296 LP  0  0  0  0  0  0  0  0  0  0  0  0  # atno 27210 bound_to 8220
  185.6077   -5.4881   48.6033 LP  0  0  0  0  0  0  0  0  0  0  0  0  # atno 27211 bound_to 9520
  186.4882   -4.3872   47.7792 LP  0  0  0  0  0  0  0  0  0  0  0  0  # atno 27212 bound_to 9520
  186.7264   -2.4544   36.9193 LP  0  0  0  0  0  0  0  0  0  0  0  0  # atno 27213 bound_to 8297
  187.7659   -1.0669   46.8380 LP  0  0  0  0  0  0  0  0  0  0  0  0  # atno 27214 bound_to 10086
  187.5838   -1.2664   48.5488 LP  0  0  0  0  0  0  0  0  0  0  0  0  # atno 27215 bound_to 10086
  187.9455    1.8648   44.2608 LP  0  0  0  0  0  0  0  0  0  0  0  0  # atno 27216 bound_to 10169
  186.9237    0.0767   40.3110 LP  0  0  0  0  0  0  0  0  0  0  0  0  # atno 27217 bound_to 10172
  188.4825    0.1222   41.0648 LP  0  0  0  0  0  0  0  0  0  0  0  0  # atno 27218 bound_to 10172
  195.2849   -2.2929   49.0893 LP  0  0  0  0  0  0  0  0  0  0  0  0  # atno 27219 bound_to 7922
  199.1496   -4.5325   38.2081 LP  0  0  0  0  0  0  0  0  0  0  0  0  # atno 27220 bound_to 6367
  197.5461   -5.1190   38.4996 LP  0  0  0  0  0  0  0  0  0  0  0  0  # atno 27221 bound_to 6367
  192.1685   -0.2451   49.7634 LP  0  0  0  0  0  0  0  0  0  0  0  0  # atno 27222 bound_to 7925
  191.0551   -1.4279   50.3643 LP  0  0  0  0  0  0  0  0  0  0  0  0  # atno 27223 bound_to 7925
  195.4862    0.9576   47.8824 LP  0  0  0  0  0  0  0  0  0  0  0  0  # atno 27224 bound_to 7790
  196.5429   -0.3418   47.4410 LP  0  0  0  0  0  0  0  0  0  0  0  0  # atno 27225 bound_to 7790
  197.6988   -0.7691   50.6216 LP  0  0  0  0  0  0  0  0  0  0  0  0  # atno 27226 bound_to 7875
  198.3844   -4.4802   50.6591 LP  0  0  0  0  0  0  0  0  0  0  0  0  # atno 27227 bound_to 7880
  197.1307   -3.4642   50.9091 LP  0  0  0  0  0  0  0  0  0  0  0  0  # atno 27228 bound_to 7880

> <Gold.Score>
     Fitness  S(hb_ext) S(vdw_ext)  S(hb_int)    S(int)      intcor
     29.69       6.42      17.59       0.00      -0.91      -0.82

> <Gold.Goldscore.Fitness>
29.6935

> <Gold.Goldscore.Internal.Vdw>
-1.0799

> <Gold.Goldscore.Internal.Torsion>
-0.6551

> <Gold.Goldscore.External.Vdw>
17.5882

> <Gold.Goldscore.Internal.HBond>
0.0000

> <Gold.Goldscore.External.HBond>
6.4244

> <Gold.Goldscore.Internal.Correction>
-0.8203

> <Gold.Goldscore.Hbonds>
donor molecule, donor type, donor heavy atom, donor atom, acceptor molecule, acceptor atom, score
      P1  H  6794  6850       L1     9  1.00
      P1  H  8093  8127       L1    11  0.22

> <Gold.Goldscore.Internal.Vdw.Weighted>
-1.0799

> <Gold.Goldscore.Internal.Torsion.Weighted>
-0.6551

> <Gold.Goldscore.External.Vdw.Weighted>
24.1838

> <Gold.Goldscore.Internal.HBond.Weighted>
0.0000

> <Gold.Goldscore.External.HBond.Weighted>
6.4244

> <Gold.Goldscore.Internal.Correction.Weighted>
-0.8203

> <Gold.Rescore>
     Score     S(PLP)   S(hbond)     S(cho)   S(metal)  DE(clash)   DE(tors)     intcor
     31.89     -28.68       1.84       0.00       0.00       1.51       0.40       ----

> <Gold.PLP.Fitness>
31.8920

> <Gold.PLP.PLP>
-28.6802

> <Gold.PLP.part.hbond>
-1.9095

> <Gold.PLP.part.metal>
0.0000

> <Gold.PLP.part.buried>
-4.8543

> <Gold.PLP.part.nonpolar>
-22.5690

> <Gold.PLP.part.repulsive>
0.1375

> <Gold.PLP.ligand.clash>
1.5094

> <Gold.PLP.ligand.torsion>
0.3994

> <Gold.PLP.Chemscore.Hbond>
1.8400

> <Gold.PLP.Chemscore.CHOScore>
0.0000

> <Gold.PLP.Chemscore.Metal>
0.0000

> <Gold.Chemscore.Hbonds>
donor molecule, donor type, donor heavy atom, donor atom, acceptor molecule, acceptor atom, score
      P1  H  6794  6850       L1     9  1.00
      P1  H  8093  8127       L1    11  0.74

> <Gold.PLP.Chemscore.Internal.Correction>
   9.000000E+99

