#       Name:                CT1002167954
#       Creating user name   hitesit
#       Creation time:       Sun Apr 16 20:23:37 2023


#       File generated by GOLD software.
#

@<TRIPOS>MOLECULE
CT1002167954|ligand_prepared|mol2|1|dock9
    29    30     1
SMALL
NO_CHARGES


@<TRIPOS>ATOM
      1 C1         191.8375  -7.0873  45.9029 C.3            1 RES1               0.0000
      2 C2         191.5206  -6.6116  44.4704 C.ar           1 RES1               0.0000
      3 C3         190.6426  -7.9240  46.3506 C.2            1 RES1               0.0000
      4 C4         193.1447  -7.8671  45.8141 C.2            1 RES1               0.0000
      5 C5         192.0366  -5.9345  46.9143 C.3            1 RES1               0.0000
      6 C6         190.5129  -7.2202  43.7282 C.ar           1 RES1               0.0000
      7 C7         192.2244  -5.5656  43.8795 C.ar           1 RES1               0.0000
      8 N8         190.8039  -9.2770  46.4058 N.am           1 RES1               0.0000
      9 O9         189.5634  -7.4075  46.6132 O.2            1 RES1               0.0000
     10 N10        193.1108  -9.2101  46.0840 N.am           1 RES1               0.0000
     11 O11        194.2007  -7.3338  45.4966 O.2            1 RES1               0.0000
     12 C12        192.1829  -6.4007  48.3543 C.3            1 RES1               0.0000
     13 C13        190.2173  -6.7965  42.4431 C.ar           1 RES1               0.0000
     14 C14        191.9274  -5.1436  42.5942 C.ar           1 RES1               0.0000
     15 C15        191.9941  -9.9563  46.3459 C.2            1 RES1               0.0000
     16 C16        190.9239  -5.7578  41.8754 C.ar           1 RES1               0.0000
     17 O17        192.0372 -11.1701  46.5247 O.2            1 RES1               0.0000
     18 H18        192.9337  -5.3692  46.6333 H              1 RES1               0.0000
     19 H19        191.1779  -5.2550  46.8488 H              1 RES1               0.0000
     20 H20        189.9477  -8.0408  44.1575 H              1 RES1               0.0000
     21 H21        193.0187  -5.0683  44.4258 H              1 RES1               0.0000
     22 H22        189.9615  -9.8355  46.5002 H              1 RES1               0.0000
     23 H23        194.0004  -9.6989  46.0905 H              1 RES1               0.0000
     24 H24        192.3200  -5.5529  49.0221 H              1 RES1               0.0000
     25 H25        191.2974  -6.9453  48.6753 H              1 RES1               0.0000
     26 H26        193.0428  -7.0588  48.4611 H              1 RES1               0.0000
     27 H27        189.4276  -7.2841  41.8812 H              1 RES1               0.0000
     28 H28        192.4866  -4.3261  42.1511 H              1 RES1               0.0000
     29 H29        190.6920  -5.4258  40.8689 H              1 RES1               0.0000
@<TRIPOS>BOND
    1    1    2 1     
    2    1    3 1     
    3    1    4 1     
    4    1    5 1     
    5    2    6 ar    
    6    2    7 ar    
    7    3    8 1     
    8    3    9 2     
    9    4   10 1     
   10    4   11 2     
   11    5   12 1     
   12    5   18 1     
   13    5   19 1     
   14    6   13 ar    
   15    6   20 1     
   16    7   14 ar    
   17    7   21 1     
   18    8   15 1     
   19    8   22 1     
   20   10   15 1     
   21   10   23 1     
   22   12   24 1     
   23   12   25 1     
   24   12   26 1     
   25   13   16 ar    
   26   13   27 1     
   27   14   16 ar    
   28   14   28 1     
   29   15   17 2     
   30   16   29 1     
@<TRIPOS>SUBSTRUCTURE
      1 RES1           1
@<TRIPOS>SET
DONOR_HYDROGENS      STATIC     ATOMS    <user>   **** ""
2 22 23
ATOM$RED        STATIC     ATOMS    COLORGROUP SYSTEM
2 22 23
@<TRIPOS>COMMENT
> <Gold.Version>
2022.3.0

> <Gold.Id.Protein>
unknown|4d1n_clean|pdb

> <Gold.Protein.RotatedTorsions>
[ 6603 6557 6558 6559 ] final  -81.65 input  116.17 | X-H torsion
[ 6691 6637 6638 6639 ] final  -54.34 input  120.05 | X-H torsion
[ 8044 8009 8010 8011 ] final  -81.62 input   40.01 | X-H torsion
[ 8121 8086 8087 8088 ] final -143.81 input   93.99 | X-H torsion
[ 8189 8152 8153 8154 ] final  -66.00 input   75.44 | X-H torsion
[ 8262 8220 8221 8222 ] final  -53.68 input   81.29 | X-H torsion
[ 9571 9520 9519 9517 ] final  -77.30 input   60.00 | X-H torsion
[ 8325 8297 8298 8299 ] final  155.09 input   91.63 | X-H torsion
[ 10215 10169 10170 10171 ] final -141.34 input   34.07 | X-H torsion
[ 7962 7922 7923 7924 ] final   -7.57 input   79.92 | X-H torsion
[ 7898 7875 7876 7877 ] final  163.38 input   91.72 | X-H torsion
[ 7902 7880 7879 7876 ] final  179.47 input   60.02 | X-H torsion
[ 6839 6786 6787 6788 ] final -140.17 input  113.73 | X-H torsion
[ 27193 6320 6319 6318 ] final -134.57 input    0.00 | X-H torsion
[ 27196 6560 6559 6558 ] final   56.53 input    0.00 | X-H torsion
[ 27199 7878 7877 7876 ] final -153.04 input    0.00 | X-H torsion
[ 27202 8012 8011 8010 ] final -139.43 input    0.00 | X-H torsion
[ 27205 8089 8088 8087 ] final  157.35 input   -0.00 | X-H torsion
[ 27208 8155 8154 8153 ] final   41.18 input   -0.00 | X-H torsion
[ 27214 10086 10085 10084 ] final -171.04 input    0.00 | X-H torsion
[ 27217 10172 10171 10170 ] final  -10.36 input    0.00 | X-H torsion
[ 27220 6367 6366 6365 ] final  168.57 input    0.00 | X-H torsion
[ 27222 7925 7924 7923 ] final  -85.37 input   -0.00 | X-H torsion
[ 27224 7790 7789 7788 ] final  140.38 input   -0.00 | X-H torsion

> <Gold.Protein.ActiveResidues>
 ASP403  THR404  LEU406  ILE407  TYR408  ALA410  LYS411  TRP414  TRP426  SER427 
 LYS428  LEU429  GLN430  VAL431  PHE432  ASP433  TYR453  SER462  ALA463  ILE464 

> <Gold.Protein.RotatedAtoms>
  195.7019   -1.9998   37.5499 H   0  0  0  0  0  0  0  0  0  0  0  0  # atno 6603 bound_to 6557
  197.1583   -2.3652   40.1047 H   0  0  0  0  0  0  0  0  0  0  0  0  # atno 6691 bound_to 6637
  195.8224    0.9977   42.4138 H   0  0  0  0  0  0  0  0  0  0  0  0  # atno 6839 bound_to 6786
  197.9618   -0.3838   50.0684 H   0  0  0  0  0  0  0  0  0  0  0  0  # atno 7898 bound_to 7875
  198.8534   -4.1281   50.8645 H   0  0  0  0  0  0  0  0  0  0  0  0  # atno 7902 bound_to 7880
  194.9580   -1.5762   49.3290 H   0  0  0  0  0  0  0  0  0  0  0  0  # atno 7962 bound_to 7922
  192.0712   -2.8062   48.7468 H   0  0  0  0  0  0  0  0  0  0  0  0  # atno 8044 bound_to 8009
  190.4892   -2.7902   46.6150 H   0  0  0  0  0  0  0  0  0  0  0  0  # atno 8121 bound_to 8086
  188.8373   -2.7299   43.1387 H   0  0  0  0  0  0  0  0  0  0  0  0  # atno 8189 bound_to 8152
  188.8062   -2.1638   39.7891 H   0  0  0  0  0  0  0  0  0  0  0  0  # atno 8262 bound_to 8220
  188.2165   -3.2597   37.3560 H   0  0  0  0  0  0  0  0  0  0  0  0  # atno 8325 bound_to 8297
  186.5279   -5.0822   47.0196 H   0  0  0  0  0  0  0  0  0  0  0  0  # atno 9571 bound_to 9520
  187.6010    1.9288   44.2196 H   0  0  0  0  0  0  0  0  0  0  0  0  # atno 10215 bound_to 10169
  196.3773   -4.7556   36.6128 LP  0  0  0  0  0  0  0  0  0  0  0  0  # atno 27193 bound_to 6320
  194.6796   -5.0986   36.6004 LP  0  0  0  0  0  0  0  0  0  0  0  0  # atno 27194 bound_to 6320
  196.2316   -3.6641   37.5296 LP  0  0  0  0  0  0  0  0  0  0  0  0  # atno 27195 bound_to 6557
  196.1187   -1.8235   41.9327 LP  0  0  0  0  0  0  0  0  0  0  0  0  # atno 27196 bound_to 6560
  197.1057   -0.6679   41.1017 LP  0  0  0  0  0  0  0  0  0  0  0  0  # atno 27197 bound_to 6560
  198.0462   -3.4606   39.0669 LP  0  0  0  0  0  0  0  0  0  0  0  0  # atno 27198 bound_to 6637
  194.6395   -4.0432   48.1383 LP  0  0  0  0  0  0  0  0  0  0  0  0  # atno 27199 bound_to 7878
  196.3470   -4.3266   48.0745 LP  0  0  0  0  0  0  0  0  0  0  0  0  # atno 27200 bound_to 7878
  193.5567   -2.4225   47.9101 LP  0  0  0  0  0  0  0  0  0  0  0  0  # atno 27201 bound_to 8009
  191.7688   -3.2001   44.3972 LP  0  0  0  0  0  0  0  0  0  0  0  0  # atno 27202 bound_to 8012
  192.7210   -3.5609   45.7984 LP  0  0  0  0  0  0  0  0  0  0  0  0  # atno 27203 bound_to 8012
  189.8177   -1.3105   45.9658 LP  0  0  0  0  0  0  0  0  0  0  0  0  # atno 27204 bound_to 8086
  188.9103   -0.5376   42.8602 LP  0  0  0  0  0  0  0  0  0  0  0  0  # atno 27205 bound_to 8089
  187.9719   -0.8846   44.2740 LP  0  0  0  0  0  0  0  0  0  0  0  0  # atno 27206 bound_to 8089
  190.3940   -3.5056   42.9406 LP  0  0  0  0  0  0  0  0  0  0  0  0  # atno 27207 bound_to 8152
  188.9221   -4.6949   40.6719 LP  0  0  0  0  0  0  0  0  0  0  0  0  # atno 27208 bound_to 8155
  188.5554   -4.2361   39.0425 LP  0  0  0  0  0  0  0  0  0  0  0  0  # atno 27209 bound_to 8155
  187.5294   -1.4411   40.7344 LP  0  0  0  0  0  0  0  0  0  0  0  0  # atno 27210 bound_to 8220
  185.6440   -6.0584   47.9757 LP  0  0  0  0  0  0  0  0  0  0  0  0  # atno 27211 bound_to 9520
  186.0712   -4.5705   48.4954 LP  0  0  0  0  0  0  0  0  0  0  0  0  # atno 27212 bound_to 9520
  186.7415   -2.4176   36.9354 LP  0  0  0  0  0  0  0  0  0  0  0  0  # atno 27213 bound_to 8297
  187.7049   -1.0668   46.8337 LP  0  0  0  0  0  0  0  0  0  0  0  0  # atno 27214 bound_to 10086
  187.6448   -1.2666   48.5531 LP  0  0  0  0  0  0  0  0  0  0  0  0  # atno 27215 bound_to 10086
  187.9617    0.5576   43.1941 LP  0  0  0  0  0  0  0  0  0  0  0  0  # atno 27216 bound_to 10169
  188.2584    0.0546   41.3510 LP  0  0  0  0  0  0  0  0  0  0  0  0  # atno 27217 bound_to 10172
  187.1478    0.1443   40.0249 LP  0  0  0  0  0  0  0  0  0  0  0  0  # atno 27218 bound_to 10172
  195.6155   -2.6729   50.5237 LP  0  0  0  0  0  0  0  0  0  0  0  0  # atno 27219 bound_to 7922
  198.8701   -4.2041   38.0523 LP  0  0  0  0  0  0  0  0  0  0  0  0  # atno 27220 bound_to 6367
  197.8256   -5.4474   38.6553 LP  0  0  0  0  0  0  0  0  0  0  0  0  # atno 27221 bound_to 6367
  191.0036   -1.4148   50.2775 LP  0  0  0  0  0  0  0  0  0  0  0  0  # atno 27222 bound_to 7925
  192.2201   -0.2582   49.8502 LP  0  0  0  0  0  0  0  0  0  0  0  0  # atno 27223 bound_to 7925
  196.6073   -0.2738   47.4163 LP  0  0  0  0  0  0  0  0  0  0  0  0  # atno 27224 bound_to 7790
  195.4217    0.8896   47.9072 LP  0  0  0  0  0  0  0  0  0  0  0  0  # atno 27225 bound_to 7790
  196.2228   -0.4517   50.1503 LP  0  0  0  0  0  0  0  0  0  0  0  0  # atno 27226 bound_to 7875
  197.2380   -4.0370   50.6877 LP  0  0  0  0  0  0  0  0  0  0  0  0  # atno 27227 bound_to 7880
  198.0655   -2.7777   51.3171 LP  0  0  0  0  0  0  0  0  0  0  0  0  # atno 27228 bound_to 7880

> <Gold.Score>
     Fitness  S(hb_ext) S(vdw_ext)  S(hb_int)    S(int)      intcor
     26.99       2.51      18.87       0.00      -1.46      -0.77

> <Gold.Goldscore.Fitness>
26.9869

> <Gold.Goldscore.Internal.Vdw>
-1.7822

> <Gold.Goldscore.Internal.Torsion>
-0.4462

> <Gold.Goldscore.External.Vdw>
18.8670

> <Gold.Goldscore.Internal.HBond>
0.0000

> <Gold.Goldscore.External.HBond>
2.5078

> <Gold.Goldscore.Internal.Correction>
-0.7653

> <Gold.Goldscore.Hbonds>
donor molecule, donor type, donor heavy atom, donor atom, acceptor molecule, acceptor atom, score
      P1  H  6794  6850       L1    11  0.42

> <Gold.Goldscore.Internal.Vdw.Weighted>
-1.7822

> <Gold.Goldscore.Internal.Torsion.Weighted>
-0.4462

> <Gold.Goldscore.External.Vdw.Weighted>
25.9421

> <Gold.Goldscore.Internal.HBond.Weighted>
0.0000

> <Gold.Goldscore.External.HBond.Weighted>
2.5078

> <Gold.Goldscore.Internal.Correction.Weighted>
-0.7653

> <Gold.Rescore>
     Score     S(PLP)   S(hbond)     S(cho)   S(metal)  DE(clash)   DE(tors)     intcor
     27.78     -27.19       0.98       0.00       0.00       1.22       0.56       ----

> <Gold.PLP.Fitness>
27.7821

> <Gold.PLP.PLP>
-27.1945

> <Gold.PLP.part.hbond>
-2.0000

> <Gold.PLP.part.metal>
0.0000

> <Gold.PLP.part.buried>
-0.1123

> <Gold.PLP.part.nonpolar>
-25.2246

> <Gold.PLP.part.repulsive>
0.0621

> <Gold.PLP.ligand.clash>
1.2231

> <Gold.PLP.ligand.torsion>
0.5587

> <Gold.PLP.Chemscore.Hbond>
0.9760

> <Gold.PLP.Chemscore.CHOScore>
0.0000

> <Gold.PLP.Chemscore.Metal>
0.0000

> <Gold.Chemscore.Hbonds>
donor molecule, donor type, donor heavy atom, donor atom, acceptor molecule, acceptor atom, score
      P1  H  6794  6850       L1    11  1.00

> <Gold.PLP.Chemscore.Internal.Correction>
   9.000000E+99

