#       Name:                CT1002167954
#       Creating user name   hitesit
#       Creation time:       Sun Apr 16 20:23:35 2023


#       File generated by GOLD software.
#

@<TRIPOS>MOLECULE
CT1002167954|ligand_prepared|mol2|1|dock6
    29    30     1
SMALL
NO_CHARGES


@<TRIPOS>ATOM
      1 C1         191.8697  -7.2151  44.8976 C.3            1 RES1               0.0000
      2 C2         191.7061  -6.5667  46.2875 C.ar           1 RES1               0.0000
      3 C3         190.4689  -7.3054  44.2995 C.2            1 RES1               0.0000
      4 C4         192.8226  -6.3165  44.1172 C.2            1 RES1               0.0000
      5 C5         192.4788  -8.6359  44.9388 C.3            1 RES1               0.0000
      6 C6         192.6907  -6.7163  47.2595 C.ar           1 RES1               0.0000
      7 C7         190.5795  -5.8153  46.6108 C.ar           1 RES1               0.0000
      8 N8         190.1516  -6.4345  43.2991 N.am           1 RES1               0.0000
      9 O9         189.6421  -8.1022  44.7259 O.2            1 RES1               0.0000
     10 N10        192.3306  -5.6569  43.0214 N.am           1 RES1               0.0000
     11 O11        193.9908  -6.1606  44.4510 O.2            1 RES1               0.0000
     12 C12        192.3972  -9.3766  43.6133 C.3            1 RES1               0.0000
     13 C13        192.5554  -6.1334  48.5086 C.ar           1 RES1               0.0000
     14 C14        190.4460  -5.2334  47.8607 C.ar           1 RES1               0.0000
     15 C15        191.0304  -5.6512  42.5950 C.2            1 RES1               0.0000
     16 C16        191.4334  -5.3913  48.8099 C.ar           1 RES1               0.0000
     17 O17        190.6535  -4.9892  41.6323 O.2            1 RES1               0.0000
     18 H18        193.5318  -8.5601  45.2367 H              1 RES1               0.0000
     19 H19        191.9553  -9.2225  45.7038 H              1 RES1               0.0000
     20 H20        193.5796  -7.2989  47.0414 H              1 RES1               0.0000
     21 H21        189.7895  -5.6786  45.8802 H              1 RES1               0.0000
     22 H22        189.1701  -6.3585  43.0517 H              1 RES1               0.0000
     23 H23        192.9952  -5.1206  42.4727 H              1 RES1               0.0000
     24 H24        192.8385 -10.3675  43.6974 H              1 RES1               0.0000
     25 H25        191.3620  -9.4922  43.2990 H              1 RES1               0.0000
     26 H26        192.9292  -8.8337  42.8347 H              1 RES1               0.0000
     27 H27        193.3347  -6.2618  49.2526 H              1 RES1               0.0000
     28 H28        189.5609  -4.6506  48.0937 H              1 RES1               0.0000
     29 H29        191.3278  -4.9344  49.7883 H              1 RES1               0.0000
@<TRIPOS>BOND
    1    1    2 1     
    2    1    3 1     
    3    1    4 1     
    4    1    5 1     
    5    2    6 ar    
    6    2    7 ar    
    7    3    8 1     
    8    3    9 2     
    9    4   10 1     
   10    4   11 2     
   11    5   12 1     
   12    5   18 1     
   13    5   19 1     
   14    6   13 ar    
   15    6   20 1     
   16    7   14 ar    
   17    7   21 1     
   18    8   15 1     
   19    8   22 1     
   20   10   15 1     
   21   10   23 1     
   22   12   24 1     
   23   12   25 1     
   24   12   26 1     
   25   13   16 ar    
   26   13   27 1     
   27   14   16 ar    
   28   14   28 1     
   29   15   17 2     
   30   16   29 1     
@<TRIPOS>SUBSTRUCTURE
      1 RES1           1
@<TRIPOS>SET
DONOR_HYDROGENS      STATIC     ATOMS    <user>   **** ""
2 22 23
ATOM$RED        STATIC     ATOMS    COLORGROUP SYSTEM
2 22 23
@<TRIPOS>COMMENT
> <Gold.Version>
2022.3.0

> <Gold.Id.Protein>
unknown|4d1n_clean|pdb

> <Gold.Protein.RotatedTorsions>
[ 6603 6557 6558 6559 ] final  -73.45 input  116.17 | X-H torsion
[ 6691 6637 6638 6639 ] final  103.81 input  120.05 | X-H torsion
[ 8044 8009 8010 8011 ] final  -12.17 input   40.01 | X-H torsion
[ 8121 8086 8087 8088 ] final -124.40 input   93.99 | X-H torsion
[ 8189 8152 8153 8154 ] final -169.40 input   75.44 | X-H torsion
[ 8262 8220 8221 8222 ] final -103.64 input   81.29 | X-H torsion
[ 9571 9520 9519 9517 ] final -124.92 input   60.00 | X-H torsion
[ 8325 8297 8298 8299 ] final  169.97 input   91.63 | X-H torsion
[ 10215 10169 10170 10171 ] final   72.88 input   34.07 | X-H torsion
[ 7962 7922 7923 7924 ] final  -31.62 input   79.92 | X-H torsion
[ 7898 7875 7876 7877 ] final   61.94 input   91.72 | X-H torsion
[ 7902 7880 7879 7876 ] final -135.61 input   60.02 | X-H torsion
[ 6839 6786 6787 6788 ] final  156.70 input  113.73 | X-H torsion
[ 27193 6320 6319 6318 ] final  157.84 input    0.00 | X-H torsion
[ 27196 6560 6559 6558 ] final -133.12 input    0.00 | X-H torsion
[ 27199 7878 7877 7876 ] final   56.83 input    0.00 | X-H torsion
[ 27202 8012 8011 8010 ] final   66.42 input    0.00 | X-H torsion
[ 27205 8089 8088 8087 ] final   54.88 input   -0.00 | X-H torsion
[ 27208 8155 8154 8153 ] final  109.57 input   -0.00 | X-H torsion
[ 27214 10086 10085 10084 ] final  136.24 input    0.00 | X-H torsion
[ 27217 10172 10171 10170 ] final    9.62 input    0.00 | X-H torsion
[ 27220 6367 6366 6365 ] final  110.87 input    0.00 | X-H torsion
[ 27222 7925 7924 7923 ] final  159.21 input   -0.00 | X-H torsion
[ 27224 7790 7789 7788 ] final   95.33 input   -0.00 | X-H torsion

> <Gold.Protein.ActiveResidues>
 ASP403  THR404  LEU406  ILE407  TYR408  ALA410  LYS411  TRP414  TRP426  SER427 
 LYS428  LEU429  GLN430  VAL431  PHE432  ASP433  TYR453  SER462  ALA463  ILE464 

> <Gold.Protein.RotatedAtoms>
  195.8225   -1.9712   37.5732 H   0  0  0  0  0  0  0  0  0  0  0  0  # atno 6603 bound_to 6557
  198.0784   -3.1932   38.8696 H   0  0  0  0  0  0  0  0  0  0  0  0  # atno 6691 bound_to 6637
  196.2848    0.2173   42.2452 H   0  0  0  0  0  0  0  0  0  0  0  0  # atno 6839 bound_to 6786
  196.9696   -0.8769   50.8421 H   0  0  0  0  0  0  0  0  0  0  0  0  # atno 7898 bound_to 7875
  198.9553   -3.4780   51.1457 H   0  0  0  0  0  0  0  0  0  0  0  0  # atno 7902 bound_to 7880
  195.0683   -1.8612   49.1197 H   0  0  0  0  0  0  0  0  0  0  0  0  # atno 7962 bound_to 7922
  192.4399   -3.3240   47.9654 H   0  0  0  0  0  0  0  0  0  0  0  0  # atno 8044 bound_to 8009
  190.6983   -2.7252   46.4107 H   0  0  0  0  0  0  0  0  0  0  0  0  # atno 8121 bound_to 8086
  190.1988   -2.5332   43.3817 H   0  0  0  0  0  0  0  0  0  0  0  0  # atno 8189 bound_to 8152
  188.4822   -2.6191   40.2789 H   0  0  0  0  0  0  0  0  0  0  0  0  # atno 8262 bound_to 8220
  188.2768   -3.0523   37.4356 H   0  0  0  0  0  0  0  0  0  0  0  0  # atno 8325 bound_to 8297
  186.2014   -5.7625   47.0629 H   0  0  0  0  0  0  0  0  0  0  0  0  # atno 9571 bound_to 9520
  188.4208    0.7002   43.3809 H   0  0  0  0  0  0  0  0  0  0  0  0  # atno 10215 bound_to 10169
  195.9546   -5.3909   37.2010 LP  0  0  0  0  0  0  0  0  0  0  0  0  # atno 27193 bound_to 6320
  195.1022   -4.4633   36.0122 LP  0  0  0  0  0  0  0  0  0  0  0  0  # atno 27194 bound_to 6320
  196.1135   -3.6922   37.5067 LP  0  0  0  0  0  0  0  0  0  0  0  0  # atno 27195 bound_to 6557
  197.2165   -0.7293   41.1736 LP  0  0  0  0  0  0  0  0  0  0  0  0  # atno 27196 bound_to 6560
  196.0078   -1.7621   41.8608 LP  0  0  0  0  0  0  0  0  0  0  0  0  # atno 27197 bound_to 6560
  197.1574   -2.6607   40.2601 LP  0  0  0  0  0  0  0  0  0  0  0  0  # atno 27198 bound_to 6637
  196.2045   -4.5616   48.4262 LP  0  0  0  0  0  0  0  0  0  0  0  0  # atno 27199 bound_to 7878
  194.7820   -3.8082   47.7866 LP  0  0  0  0  0  0  0  0  0  0  0  0  # atno 27200 bound_to 7878
  193.1967   -1.9168   48.6733 LP  0  0  0  0  0  0  0  0  0  0  0  0  # atno 27201 bound_to 8009
  192.4501   -3.8376   45.8042 LP  0  0  0  0  0  0  0  0  0  0  0  0  # atno 27202 bound_to 8012
  192.0397   -2.9234   44.3914 LP  0  0  0  0  0  0  0  0  0  0  0  0  # atno 27203 bound_to 8012
  189.6149   -1.3736   46.1640 LP  0  0  0  0  0  0  0  0  0  0  0  0  # atno 27204 bound_to 8086
  188.9631   -0.4498   44.2068 LP  0  0  0  0  0  0  0  0  0  0  0  0  # atno 27205 bound_to 8089
  187.9191   -0.9724   42.9274 LP  0  0  0  0  0  0  0  0  0  0  0  0  # atno 27206 bound_to 8089
  189.0780   -3.6956   42.7058 LP  0  0  0  0  0  0  0  0  0  0  0  0  # atno 27207 bound_to 8152
  188.0194   -4.5910   40.3227 LP  0  0  0  0  0  0  0  0  0  0  0  0  # atno 27208 bound_to 8155
  189.4581   -4.3399   39.3916 LP  0  0  0  0  0  0  0  0  0  0  0  0  # atno 27209 bound_to 8155
  187.8481   -0.9933   40.2526 LP  0  0  0  0  0  0  0  0  0  0  0  0  # atno 27210 bound_to 8220
  185.5903   -5.5726   48.5592 LP  0  0  0  0  0  0  0  0  0  0  0  0  # atno 27211 bound_to 9520
  186.4538   -4.3711   47.8683 LP  0  0  0  0  0  0  0  0  0  0  0  0  # atno 27212 bound_to 9520
  186.6830   -2.6186   36.8583 LP  0  0  0  0  0  0  0  0  0  0  0  0  # atno 27213 bound_to 8297
  187.0044   -1.1073   47.1484 LP  0  0  0  0  0  0  0  0  0  0  0  0  # atno 27214 bound_to 10086
  188.3453   -1.2260   48.2383 LP  0  0  0  0  0  0  0  0  0  0  0  0  # atno 27215 bound_to 10086
  187.1672    1.7483   44.0069 LP  0  0  0  0  0  0  0  0  0  0  0  0  # atno 27216 bound_to 10169
  187.9999    0.0053   41.4960 LP  0  0  0  0  0  0  0  0  0  0  0  0  # atno 27217 bound_to 10172
  187.4063    0.1937   39.8798 LP  0  0  0  0  0  0  0  0  0  0  0  0  # atno 27218 bound_to 10172
  195.5087   -2.3966   50.7265 LP  0  0  0  0  0  0  0  0  0  0  0  0  # atno 27219 bound_to 7922
  199.2108   -4.8930   38.3806 LP  0  0  0  0  0  0  0  0  0  0  0  0  # atno 27220 bound_to 6367
  197.4849   -4.7585   38.3270 LP  0  0  0  0  0  0  0  0  0  0  0  0  # atno 27221 bound_to 6367
  191.5086   -0.4561   49.2927 LP  0  0  0  0  0  0  0  0  0  0  0  0  # atno 27222 bound_to 7925
  191.7151   -1.2169   50.8350 LP  0  0  0  0  0  0  0  0  0  0  0  0  # atno 27223 bound_to 7925
  196.8180    0.3510   47.3414 LP  0  0  0  0  0  0  0  0  0  0  0  0  # atno 27224 bound_to 7790
  195.2111    0.2648   47.9820 LP  0  0  0  0  0  0  0  0  0  0  0  0  # atno 27225 bound_to 7790
  197.2108    0.0393   49.3800 LP  0  0  0  0  0  0  0  0  0  0  0  0  # atno 27226 bound_to 7875
  197.7994   -4.4759   50.5824 LP  0  0  0  0  0  0  0  0  0  0  0  0  # atno 27227 bound_to 7880
  197.4015   -2.9932   51.1393 LP  0  0  0  0  0  0  0  0  0  0  0  0  # atno 27228 bound_to 7880

> <Gold.Score>
     Fitness  S(hb_ext) S(vdw_ext)  S(hb_int)    S(int)      intcor
     34.81       8.64      19.78       0.00      -1.02      -0.77

> <Gold.Goldscore.Fitness>
34.8133

> <Gold.Goldscore.Internal.Vdw>
-1.2243

> <Gold.Goldscore.Internal.Torsion>
-0.5633

> <Gold.Goldscore.External.Vdw>
19.7782

> <Gold.Goldscore.Internal.HBond>
0.0000

> <Gold.Goldscore.External.HBond>
8.6406

> <Gold.Goldscore.Internal.Correction>
-0.7653

> <Gold.Goldscore.Hbonds>
donor molecule, donor type, donor heavy atom, donor atom, acceptor molecule, acceptor atom, score
      P1  H  6794  6850       L1    11  0.41
      P1  H  8093  8127       L1     9  0.05
      P1  H  8220  8262       L1    17  0.03
      L1  H     8    22       P1  8094  1.00

> <Gold.Goldscore.Internal.Vdw.Weighted>
-1.2243

> <Gold.Goldscore.Internal.Torsion.Weighted>
-0.5633

> <Gold.Goldscore.External.Vdw.Weighted>
27.1950

> <Gold.Goldscore.Internal.HBond.Weighted>
0.0000

> <Gold.Goldscore.External.HBond.Weighted>
8.6406

> <Gold.Goldscore.Internal.Correction.Weighted>
-0.7653

> <Gold.Rescore>
     Score     S(PLP)   S(hbond)     S(cho)   S(metal)  DE(clash)   DE(tors)     intcor
     30.40     -23.95       2.64       0.00       0.00       1.38       0.05       ----

> <Gold.PLP.Fitness>
30.4019

> <Gold.PLP.PLP>
-23.9514

> <Gold.PLP.part.hbond>
-3.4564

> <Gold.PLP.part.metal>
0.0000

> <Gold.PLP.part.buried>
-2.1826

> <Gold.PLP.part.nonpolar>
-19.2727

> <Gold.PLP.part.repulsive>
0.8787

> <Gold.PLP.ligand.clash>
1.3786

> <Gold.PLP.ligand.torsion>
0.0484

> <Gold.PLP.Chemscore.Hbond>
2.6420

> <Gold.PLP.Chemscore.CHOScore>
0.0000

> <Gold.PLP.Chemscore.Metal>
0.0000

> <Gold.Chemscore.Hbonds>
donor molecule, donor type, donor heavy atom, donor atom, acceptor molecule, acceptor atom, score
      L1  H     8    22       P1  8094  0.45
      P1  H  6794  6850       L1    11  0.62
      P1  H  8093  8127       L1     9  0.82

> <Gold.PLP.Chemscore.Internal.Correction>
   9.000000E+99

