#       Name:                CT1002167954
#       Creating user name   hitesit
#       Creation time:       Sun Apr 16 20:23:34 2023


#       File generated by GOLD software.
#

@<TRIPOS>MOLECULE
CT1002167954|ligand_prepared|mol2|1|dock4
    29    30     1
SMALL
NO_CHARGES


@<TRIPOS>ATOM
      1 C1         191.7175  -6.1100  47.7738 C.3            1 RES1               0.0000
      2 C2         190.7710  -5.2154  48.6000 C.ar           1 RES1               0.0000
      3 C3         193.0421  -5.3587  47.6780 C.2            1 RES1               0.0000
      4 C4         191.8077  -7.4376  48.5182 C.2            1 RES1               0.0000
      5 C5         191.2119  -6.3990  46.3411 C.3            1 RES1               0.0000
      6 C6         190.8922  -5.1441  49.9845 C.ar           1 RES1               0.0000
      7 C7         189.7752  -4.4551  47.9926 C.ar           1 RES1               0.0000
      8 N8         194.0837  -5.8160  48.4300 N.am           1 RES1               0.0000
      9 O9         193.1595  -4.3566  46.9834 O.2            1 RES1               0.0000
     10 N10        193.0170  -7.7904  49.0574 N.am           1 RES1               0.0000
     11 O11        190.8384  -8.1734  48.6570 O.2            1 RES1               0.0000
     12 C12        192.0211  -7.4566  45.6071 C.3            1 RES1               0.0000
     13 C13        190.0506  -4.3395  50.7345 C.ar           1 RES1               0.0000
     14 C14        188.9344  -3.6512  48.7446 C.ar           1 RES1               0.0000
     15 C15        194.1515  -7.0256  49.0736 C.2            1 RES1               0.0000
     16 C16        189.0715  -3.5923  50.1151 C.ar           1 RES1               0.0000
     17 O17        195.1857  -7.3888  49.6263 O.2            1 RES1               0.0000
     18 H18        190.1669  -6.7283  46.3952 H              1 RES1               0.0000
     19 H19        191.2405  -5.4677  45.7621 H              1 RES1               0.0000
     20 H20        191.6553  -5.7269  50.4897 H              1 RES1               0.0000
     21 H21        189.6482  -4.4866  46.9158 H              1 RES1               0.0000
     22 H22        194.8866  -5.2019  48.5226 H              1 RES1               0.0000
     23 H23        193.0772  -8.7084  49.4864 H              1 RES1               0.0000
     24 H24        191.6244  -7.6209  44.6074 H              1 RES1               0.0000
     25 H25        193.0609  -7.1504  45.5130 H              1 RES1               0.0000
     26 H26        191.9937  -8.4035  46.1424 H              1 RES1               0.0000
     27 H27        190.1617  -4.2977  51.8130 H              1 RES1               0.0000
     28 H28        188.1648  -3.0653  48.2530 H              1 RES1               0.0000
     29 H29        188.4125  -2.9618  50.7028 H              1 RES1               0.0000
@<TRIPOS>BOND
    1    1    2 1     
    2    1    3 1     
    3    1    4 1     
    4    1    5 1     
    5    2    6 ar    
    6    2    7 ar    
    7    3    8 1     
    8    3    9 2     
    9    4   10 1     
   10    4   11 2     
   11    5   12 1     
   12    5   18 1     
   13    5   19 1     
   14    6   13 ar    
   15    6   20 1     
   16    7   14 ar    
   17    7   21 1     
   18    8   15 1     
   19    8   22 1     
   20   10   15 1     
   21   10   23 1     
   22   12   24 1     
   23   12   25 1     
   24   12   26 1     
   25   13   16 ar    
   26   13   27 1     
   27   14   16 ar    
   28   14   28 1     
   29   15   17 2     
   30   16   29 1     
@<TRIPOS>SUBSTRUCTURE
      1 RES1           1
@<TRIPOS>SET
DONOR_HYDROGENS      STATIC     ATOMS    <user>   **** ""
2 22 23
ATOM$RED        STATIC     ATOMS    COLORGROUP SYSTEM
2 22 23
@<TRIPOS>COMMENT
> <Gold.Version>
2022.3.0

> <Gold.Id.Protein>
unknown|4d1n_clean|pdb

> <Gold.Protein.RotatedTorsions>
[ 6603 6557 6558 6559 ] final -109.53 input  116.17 | X-H torsion
[ 6691 6637 6638 6639 ] final -122.82 input  120.05 | X-H torsion
[ 8044 8009 8010 8011 ] final -157.82 input   40.01 | X-H torsion
[ 8121 8086 8087 8088 ] final -107.28 input   93.99 | X-H torsion
[ 8189 8152 8153 8154 ] final  -97.60 input   75.44 | X-H torsion
[ 8262 8220 8221 8222 ] final  -35.47 input   81.29 | X-H torsion
[ 9571 9520 9519 9517 ] final   65.08 input   60.00 | X-H torsion
[ 8325 8297 8298 8299 ] final -101.86 input   91.63 | X-H torsion
[ 10215 10169 10170 10171 ] final -155.51 input   34.07 | X-H torsion
[ 7962 7922 7923 7924 ] final -141.46 input   79.92 | X-H torsion
[ 7898 7875 7876 7877 ] final -128.94 input   91.72 | X-H torsion
[ 7902 7880 7879 7876 ] final -113.89 input   60.02 | X-H torsion
[ 6839 6786 6787 6788 ] final -123.19 input  113.73 | X-H torsion
[ 27193 6320 6319 6318 ] final   19.46 input    0.00 | X-H torsion
[ 27196 6560 6559 6558 ] final  -26.86 input    0.00 | X-H torsion
[ 27199 7878 7877 7876 ] final  145.45 input    0.00 | X-H torsion
[ 27202 8012 8011 8010 ] final  -55.25 input    0.00 | X-H torsion
[ 27205 8089 8088 8087 ] final  124.87 input   -0.00 | X-H torsion
[ 27208 8155 8154 8153 ] final  -13.20 input   -0.00 | X-H torsion
[ 27214 10086 10085 10084 ] final  163.30 input    0.00 | X-H torsion
[ 27217 10172 10171 10170 ] final   68.18 input    0.00 | X-H torsion
[ 27220 6367 6366 6365 ] final   82.70 input    0.00 | X-H torsion
[ 27222 7925 7924 7923 ] final -127.93 input   -0.00 | X-H torsion
[ 27224 7790 7789 7788 ] final -116.57 input   -0.00 | X-H torsion

> <Gold.Protein.ActiveResidues>
 ASP403  THR404  LEU406  ILE407  TYR408  ALA410  LYS411  TRP414  TRP426  SER427 
 LYS428  LEU429  GLN430  VAL431  PHE432  ASP433  TYR453  SER462  ALA463  ILE464 

> <Gold.Protein.RotatedAtoms>
  195.3463   -2.2196   37.4719 H   0  0  0  0  0  0  0  0  0  0  0  0  # atno 6603 bound_to 6557
  197.3749   -3.3144   40.3410 H   0  0  0  0  0  0  0  0  0  0  0  0  # atno 6691 bound_to 6637
  195.8604    1.2550   42.4167 H   0  0  0  0  0  0  0  0  0  0  0  0  # atno 6839 bound_to 6786
  197.3724    0.0400   49.4218 H   0  0  0  0  0  0  0  0  0  0  0  0  # atno 7898 bound_to 7875
  198.8069   -3.1753   51.2504 H   0  0  0  0  0  0  0  0  0  0  0  0  # atno 7902 bound_to 7880
  195.6550   -2.9431   49.8945 H   0  0  0  0  0  0  0  0  0  0  0  0  # atno 7962 bound_to 7922
  192.7648   -1.9881   48.9471 H   0  0  0  0  0  0  0  0  0  0  0  0  # atno 8044 bound_to 8009
  190.8311   -2.6031   46.2174 H   0  0  0  0  0  0  0  0  0  0  0  0  # atno 8121 bound_to 8086
  189.1623   -2.4234   43.3267 H   0  0  0  0  0  0  0  0  0  0  0  0  # atno 8189 bound_to 8152
  188.8128   -1.9065   39.6827 H   0  0  0  0  0  0  0  0  0  0  0  0  # atno 8262 bound_to 8220
  187.6265   -2.0009   37.4137 H   0  0  0  0  0  0  0  0  0  0  0  0  # atno 8325 bound_to 8297
  185.8769   -4.8376   48.6500 H   0  0  0  0  0  0  0  0  0  0  0  0  # atno 9571 bound_to 9520
  187.8168    1.9222   44.2582 H   0  0  0  0  0  0  0  0  0  0  0  0  # atno 10215 bound_to 10169
  194.7167   -4.8306   36.3206 LP  0  0  0  0  0  0  0  0  0  0  0  0  # atno 27193 bound_to 6320
  196.3401   -5.0236   36.8926 LP  0  0  0  0  0  0  0  0  0  0  0  0  # atno 27194 bound_to 6320
  196.5800   -3.4488   37.6059 LP  0  0  0  0  0  0  0  0  0  0  0  0  # atno 27195 bound_to 6557
  195.8570   -0.9970   41.1738 LP  0  0  0  0  0  0  0  0  0  0  0  0  # atno 27196 bound_to 6560
  197.3673   -1.4944   41.8606 LP  0  0  0  0  0  0  0  0  0  0  0  0  # atno 27197 bound_to 6560
  197.8370   -2.5435   38.8386 LP  0  0  0  0  0  0  0  0  0  0  0  0  # atno 27198 bound_to 6637
  195.0346   -4.5652   48.7349 LP  0  0  0  0  0  0  0  0  0  0  0  0  # atno 27199 bound_to 7878
  195.9519   -3.8045   47.4779 LP  0  0  0  0  0  0  0  0  0  0  0  0  # atno 27200 bound_to 7878
  192.8793   -3.2215   47.7144 LP  0  0  0  0  0  0  0  0  0  0  0  0  # atno 27201 bound_to 8009
  192.7062   -2.6895   44.8535 LP  0  0  0  0  0  0  0  0  0  0  0  0  # atno 27202 bound_to 8012
  191.7836   -4.0715   45.3420 LP  0  0  0  0  0  0  0  0  0  0  0  0  # atno 27203 bound_to 8012
  189.4861   -1.4920   46.3515 LP  0  0  0  0  0  0  0  0  0  0  0  0  # atno 27204 bound_to 8086
  189.1797   -0.4005   43.2386 LP  0  0  0  0  0  0  0  0  0  0  0  0  # atno 27205 bound_to 8089
  187.7025   -1.0217   43.8957 LP  0  0  0  0  0  0  0  0  0  0  0  0  # atno 27206 bound_to 8089
  190.0799   -3.8018   42.7589 LP  0  0  0  0  0  0  0  0  0  0  0  0  # atno 27207 bound_to 8152
  189.5335   -4.5632   40.1870 LP  0  0  0  0  0  0  0  0  0  0  0  0  # atno 27208 bound_to 8155
  187.9440   -4.3678   39.5274 LP  0  0  0  0  0  0  0  0  0  0  0  0  # atno 27209 bound_to 8155
  187.5229   -1.6942   40.8390 LP  0  0  0  0  0  0  0  0  0  0  0  0  # atno 27210 bound_to 8220
  186.5925   -4.7663   47.1901 LP  0  0  0  0  0  0  0  0  0  0  0  0  # atno 27211 bound_to 9520
  185.7784   -6.1089   47.6389 LP  0  0  0  0  0  0  0  0  0  0  0  0  # atno 27212 bound_to 9520
  187.3131   -3.6373   36.8795 LP  0  0  0  0  0  0  0  0  0  0  0  0  # atno 27213 bound_to 8297
  187.3272   -1.0772   46.9053 LP  0  0  0  0  0  0  0  0  0  0  0  0  # atno 27214 bound_to 10086
  188.0225   -1.2561   48.4815 LP  0  0  0  0  0  0  0  0  0  0  0  0  # atno 27215 bound_to 10086
  187.7526    0.5640   43.1567 LP  0  0  0  0  0  0  0  0  0  0  0  0  # atno 27216 bound_to 10169
  187.1680   -0.0587   41.3502 LP  0  0  0  0  0  0  0  0  0  0  0  0  # atno 27217 bound_to 10172
  188.2383    0.2576   40.0257 LP  0  0  0  0  0  0  0  0  0  0  0  0  # atno 27218 bound_to 10172
  194.9400   -1.3479   49.9755 LP  0  0  0  0  0  0  0  0  0  0  0  0  # atno 27219 bound_to 7922
  199.0745   -5.2523   38.5538 LP  0  0  0  0  0  0  0  0  0  0  0  0  # atno 27220 bound_to 6367
  197.6212   -4.3992   38.1538 LP  0  0  0  0  0  0  0  0  0  0  0  0  # atno 27221 bound_to 6367
  190.8910   -1.1635   49.7124 LP  0  0  0  0  0  0  0  0  0  0  0  0  # atno 27222 bound_to 7925
  192.3327   -0.5096   50.4153 LP  0  0  0  0  0  0  0  0  0  0  0  0  # atno 27223 bound_to 7925
  195.3512   -0.1857   47.9194 LP  0  0  0  0  0  0  0  0  0  0  0  0  # atno 27224 bound_to 7790
  196.6778    0.8015   47.4041 LP  0  0  0  0  0  0  0  0  0  0  0  0  # atno 27225 bound_to 7790
  196.8097   -0.8737   50.7943 LP  0  0  0  0  0  0  0  0  0  0  0  0  # atno 27226 bound_to 7875
  198.1507   -4.5206   50.6110 LP  0  0  0  0  0  0  0  0  0  0  0  0  # atno 27227 bound_to 7880
  197.1997   -3.2530   51.0053 LP  0  0  0  0  0  0  0  0  0  0  0  0  # atno 27228 bound_to 7880

> <Gold.Score>
     Fitness  S(hb_ext) S(vdw_ext)  S(hb_int)    S(int)      intcor
     32.63       1.24      22.86       0.00      -0.04      -0.77

> <Gold.Goldscore.Fitness>
32.6338

> <Gold.Goldscore.Internal.Vdw>
-0.3034

> <Gold.Goldscore.Internal.Torsion>
-0.5060

> <Gold.Goldscore.External.Vdw>
22.8607

> <Gold.Goldscore.Internal.HBond>
0.0000

> <Gold.Goldscore.External.HBond>
1.2444

> <Gold.Goldscore.Internal.Correction>
-0.7653

> <Gold.Goldscore.Hbonds>
donor molecule, donor type, donor heavy atom, donor atom, acceptor molecule, acceptor atom, score
      P1  H  8086  8121       L1     9  0.18
      L1  H     8    22       P1  7878  0.44

> <Gold.Goldscore.Internal.Vdw.Weighted>
-0.3034

> <Gold.Goldscore.Internal.Torsion.Weighted>
-0.5060

> <Gold.Goldscore.External.Vdw.Weighted>
31.4335

> <Gold.Goldscore.Internal.HBond.Weighted>
0.0000

> <Gold.Goldscore.External.HBond.Weighted>
1.2444

> <Gold.Goldscore.Internal.Correction.Weighted>
-0.7653

> <Gold.Rescore>
     Score     S(PLP)   S(hbond)     S(cho)   S(metal)  DE(clash)   DE(tors)     intcor
     31.31     -29.55       0.94       0.00       0.00       0.00       0.54       ----

> <Gold.PLP.Fitness>
31.3061

> <Gold.PLP.PLP>
-29.5532

> <Gold.PLP.part.hbond>
-2.0841

> <Gold.PLP.part.metal>
0.0000

> <Gold.PLP.part.buried>
-5.0858

> <Gold.PLP.part.nonpolar>
-25.8811

> <Gold.PLP.part.repulsive>
1.8664

> <Gold.PLP.ligand.clash>
0.0000

> <Gold.PLP.ligand.torsion>
0.5373

> <Gold.PLP.Chemscore.Hbond>
0.9425

> <Gold.PLP.Chemscore.CHOScore>
0.0000

> <Gold.PLP.Chemscore.Metal>
0.0000

> <Gold.Chemscore.Hbonds>
donor molecule, donor type, donor heavy atom, donor atom, acceptor molecule, acceptor atom, score
      L1  H     8    22       P1  7878  0.94

> <Gold.PLP.Chemscore.Internal.Correction>
   9.000000E+99

