#       Name:                CT1002167954
#       Creating user name   hitesit
#       Creation time:       Sun Apr 16 20:23:33 2023


#       File generated by GOLD software.
#

@<TRIPOS>MOLECULE
CT1002167954|ligand_prepared|mol2|1|dock2
    29    30     1
SMALL
NO_CHARGES


@<TRIPOS>ATOM
      1 C1         191.8157  -6.1750  47.9709 C.3            1 RES1               0.0000
      2 C2         190.8780  -5.2220  48.7400 C.ar           1 RES1               0.0000
      3 C3         193.1794  -5.4919  47.9281 C.2            1 RES1               0.0000
      4 C4         191.8042  -7.4939  48.7357 C.2            1 RES1               0.0000
      5 C5         191.3634  -6.4601  46.5199 C.3            1 RES1               0.0000
      6 C6         190.0183  -4.3684  48.0553 C.ar           1 RES1               0.0000
      7 C7         190.8596  -5.1872  50.1318 C.ar           1 RES1               0.0000
      8 N8         194.1607  -5.9891  48.7343 N.am           1 RES1               0.0000
      9 O9         193.3794  -4.5076  47.2272 O.2            1 RES1               0.0000
     10 N10        192.9678  -7.8983  49.3359 N.am           1 RES1               0.0000
     11 O11        190.7937  -8.1785  48.8380 O.2            1 RES1               0.0000
     12 C12        192.1096  -7.6087  45.8595 C.3            1 RES1               0.0000
     13 C13        189.1687  -3.5131  48.7371 C.ar           1 RES1               0.0000
     14 C14        190.0093  -4.3308  50.8117 C.ar           1 RES1               0.0000
     15 C15        194.1374  -7.1906  49.3957 C.2            1 RES1               0.0000
     16 C16        189.1633  -3.4939  50.1155 C.ar           1 RES1               0.0000
     17 O17        195.1252  -7.5964  50.0013 O.2            1 RES1               0.0000
     18 H18        190.2910  -6.6913  46.5232 H              1 RES1               0.0000
     19 H19        191.5089  -5.5533  45.9200 H              1 RES1               0.0000
     20 H20        190.0102  -4.3677  46.9704 H              1 RES1               0.0000
     21 H21        191.5173  -5.8359  50.7003 H              1 RES1               0.0000
     22 H22        194.9883  -5.4143  48.8568 H              1 RES1               0.0000
     23 H23        192.9617  -8.8115  49.7789 H              1 RES1               0.0000
     24 H24        191.7538  -7.7664  44.8435 H              1 RES1               0.0000
     25 H25        193.1768  -7.4012  45.8164 H              1 RES1               0.0000
     26 H26        191.9661  -8.5325  46.4161 H              1 RES1               0.0000
     27 H27        188.5058  -2.8554  48.1845 H              1 RES1               0.0000
     28 H28        190.0089  -4.3187  51.8966 H              1 RES1               0.0000
     29 H29        188.4974  -2.8240  50.6494 H              1 RES1               0.0000
@<TRIPOS>BOND
    1    1    2 1     
    2    1    3 1     
    3    1    4 1     
    4    1    5 1     
    5    2    6 ar    
    6    2    7 ar    
    7    3    8 1     
    8    3    9 2     
    9    4   10 1     
   10    4   11 2     
   11    5   12 1     
   12    5   18 1     
   13    5   19 1     
   14    6   13 ar    
   15    6   20 1     
   16    7   14 ar    
   17    7   21 1     
   18    8   15 1     
   19    8   22 1     
   20   10   15 1     
   21   10   23 1     
   22   12   24 1     
   23   12   25 1     
   24   12   26 1     
   25   13   16 ar    
   26   13   27 1     
   27   14   16 ar    
   28   14   28 1     
   29   15   17 2     
   30   16   29 1     
@<TRIPOS>SUBSTRUCTURE
      1 RES1           1
@<TRIPOS>SET
DONOR_HYDROGENS      STATIC     ATOMS    <user>   **** ""
2 22 23
ATOM$RED        STATIC     ATOMS    COLORGROUP SYSTEM
2 22 23
@<TRIPOS>COMMENT
> <Gold.Version>
2022.3.0

> <Gold.Id.Protein>
unknown|4d1n_clean|pdb

> <Gold.Protein.RotatedTorsions>
[ 6603 6557 6558 6559 ] final  152.49 input  116.17 | X-H torsion
[ 6691 6637 6638 6639 ] final  -28.57 input  120.05 | X-H torsion
[ 8044 8009 8010 8011 ] final   15.05 input   40.01 | X-H torsion
[ 8121 8086 8087 8088 ] final  -30.17 input   93.99 | X-H torsion
[ 8189 8152 8153 8154 ] final -147.96 input   75.44 | X-H torsion
[ 8262 8220 8221 8222 ] final   67.41 input   81.29 | X-H torsion
[ 9571 9520 9519 9517 ] final   45.49 input   60.00 | X-H torsion
[ 8325 8297 8298 8299 ] final  161.24 input   91.63 | X-H torsion
[ 10215 10169 10170 10171 ] final  -20.91 input   34.07 | X-H torsion
[ 7962 7922 7923 7924 ] final  135.78 input   79.92 | X-H torsion
[ 7898 7875 7876 7877 ] final   47.97 input   91.72 | X-H torsion
[ 7902 7880 7879 7876 ] final   17.21 input   60.02 | X-H torsion
[ 6839 6786 6787 6788 ] final   12.61 input  113.73 | X-H torsion
[ 27193 6320 6319 6318 ] final  -78.16 input    0.00 | X-H torsion
[ 27196 6560 6559 6558 ] final  -56.91 input    0.00 | X-H torsion
[ 27199 7878 7877 7876 ] final   -7.01 input    0.00 | X-H torsion
[ 27202 8012 8011 8010 ] final   83.46 input    0.00 | X-H torsion
[ 27205 8089 8088 8087 ] final   67.95 input   -0.00 | X-H torsion
[ 27208 8155 8154 8153 ] final   52.70 input   -0.00 | X-H torsion
[ 27214 10086 10085 10084 ] final   23.88 input    0.00 | X-H torsion
[ 27217 10172 10171 10170 ] final   69.26 input    0.00 | X-H torsion
[ 27220 6367 6366 6365 ] final   41.39 input    0.00 | X-H torsion
[ 27222 7925 7924 7923 ] final  -74.46 input   -0.00 | X-H torsion
[ 27224 7790 7789 7788 ] final  -61.86 input   -0.00 | X-H torsion

> <Gold.Protein.ActiveResidues>
 ASP403  THR404  LEU406  ILE407  TYR408  ALA410  LYS411  TRP414  TRP426  SER427 
 LYS428  LEU429  GLN430  VAL431  PHE432  ASP433  TYR453  SER462  ALA463  ILE464 

> <Gold.Protein.RotatedAtoms>
  195.4561   -3.5448   37.4016 H   0  0  0  0  0  0  0  0  0  0  0  0  # atno 6603 bound_to 6557
  197.2395   -2.1404   39.7875 H   0  0  0  0  0  0  0  0  0  0  0  0  # atno 6691 bound_to 6637
  197.4288    1.4165   41.9910 H   0  0  0  0  0  0  0  0  0  0  0  0  # atno 6839 bound_to 6786
  196.7646   -0.8459   50.7969 H   0  0  0  0  0  0  0  0  0  0  0  0  # atno 7898 bound_to 7875
  197.1485   -3.4110   50.9310 H   0  0  0  0  0  0  0  0  0  0  0  0  # atno 7902 bound_to 7880
  195.4257   -2.2404   50.8076 H   0  0  0  0  0  0  0  0  0  0  0  0  # atno 7962 bound_to 7922
  192.7830   -3.2716   47.7361 H   0  0  0  0  0  0  0  0  0  0  0  0  # atno 8044 bound_to 8009
  190.6363   -1.6818   45.6349 H   0  0  0  0  0  0  0  0  0  0  0  0  # atno 8121 bound_to 8086
  189.9112   -2.3765   43.4296 H   0  0  0  0  0  0  0  0  0  0  0  0  # atno 8189 bound_to 8152
  187.9387   -0.9556   40.1570 H   0  0  0  0  0  0  0  0  0  0  0  0  # atno 8262 bound_to 8220
  188.2478   -3.1766   37.3911 H   0  0  0  0  0  0  0  0  0  0  0  0  # atno 8325 bound_to 8297
  186.0451   -4.6026   48.5162 H   0  0  0  0  0  0  0  0  0  0  0  0  # atno 9571 bound_to 9520
  187.1393    0.8375   43.2322 H   0  0  0  0  0  0  0  0  0  0  0  0  # atno 10215 bound_to 10169
  195.9056   -4.3554   36.0766 LP  0  0  0  0  0  0  0  0  0  0  0  0  # atno 27193 bound_to 6320
  195.1513   -5.4988   37.1366 LP  0  0  0  0  0  0  0  0  0  0  0  0  # atno 27194 bound_to 6320
  196.4724   -2.1508   37.6748 LP  0  0  0  0  0  0  0  0  0  0  0  0  # atno 27195 bound_to 6557
  196.1634   -0.7248   40.9906 LP  0  0  0  0  0  0  0  0  0  0  0  0  # atno 27196 bound_to 6560
  197.0610   -1.7666   42.0437 LP  0  0  0  0  0  0  0  0  0  0  0  0  # atno 27197 bound_to 6560
  197.9678   -3.6777   39.3733 LP  0  0  0  0  0  0  0  0  0  0  0  0  # atno 27198 bound_to 6637
  196.2340   -4.0177   47.6901 LP  0  0  0  0  0  0  0  0  0  0  0  0  # atno 27199 bound_to 7878
  194.7525   -4.3521   48.5227 LP  0  0  0  0  0  0  0  0  0  0  0  0  # atno 27200 bound_to 7878
  192.8615   -1.9680   48.8972 LP  0  0  0  0  0  0  0  0  0  0  0  0  # atno 27201 bound_to 8009
  192.2451   -3.9729   45.7295 LP  0  0  0  0  0  0  0  0  0  0  0  0  # atno 27202 bound_to 8012
  192.2447   -2.7881   44.4660 LP  0  0  0  0  0  0  0  0  0  0  0  0  # atno 27203 bound_to 8012
  189.6750   -2.3856   46.9164 LP  0  0  0  0  0  0  0  0  0  0  0  0  # atno 27204 bound_to 8086
  189.0844   -0.4033   44.0584 LP  0  0  0  0  0  0  0  0  0  0  0  0  # atno 27205 bound_to 8089
  187.7978   -1.0189   43.0758 LP  0  0  0  0  0  0  0  0  0  0  0  0  # atno 27206 bound_to 8089
  189.3560   -3.8471   42.6594 LP  0  0  0  0  0  0  0  0  0  0  0  0  # atno 27207 bound_to 8152
  188.7494   -4.6991   40.6910 LP  0  0  0  0  0  0  0  0  0  0  0  0  # atno 27208 bound_to 8155
  188.7282   -4.2319   39.0233 LP  0  0  0  0  0  0  0  0  0  0  0  0  # atno 27209 bound_to 8155
  188.3828   -2.6296   40.3725 LP  0  0  0  0  0  0  0  0  0  0  0  0  # atno 27210 bound_to 8220
  186.5439   -5.0401   47.0301 LP  0  0  0  0  0  0  0  0  0  0  0  0  # atno 27211 bound_to 9520
  185.6575   -6.0719   47.9336 LP  0  0  0  0  0  0  0  0  0  0  0  0  # atno 27212 bound_to 9520
  186.7112   -2.4981   36.9014 LP  0  0  0  0  0  0  0  0  0  0  0  0  # atno 27213 bound_to 8297
  187.4229   -1.2636   48.5163 LP  0  0  0  0  0  0  0  0  0  0  0  0  # atno 27214 bound_to 10086
  187.9267   -1.0698   46.8705 LP  0  0  0  0  0  0  0  0  0  0  0  0  # atno 27215 bound_to 10086
  188.4093    1.6152   44.1510 LP  0  0  0  0  0  0  0  0  0  0  0  0  # atno 27216 bound_to 10169
  187.1553   -0.0584   41.3398 LP  0  0  0  0  0  0  0  0  0  0  0  0  # atno 27217 bound_to 10172
  188.2510    0.2574   40.0360 LP  0  0  0  0  0  0  0  0  0  0  0  0  # atno 27218 bound_to 10172
  195.1622   -2.0291   49.0905 LP  0  0  0  0  0  0  0  0  0  0  0  0  # atno 27219 bound_to 7922
  198.5828   -5.5779   38.7131 LP  0  0  0  0  0  0  0  0  0  0  0  0  # atno 27220 bound_to 6367
  198.1129   -4.0736   37.9945 LP  0  0  0  0  0  0  0  0  0  0  0  0  # atno 27221 bound_to 6367
  191.0909   -1.4320   50.4160 LP  0  0  0  0  0  0  0  0  0  0  0  0  # atno 27222 bound_to 7925
  192.1328   -0.2410   49.7117 LP  0  0  0  0  0  0  0  0  0  0  0  0  # atno 27223 bound_to 7925
  195.2601    0.6035   47.9675 LP  0  0  0  0  0  0  0  0  0  0  0  0  # atno 27224 bound_to 7790
  196.7689    0.0123   47.3560 LP  0  0  0  0  0  0  0  0  0  0  0  0  # atno 27225 bound_to 7790
  197.4150    0.0085   49.4249 LP  0  0  0  0  0  0  0  0  0  0  0  0  # atno 27226 bound_to 7875
  198.6917   -3.0411   51.2926 LP  0  0  0  0  0  0  0  0  0  0  0  0  # atno 27227 bound_to 7880
  198.3280   -4.4955   50.6452 LP  0  0  0  0  0  0  0  0  0  0  0  0  # atno 27228 bound_to 7880

> <Gold.Score>
     Fitness  S(hb_ext) S(vdw_ext)  S(hb_int)    S(int)      intcor
     31.57       0.96      22.61       0.00      -0.48      -0.82

> <Gold.Goldscore.Fitness>
31.5695

> <Gold.Goldscore.Internal.Vdw>
-0.7127

> <Gold.Goldscore.Internal.Torsion>
-0.5875

> <Gold.Goldscore.External.Vdw>
22.6077

> <Gold.Goldscore.Internal.HBond>
0.0000

> <Gold.Goldscore.External.HBond>
0.9638

> <Gold.Goldscore.Internal.Correction>
-0.8203

> <Gold.Goldscore.Hbonds>
donor molecule, donor type, donor heavy atom, donor atom, acceptor molecule, acceptor atom, score
      P1  H  8009  8044       L1     9  0.22
      L1  H     8    22       P1  7878  0.26

> <Gold.Goldscore.Internal.Vdw.Weighted>
-0.7127

> <Gold.Goldscore.Internal.Torsion.Weighted>
-0.5875

> <Gold.Goldscore.External.Vdw.Weighted>
31.0856

> <Gold.Goldscore.Internal.HBond.Weighted>
0.0000

> <Gold.Goldscore.External.HBond.Weighted>
0.9638

> <Gold.Goldscore.Internal.Correction.Weighted>
-0.8203

> <Gold.Rescore>
     Score     S(PLP)   S(hbond)     S(cho)   S(metal)  DE(clash)   DE(tors)     intcor
     34.40     -30.13       1.99       0.00       0.00       0.00       0.85       ----

> <Gold.PLP.Fitness>
34.4011

> <Gold.PLP.PLP>
-30.1336

> <Gold.PLP.part.hbond>
-2.1349

> <Gold.PLP.part.metal>
0.0000

> <Gold.PLP.part.buried>
-6.0067

> <Gold.PLP.part.nonpolar>
-25.8878

> <Gold.PLP.part.repulsive>
1.9779

> <Gold.PLP.ligand.clash>
0.0000

> <Gold.PLP.ligand.torsion>
0.8531

> <Gold.PLP.Chemscore.Hbond>
1.9913

> <Gold.PLP.Chemscore.CHOScore>
0.0000

> <Gold.PLP.Chemscore.Metal>
0.0000

> <Gold.Chemscore.Hbonds>
donor molecule, donor type, donor heavy atom, donor atom, acceptor molecule, acceptor atom, score
      L1  H     8    22       P1  7878  0.77
      P1  H  8009  8044       L1     9  0.67

> <Gold.PLP.Chemscore.Internal.Correction>
   9.000000E+99

