#       Name:                CT1002167954
#       Creating user name   hitesit
#       Creation time:       Sun Apr 16 02:32:22 2023


#       File generated by GOLD software.
#

@<TRIPOS>MOLECULE
CT1002167954|ligand_prepared|mol2|1|dock8
    29    30     1
SMALL
NO_CHARGES


@<TRIPOS>ATOM
      1 C1         226.2800 356.1259 -93.4481 C.3            1 RES1               0.0000
      2 C2         225.2800 354.9850 -93.7262 C.ar           1 RES1               0.0000
      3 C3         227.1319 355.6704 -92.2669 C.2            1 RES1               0.0000
      4 C4         227.0648 356.3295 -94.7393 C.2            1 RES1               0.0000
      5 C5         225.6085 357.4695 -93.0802 C.3            1 RES1               0.0000
      6 C6         224.2942 354.6648 -92.7977 C.ar           1 RES1               0.0000
      7 C7         225.3291 354.2471 -94.9059 C.ar           1 RES1               0.0000
      8 N8         228.4150 355.2866 -92.5241 N.am           1 RES1               0.0000
      9 O9         226.6726 355.6112 -91.1330 O.2            1 RES1               0.0000
     10 N10        228.4046 356.0421 -94.7284 N.am           1 RES1               0.0000
     11 O11        226.5318 356.7204 -95.7705 O.2            1 RES1               0.0000
     12 C12        224.3288 357.7473 -93.8532 C.3            1 RES1               0.0000
     13 C13        223.3883 353.6457 -93.0408 C.ar           1 RES1               0.0000
     14 C14        224.4224 353.2281 -95.1469 C.ar           1 RES1               0.0000
     15 C15        229.1090 355.5006 -93.6878 C.2            1 RES1               0.0000
     16 C16        223.4515 352.9270 -94.2156 C.ar           1 RES1               0.0000
     17 O17        230.3010 355.2191 -93.7721 O.2            1 RES1               0.0000
     18 H18        225.3796 357.4678 -92.0074 H              1 RES1               0.0000
     19 H19        226.3193 358.2832 -93.2701 H              1 RES1               0.0000
     20 H20        224.2305 355.2177 -91.8664 H              1 RES1               0.0000
     21 H21        226.0851 354.4656 -95.6524 H              1 RES1               0.0000
     22 H22        228.9037 354.7950 -91.7827 H              1 RES1               0.0000
     23 H23        228.9251 356.2512 -95.5745 H              1 RES1               0.0000
     24 H24        223.8987 358.7017 -93.5569 H              1 RES1               0.0000
     25 H25        224.5240 357.7810 -94.9230 H              1 RES1               0.0000
     26 H26        223.5899 356.9704 -93.6678 H              1 RES1               0.0000
     27 H27        222.6269 353.4117 -92.3040 H              1 RES1               0.0000
     28 H28        224.4762 352.6647 -96.0726 H              1 RES1               0.0000
     29 H29        222.7415 352.1290 -94.4060 H              1 RES1               0.0000
@<TRIPOS>BOND
    1    1    2 1     
    2    1    3 1     
    3    1    4 1     
    4    1    5 1     
    5    2    6 ar    
    6    2    7 ar    
    7    3    8 1     
    8    3    9 2     
    9    4   10 1     
   10    4   11 2     
   11    5   12 1     
   12    5   18 1     
   13    5   19 1     
   14    6   13 ar    
   15    6   20 1     
   16    7   14 ar    
   17    7   21 1     
   18    8   15 1     
   19    8   22 1     
   20   10   15 1     
   21   10   23 1     
   22   12   24 1     
   23   12   25 1     
   24   12   26 1     
   25   13   16 ar    
   26   13   27 1     
   27   14   16 ar    
   28   14   28 1     
   29   15   17 2     
   30   16   29 1     
@<TRIPOS>SUBSTRUCTURE
      1 RES1           1
@<TRIPOS>SET
DONOR_HYDROGENS      STATIC     ATOMS    <user>   **** ""
2 22 23
ATOM$RED        STATIC     ATOMS    COLORGROUP SYSTEM
2 22 23
@<TRIPOS>COMMENT
> <Gold.Version>
2022.3.0

> <Gold.Id.Protein>
unknown|7ts3_clean|pdb

> <Gold.Protein.RotatedTorsions>
[ 1457 1425 1424 1423 ] final  -98.57 input   59.98 | X-H torsion
[ 3981 3955 3956 3957 ] final -168.66 input  120.40 | X-H torsion
[ 4062 4029 4030 4031 ] final  106.40 input  117.34 | X-H torsion
[ 6581 6560 6559 6557 ] final -123.11 input   59.98 | X-H torsion
[ 25706 25673 25674 25675 ] final -154.97 input   60.60 | X-H torsion
[ 4242 4229 4230 4231 ] final  -85.04 input  128.17 | X-H torsion
[ 1447 1417 1418 1419 ] final -176.65 input   90.13 | X-H torsion
[ 1519 1499 1500 1501 ] final  139.72 input  110.10 | X-H torsion
[ 25633 25595 25596 25597 ] final  -13.73 input   68.08 | X-H torsion
[ 1222 1195 1196 1197 ] final    0.30 input  124.45 | X-H torsion
[ 1302 1275 1276 1277 ] final  -67.22 input  121.39 | X-H torsion
[ 1365 1339 1340 1341 ] final -101.62 input  109.22 | X-H torsion
[ 1573 1545 1546 1547 ] final  105.01 input   73.55 | X-H torsion
[ 1579 1551 1549 1546 ] final  123.47 input   59.99 | X-H torsion
[ 25712 25679 25677 25674 ] final   61.82 input   60.00 | X-H torsion
[ 1523 1504 1503 1500 ] final  -94.22 input   60.00 | X-H torsion
[ 1641 1603 1604 1605 ] final  -47.97 input   84.06 | X-H torsion
[ 27271 1198 1197 1196 ] final   75.71 input   -0.00 | X-H torsion
[ 27273 1420 1419 1418 ] final  -35.18 input    0.00 | X-H torsion
[ 27280 3958 3957 3956 ] final  124.68 input   -0.00 | X-H torsion
[ 27285 6788 6787 6786 ] final  -88.59 input   -0.00 | X-H torsion
[ 27288 23664 23663 23662 ] final  -58.05 input    0.00 | X-H torsion
[ 27291 25676 25675 25674 ] final -133.91 input    0.00 | X-H torsion
[ 27297 3694 3693 3692 ] final  -26.51 input    0.00 | X-H torsion
[ 27300 25598 25597 25596 ] final  -45.69 input   -0.00 | X-H torsion
[ 27305 1342 1341 1340 ] final   78.71 input    0.00 | X-H torsion
[ 27310 25508 25507 25506 ] final  163.36 input   -0.00 | X-H torsion
[ 27314 25737 25736 25735 ] final -107.64 input    0.00 | X-H torsion
[ 27316 1502 1501 1500 ] final  129.28 input    0.00 | X-H torsion

> <Gold.Protein.ActiveResidues>
 LEU321  HIS322  LEU323  LYS324  SER325  THR326  LEU327  ARG348  GLU365  PHE366 
 GLN369  TYR370  SER372  SER373  TYR408  HIS412  ARG415  ASN416  ARG674  PRO678 
 TYR703  ARG704  LEU705  THR706  PRO707 

> <Gold.Protein.RotatedAtoms>
  224.8007  365.5514  -94.2734 H   0  0  0  0  0  0  0  0  0  0  0  0  # atno 1222 bound_to 1195
  226.7899  363.9503  -94.7354 H   0  0  0  0  0  0  0  0  0  0  0  0  # atno 1302 bound_to 1275
  228.6899  365.5907  -93.0669 H   0  0  0  0  0  0  0  0  0  0  0  0  # atno 1365 bound_to 1339
  228.0460  362.8260  -91.0441 H   0  0  0  0  0  0  0  0  0  0  0  0  # atno 1447 bound_to 1417
  225.5800  358.3837  -88.5636 H   0  0  0  0  0  0  0  0  0  0  0  0  # atno 1457 bound_to 1425
  226.0915  357.1272  -89.5163 H   0  0  0  0  0  0  0  0  0  0  0  0  # atno 1458 bound_to 1425
  226.3289  357.0746  -87.8764 H   0  0  0  0  0  0  0  0  0  0  0  0  # atno 1459 bound_to 1425
  230.7118  363.0704  -92.7799 H   0  0  0  0  0  0  0  0  0  0  0  0  # atno 1519 bound_to 1499
  234.7937  363.8149  -94.4089 H   0  0  0  0  0  0  0  0  0  0  0  0  # atno 1523 bound_to 1504
  234.2067  360.4881  -93.9607 H   0  0  0  0  0  0  0  0  0  0  0  0  # atno 1573 bound_to 1545
  235.7571  358.0779  -94.5857 H   0  0  0  0  0  0  0  0  0  0  0  0  # atno 1579 bound_to 1551
  236.9453  361.5152  -93.3845 H   0  0  0  0  0  0  0  0  0  0  0  0  # atno 1641 bound_to 1603
  228.0128  350.8620  -88.9610 H   0  0  0  0  0  0  0  0  0  0  0  0  # atno 3981 bound_to 3955
  227.4577  348.4384  -91.4278 H   0  0  0  0  0  0  0  0  0  0  0  0  # atno 4062 bound_to 4029
  221.6861  350.4671  -91.0212 H   0  0  0  0  0  0  0  0  0  0  0  0  # atno 4242 bound_to 4229
  226.3718  351.6072  -95.6510 H   0  0  0  0  0  0  0  0  0  0  0  0  # atno 6581 bound_to 6560
  234.1470  359.3074  -98.4853 H   0  0  0  0  0  0  0  0  0  0  0  0  # atno 25633 bound_to 25595
  233.4045  357.1589  -96.9633 H   0  0  0  0  0  0  0  0  0  0  0  0  # atno 25706 bound_to 25673
  235.6574  353.7062  -97.0143 H   0  0  0  0  0  0  0  0  0  0  0  0  # atno 25712 bound_to 25679
  227.5854  362.0455  -94.6057 LP  0  0  0  0  0  0  0  0  0  0  0  0  # atno 27271 bound_to 1198
  227.6286  362.9023  -93.1011 LP  0  0  0  0  0  0  0  0  0  0  0  0  # atno 27272 bound_to 1198
  231.1933  359.3623  -91.7019 LP  0  0  0  0  0  0  0  0  0  0  0  0  # atno 27273 bound_to 1420
  231.7968  359.8888  -93.2377 LP  0  0  0  0  0  0  0  0  0  0  0  0  # atno 27274 bound_to 1420
  227.5471  349.2719  -89.5175 LP  0  0  0  0  0  0  0  0  0  0  0  0  # atno 27279 bound_to 3955
  224.4888  350.0474  -92.7070 LP  0  0  0  0  0  0  0  0  0  0  0  0  # atno 27280 bound_to 3958
  224.1934  350.3574  -91.0287 LP  0  0  0  0  0  0  0  0  0  0  0  0  # atno 27281 bound_to 3958
  226.2106  349.6195  -91.7355 LP  0  0  0  0  0  0  0  0  0  0  0  0  # atno 27282 bound_to 4029
  225.7240  350.8018  -94.3945 LP  0  0  0  0  0  0  0  0  0  0  0  0  # atno 27283 bound_to 6560
  224.7594  351.4073  -95.5649 LP  0  0  0  0  0  0  0  0  0  0  0  0  # atno 27284 bound_to 6560
  229.2429  354.3477 -102.5701 LP  0  0  0  0  0  0  0  0  0  0  0  0  # atno 27285 bound_to 6788
  229.7349  354.2875 -100.9105 LP  0  0  0  0  0  0  0  0  0  0  0  0  # atno 27286 bound_to 6788
  221.4013  360.5332  -94.9923 LP  0  0  0  0  0  0  0  0  0  0  0  0  # atno 27288 bound_to 23664
  222.3678  361.6500  -95.8970 LP  0  0  0  0  0  0  0  0  0  0  0  0  # atno 27289 bound_to 23664
  232.0792  356.5325  -96.0211 LP  0  0  0  0  0  0  0  0  0  0  0  0  # atno 27290 bound_to 25673
  230.9407  353.5981  -95.2276 LP  0  0  0  0  0  0  0  0  0  0  0  0  # atno 27291 bound_to 25676
  230.8695  355.1962  -95.8917 LP  0  0  0  0  0  0  0  0  0  0  0  0  # atno 27292 bound_to 25676
  222.8624  349.3578  -91.6804 LP  0  0  0  0  0  0  0  0  0  0  0  0  # atno 27294 bound_to 4229
  229.3440  363.3610  -92.0968 LP  0  0  0  0  0  0  0  0  0  0  0  0  # atno 27295 bound_to 1417
  231.1772  361.5963  -91.9675 LP  0  0  0  0  0  0  0  0  0  0  0  0  # atno 27296 bound_to 1499
  229.7218  350.9873  -88.5651 LP  0  0  0  0  0  0  0  0  0  0  0  0  # atno 27297 bound_to 3694
  229.8348  350.8268  -90.2860 LP  0  0  0  0  0  0  0  0  0  0  0  0  # atno 27298 bound_to 3694
  232.9233  360.5346  -98.2280 LP  0  0  0  0  0  0  0  0  0  0  0  0  # atno 27299 bound_to 25595
  233.1442  357.1917  -99.4872 LP  0  0  0  0  0  0  0  0  0  0  0  0  # atno 27300 bound_to 25598
  234.4470  356.4387  -98.6296 LP  0  0  0  0  0  0  0  0  0  0  0  0  # atno 27301 bound_to 25598
  223.3264  364.6705  -94.6067 LP  0  0  0  0  0  0  0  0  0  0  0  0  # atno 27302 bound_to 1195
  226.4237  365.6061  -95.1659 LP  0  0  0  0  0  0  0  0  0  0  0  0  # atno 27303 bound_to 1275
  227.2308  364.7545  -92.6083 LP  0  0  0  0  0  0  0  0  0  0  0  0  # atno 27304 bound_to 1339
  229.3340  363.3607  -88.7707 LP  0  0  0  0  0  0  0  0  0  0  0  0  # atno 27305 bound_to 1342
  230.8011  363.4088  -89.6902 LP  0  0  0  0  0  0  0  0  0  0  0  0  # atno 27306 bound_to 1342
  234.2949  361.8783  -92.9021 LP  0  0  0  0  0  0  0  0  0  0  0  0  # atno 27307 bound_to 1545
  234.9172  359.4665  -94.4652 LP  0  0  0  0  0  0  0  0  0  0  0  0  # atno 27308 bound_to 1551
  234.2641  358.0656  -93.9384 LP  0  0  0  0  0  0  0  0  0  0  0  0  # atno 27309 bound_to 1551
  233.4848  360.2750  -95.6948 LP  0  0  0  0  0  0  0  0  0  0  0  0  # atno 27310 bound_to 25508
  234.9290  361.1984  -95.9431 LP  0  0  0  0  0  0  0  0  0  0  0  0  # atno 27311 bound_to 25508
  234.5894  352.7582  -96.2339 LP  0  0  0  0  0  0  0  0  0  0  0  0  # atno 27312 bound_to 25679
  235.9199  353.3032  -95.4596 LP  0  0  0  0  0  0  0  0  0  0  0  0  # atno 27313 bound_to 25679
  232.1210  354.0266 -100.6648 LP  0  0  0  0  0  0  0  0  0  0  0  0  # atno 27314 bound_to 25737
  232.5240  354.9529  -99.2578 LP  0  0  0  0  0  0  0  0  0  0  0  0  # atno 27315 bound_to 25737
  234.0491  361.5336  -90.6857 LP  0  0  0  0  0  0  0  0  0  0  0  0  # atno 27316 bound_to 1502
  233.8462  363.1696  -91.2169 LP  0  0  0  0  0  0  0  0  0  0  0  0  # atno 27317 bound_to 1502
  233.8551  364.1561  -95.6937 LP  0  0  0  0  0  0  0  0  0  0  0  0  # atno 27318 bound_to 1504
  234.1007  362.6046  -95.2473 LP  0  0  0  0  0  0  0  0  0  0  0  0  # atno 27319 bound_to 1504

> <Gold.Score>
     Fitness  S(hb_ext) S(vdw_ext)  S(hb_int)    S(int)      intcor
     35.58       6.67      24.10       0.00      -4.23      -0.76

> <Gold.Goldscore.Fitness>
35.5780

> <Gold.Goldscore.Internal.Vdw>
-3.8944

> <Gold.Goldscore.Internal.Torsion>
-1.0930

> <Gold.Goldscore.External.Vdw>
24.1023

> <Gold.Goldscore.Internal.HBond>
0.0000

> <Gold.Goldscore.External.HBond>
6.6685

> <Gold.Goldscore.Internal.Correction>
-0.7562

> <Gold.Goldscore.Hbonds>
donor molecule, donor type, donor heavy atom, donor atom, acceptor molecule, acceptor atom, score
      P1  H 23671 23721       L1    11  0.69
      L1  H     8    22       P1  3698  0.42

> <Gold.Goldscore.Internal.Vdw.Weighted>
-3.8944

> <Gold.Goldscore.Internal.Torsion.Weighted>
-1.0930

> <Gold.Goldscore.External.Vdw.Weighted>
33.1407

> <Gold.Goldscore.Internal.HBond.Weighted>
0.0000

> <Gold.Goldscore.External.HBond.Weighted>
6.6685

> <Gold.Goldscore.Internal.Correction.Weighted>
-0.7562

> <Gold.Rescore>
     Score     S(PLP)   S(hbond)     S(cho)   S(metal)  DE(clash)   DE(tors)     intcor
     24.74     -22.35       1.54       0.00       0.00       1.25       0.48       ----

> <Gold.PLP.Fitness>
24.7397

> <Gold.PLP.PLP>
-22.3473

> <Gold.PLP.part.hbond>
-3.7553

> <Gold.PLP.part.metal>
0.0000

> <Gold.PLP.part.buried>
-0.1371

> <Gold.PLP.part.nonpolar>
-27.0159

> <Gold.PLP.part.repulsive>
7.7084

> <Gold.PLP.ligand.clash>
1.2496

> <Gold.PLP.ligand.torsion>
0.4816

> <Gold.PLP.Chemscore.Hbond>
1.5351

> <Gold.PLP.Chemscore.CHOScore>
0.0000

> <Gold.PLP.Chemscore.Metal>
0.0000

> <Gold.Chemscore.Hbonds>
donor molecule, donor type, donor heavy atom, donor atom, acceptor molecule, acceptor atom, score
      P1  H  1425  1458       L1     9  0.52
      P1  H 23671 23721       L1    11  0.89

> <Gold.PLP.Chemscore.Internal.Correction>
   9.000000E+99

