#       Name:                CT1002167954
#       Creating user name   hitesit
#       Creation time:       Sun Apr 16 02:32:18 2023


#       File generated by GOLD software.
#

@<TRIPOS>MOLECULE
CT1002167954|ligand_prepared|mol2|1|dock1
    29    30     1
SMALL
NO_CHARGES


@<TRIPOS>ATOM
      1 C1         226.1263 356.1500 -93.7206 C.3            1 RES1               0.0000
      2 C2         227.6477 356.1358 -93.4673 C.ar           1 RES1               0.0000
      3 C3         225.8817 355.2279 -94.9114 C.2            1 RES1               0.0000
      4 C4         225.4738 355.6799 -92.4253 C.2            1 RES1               0.0000
      5 C5         225.5624 357.5496 -94.0591 C.3            1 RES1               0.0000
      6 C6         228.5245 356.7034 -94.3869 C.ar           1 RES1               0.0000
      7 C7         228.1880 355.5621 -92.3194 C.ar           1 RES1               0.0000
      8 N8         225.3203 354.0102 -94.6627 N.am           1 RES1               0.0000
      9 O9         226.2126 355.5484 -96.0464 O.2            1 RES1               0.0000
     10 N10        224.7984 354.4876 -92.4425 N.am           1 RES1               0.0000
     11 O11        225.5524 356.3229 -91.3858 O.2            1 RES1               0.0000
     12 C12        224.0572 357.5685 -94.2742 C.3            1 RES1               0.0000
     13 C13        229.8917 356.7004 -94.1657 C.ar           1 RES1               0.0000
     14 C14        229.5556 355.5599 -92.1003 C.ar           1 RES1               0.0000
     15 C15        224.7182 353.6166 -93.4947 C.2            1 RES1               0.0000
     16 C16        230.4082 356.1291 -93.0222 C.ar           1 RES1               0.0000
     17 O17        224.1382 352.5374 -93.4167 O.2            1 RES1               0.0000
     18 H18        225.8109 358.2376 -93.2416 H              1 RES1               0.0000
     19 H19        226.0536 357.9178 -94.9682 H              1 RES1               0.0000
     20 H20        228.1367 357.1555 -95.2937 H              1 RES1               0.0000
     21 H21        227.5364 355.1075 -91.5809 H              1 RES1               0.0000
     22 H22        225.3510 353.3291 -95.4148 H              1 RES1               0.0000
     23 H23        224.3102 354.2252 -91.5922 H              1 RES1               0.0000
     24 H24        223.7137 358.5739 -94.5087 H              1 RES1               0.0000
     25 H25        223.7769 356.9141 -95.0970 H              1 RES1               0.0000
     26 H26        223.5356 357.2320 -93.3806 H              1 RES1               0.0000
     27 H27        230.5585 357.1485 -94.8949 H              1 RES1               0.0000
     28 H28        229.9577 355.1086 -91.1992 H              1 RES1               0.0000
     29 H29        231.4793 356.1272 -92.8489 H              1 RES1               0.0000
@<TRIPOS>BOND
    1    1    2 1     
    2    1    3 1     
    3    1    4 1     
    4    1    5 1     
    5    2    6 ar    
    6    2    7 ar    
    7    3    8 1     
    8    3    9 2     
    9    4   10 1     
   10    4   11 2     
   11    5   12 1     
   12    5   18 1     
   13    5   19 1     
   14    6   13 ar    
   15    6   20 1     
   16    7   14 ar    
   17    7   21 1     
   18    8   15 1     
   19    8   22 1     
   20   10   15 1     
   21   10   23 1     
   22   12   24 1     
   23   12   25 1     
   24   12   26 1     
   25   13   16 ar    
   26   13   27 1     
   27   14   16 ar    
   28   14   28 1     
   29   15   17 2     
   30   16   29 1     
@<TRIPOS>SUBSTRUCTURE
      1 RES1           1
@<TRIPOS>SET
DONOR_HYDROGENS      STATIC     ATOMS    <user>   **** ""
2 22 23
ATOM$RED        STATIC     ATOMS    COLORGROUP SYSTEM
2 22 23
@<TRIPOS>COMMENT
> <Gold.Version>
2022.3.0

> <Gold.Id.Protein>
unknown|7ts3_clean|pdb

> <Gold.Protein.RotatedTorsions>
[ 1457 1425 1424 1423 ] final  137.45 input   59.98 | X-H torsion
[ 3981 3955 3956 3957 ] final -132.79 input  120.40 | X-H torsion
[ 4062 4029 4030 4031 ] final   46.05 input  117.34 | X-H torsion
[ 6581 6560 6559 6557 ] final  150.41 input   59.98 | X-H torsion
[ 25706 25673 25674 25675 ] final  -96.02 input   60.60 | X-H torsion
[ 4242 4229 4230 4231 ] final -134.13 input  128.17 | X-H torsion
[ 1447 1417 1418 1419 ] final  -67.90 input   90.13 | X-H torsion
[ 1519 1499 1500 1501 ] final -118.30 input  110.10 | X-H torsion
[ 25633 25595 25596 25597 ] final -147.24 input   68.08 | X-H torsion
[ 1222 1195 1196 1197 ] final   98.28 input  124.45 | X-H torsion
[ 1302 1275 1276 1277 ] final  160.92 input  121.39 | X-H torsion
[ 1365 1339 1340 1341 ] final  -22.68 input  109.22 | X-H torsion
[ 1573 1545 1546 1547 ] final   25.87 input   73.55 | X-H torsion
[ 1579 1551 1549 1546 ] final  -98.91 input   59.99 | X-H torsion
[ 25712 25679 25677 25674 ] final   52.72 input   60.00 | X-H torsion
[ 1523 1504 1503 1500 ] final   11.37 input   60.00 | X-H torsion
[ 1641 1603 1604 1605 ] final   -5.21 input   84.06 | X-H torsion
[ 27271 1198 1197 1196 ] final   82.12 input   -0.00 | X-H torsion
[ 27273 1420 1419 1418 ] final  -45.73 input    0.00 | X-H torsion
[ 27280 3958 3957 3956 ] final -162.51 input   -0.00 | X-H torsion
[ 27285 6788 6787 6786 ] final  177.86 input   -0.00 | X-H torsion
[ 27288 23664 23663 23662 ] final  -17.50 input    0.00 | X-H torsion
[ 27291 25676 25675 25674 ] final -134.34 input    0.00 | X-H torsion
[ 27297 3694 3693 3692 ] final   86.08 input    0.00 | X-H torsion
[ 27300 25598 25597 25596 ] final  -32.14 input   -0.00 | X-H torsion
[ 27305 1342 1341 1340 ] final  -60.44 input    0.00 | X-H torsion
[ 27310 25508 25507 25506 ] final  160.26 input   -0.00 | X-H torsion
[ 27314 25737 25736 25735 ] final -178.77 input    0.00 | X-H torsion
[ 27316 1502 1501 1500 ] final  -34.46 input    0.00 | X-H torsion

> <Gold.Protein.ActiveResidues>
 LEU321  HIS322  LEU323  LYS324  SER325  THR326  LEU327  ARG348  GLU365  PHE366 
 GLN369  TYR370  SER372  SER373  TYR408  HIS412  ARG415  ASN416  ARG674  PRO678 
 TYR703  ARG704  LEU705  THR706  PRO707 

> <Gold.Protein.RotatedAtoms>
  224.0286  365.2316  -95.3213 H   0  0  0  0  0  0  0  0  0  0  0  0  # atno 1222 bound_to 1195
  226.5826  365.2083  -95.7374 H   0  0  0  0  0  0  0  0  0  0  0  0  # atno 1302 bound_to 1275
  228.4649  364.5015  -93.0818 H   0  0  0  0  0  0  0  0  0  0  0  0  # atno 1365 bound_to 1339
  229.3885  363.3983  -91.0752 H   0  0  0  0  0  0  0  0  0  0  0  0  # atno 1447 bound_to 1417
  226.3493  357.0254  -87.9171 H   0  0  0  0  0  0  0  0  0  0  0  0  # atno 1457 bound_to 1425
  225.5906  358.3798  -88.4984 H   0  0  0  0  0  0  0  0  0  0  0  0  # atno 1458 bound_to 1425
  226.0603  357.1802  -89.5417 H   0  0  0  0  0  0  0  0  0  0  0  0  # atno 1459 bound_to 1425
  230.5778  361.7118  -92.8816 H   0  0  0  0  0  0  0  0  0  0  0  0  # atno 1519 bound_to 1499
  234.2397  362.5917  -95.0572 H   0  0  0  0  0  0  0  0  0  0  0  0  # atno 1523 bound_to 1504
  234.8333  361.4260  -94.0532 H   0  0  0  0  0  0  0  0  0  0  0  0  # atno 1573 bound_to 1545
  234.1568  358.3327  -93.9364 H   0  0  0  0  0  0  0  0  0  0  0  0  # atno 1579 bound_to 1551
  236.7446  361.6209  -93.9911 H   0  0  0  0  0  0  0  0  0  0  0  0  # atno 1641 bound_to 1603
  227.5297  350.7413  -88.7392 H   0  0  0  0  0  0  0  0  0  0  0  0  # atno 3981 bound_to 3955
  226.7806  348.5260  -90.8667 H   0  0  0  0  0  0  0  0  0  0  0  0  # atno 4062 bound_to 4029
  222.2795  350.7870  -91.3056 H   0  0  0  0  0  0  0  0  0  0  0  0  # atno 4242 bound_to 4229
  226.2183  350.9461  -94.5633 H   0  0  0  0  0  0  0  0  0  0  0  0  # atno 6581 bound_to 6560
  233.3827  360.5351  -97.7093 H   0  0  0  0  0  0  0  0  0  0  0  0  # atno 25633 bound_to 25595
  232.6695  356.9470  -97.3557 H   0  0  0  0  0  0  0  0  0  0  0  0  # atno 25706 bound_to 25673
  235.5333  353.6511  -97.0747 H   0  0  0  0  0  0  0  0  0  0  0  0  # atno 25712 bound_to 25679
  227.6643  362.0957  -94.6304 LP  0  0  0  0  0  0  0  0  0  0  0  0  # atno 27271 bound_to 1198
  227.5497  362.8521  -93.0764 LP  0  0  0  0  0  0  0  0  0  0  0  0  # atno 27272 bound_to 1198
  231.3327  359.4149  -91.6456 LP  0  0  0  0  0  0  0  0  0  0  0  0  # atno 27273 bound_to 1420
  231.6573  359.8361  -93.2940 LP  0  0  0  0  0  0  0  0  0  0  0  0  # atno 27274 bound_to 1420
  228.0183  349.3896  -89.7338 LP  0  0  0  0  0  0  0  0  0  0  0  0  # atno 27279 bound_to 3955
  224.1933  349.3597  -92.0023 LP  0  0  0  0  0  0  0  0  0  0  0  0  # atno 27280 bound_to 3958
  224.4889  351.0451  -91.7333 LP  0  0  0  0  0  0  0  0  0  0  0  0  # atno 27281 bound_to 3958
  226.8777  349.5332  -92.2883 LP  0  0  0  0  0  0  0  0  0  0  0  0  # atno 27282 bound_to 4029
  224.6943  351.1268  -95.1035 LP  0  0  0  0  0  0  0  0  0  0  0  0  # atno 27283 bound_to 6560
  225.9436  351.7484  -95.9518 LP  0  0  0  0  0  0  0  0  0  0  0  0  # atno 27284 bound_to 6560
  230.3325  354.2978 -101.9351 LP  0  0  0  0  0  0  0  0  0  0  0  0  # atno 27285 bound_to 6788
  228.6453  354.3374 -101.5455 LP  0  0  0  0  0  0  0  0  0  0  0  0  # atno 27286 bound_to 6788
  221.7445  360.2389  -95.3870 LP  0  0  0  0  0  0  0  0  0  0  0  0  # atno 27288 bound_to 23664
  222.0247  361.9443  -95.5023 LP  0  0  0  0  0  0  0  0  0  0  0  0  # atno 27289 bound_to 23664
  232.8103  356.7432  -95.6308 LP  0  0  0  0  0  0  0  0  0  0  0  0  # atno 27290 bound_to 25673
  230.9366  353.5961  -95.2322 LP  0  0  0  0  0  0  0  0  0  0  0  0  # atno 27291 bound_to 25676
  230.8737  355.1983  -95.8871 LP  0  0  0  0  0  0  0  0  0  0  0  0  # atno 27292 bound_to 25676
  222.2793  349.0435  -91.4011 LP  0  0  0  0  0  0  0  0  0  0  0  0  # atno 27294 bound_to 4229
  228.0637  362.8151  -92.0671 LP  0  0  0  0  0  0  0  0  0  0  0  0  # atno 27295 bound_to 1417
  231.3089  362.9310  -91.8676 LP  0  0  0  0  0  0  0  0  0  0  0  0  # atno 27296 bound_to 1499
  229.9683  351.6555  -89.8177 LP  0  0  0  0  0  0  0  0  0  0  0  0  # atno 27297 bound_to 3694
  229.5883  350.1586  -89.0334 LP  0  0  0  0  0  0  0  0  0  0  0  0  # atno 27298 bound_to 3694
  233.6581  359.3542  -98.9740 LP  0  0  0  0  0  0  0  0  0  0  0  0  # atno 27299 bound_to 25595
  233.2634  357.3572  -99.4744 LP  0  0  0  0  0  0  0  0  0  0  0  0  # atno 27300 bound_to 25598
  234.3277  356.2732  -98.6424 LP  0  0  0  0  0  0  0  0  0  0  0  0  # atno 27301 bound_to 25598
  224.0752  364.9806  -93.5905 LP  0  0  0  0  0  0  0  0  0  0  0  0  # atno 27302 bound_to 1195
  226.6248  364.3856  -94.1938 LP  0  0  0  0  0  0  0  0  0  0  0  0  # atno 27303 bound_to 1275
  227.4541  365.8351  -92.5934 LP  0  0  0  0  0  0  0  0  0  0  0  0  # atno 27304 bound_to 1339
  230.6510  363.9636  -89.5034 LP  0  0  0  0  0  0  0  0  0  0  0  0  # atno 27305 bound_to 1342
  229.4842  362.8058  -88.9575 LP  0  0  0  0  0  0  0  0  0  0  0  0  # atno 27306 bound_to 1342
  233.6875  360.9691  -92.8124 LP  0  0  0  0  0  0  0  0  0  0  0  0  # atno 27307 bound_to 1545
  235.6112  357.8512  -94.4849 LP  0  0  0  0  0  0  0  0  0  0  0  0  # atno 27308 bound_to 1551
  235.1822  359.4243  -94.5727 LP  0  0  0  0  0  0  0  0  0  0  0  0  # atno 27309 bound_to 1551
  233.4603  360.3149  -95.6977 LP  0  0  0  0  0  0  0  0  0  0  0  0  # atno 27310 bound_to 25508
  234.9535  361.1584  -95.9403 LP  0  0  0  0  0  0  0  0  0  0  0  0  # atno 27311 bound_to 25508
  234.6232  352.7276  -96.0914 LP  0  0  0  0  0  0  0  0  0  0  0  0  # atno 27312 bound_to 25679
  236.0110  353.3893  -95.5413 LP  0  0  0  0  0  0  0  0  0  0  0  0  # atno 27313 bound_to 25679
  232.8328  354.7379 -100.6155 LP  0  0  0  0  0  0  0  0  0  0  0  0  # atno 27314 bound_to 25737
  231.8123  354.2416  -99.3070 LP  0  0  0  0  0  0  0  0  0  0  0  0  # atno 27315 bound_to 25737
  233.6110  363.1183  -91.1722 LP  0  0  0  0  0  0  0  0  0  0  0  0  # atno 27316 bound_to 1502
  234.2844  361.5849  -90.7305 LP  0  0  0  0  0  0  0  0  0  0  0  0  # atno 27317 bound_to 1502
  234.7465  364.0307  -94.4914 LP  0  0  0  0  0  0  0  0  0  0  0  0  # atno 27318 bound_to 1504
  233.7673  363.9622  -95.7965 LP  0  0  0  0  0  0  0  0  0  0  0  0  # atno 27319 bound_to 1504

> <Gold.Score>
     Fitness  S(hb_ext) S(vdw_ext)  S(hb_int)    S(int)      intcor
     39.22       4.40      26.84       0.00      -2.10      -0.79

> <Gold.Goldscore.Fitness>
39.2155

> <Gold.Goldscore.Internal.Vdw>
-2.5155

> <Gold.Goldscore.Internal.Torsion>
-0.3694

> <Gold.Goldscore.External.Vdw>
26.8441

> <Gold.Goldscore.Internal.HBond>
0.0000

> <Gold.Goldscore.External.HBond>
4.4025

> <Gold.Goldscore.Internal.Correction>
-0.7872

> <Gold.Goldscore.Hbonds>
donor molecule, donor type, donor heavy atom, donor atom, acceptor molecule, acceptor atom, score
      P1  H 23671 23721       L1     9  0.73

> <Gold.Goldscore.Internal.Vdw.Weighted>
-2.5155

> <Gold.Goldscore.Internal.Torsion.Weighted>
-0.3694

> <Gold.Goldscore.External.Vdw.Weighted>
36.9107

> <Gold.Goldscore.Internal.HBond.Weighted>
0.0000

> <Gold.Goldscore.External.HBond.Weighted>
4.4025

> <Gold.Goldscore.Internal.Correction.Weighted>
-0.7872

> <Gold.Rescore>
     Score     S(PLP)   S(hbond)     S(cho)   S(metal)  DE(clash)   DE(tors)     intcor
     42.42     -37.00       2.31       0.00       0.00       1.24       0.14       ----

> <Gold.PLP.Fitness>
42.4210

> <Gold.PLP.PLP>
-37.0009

> <Gold.PLP.part.hbond>
-2.9858

> <Gold.PLP.part.metal>
0.0000

> <Gold.PLP.part.buried>
-5.4114

> <Gold.PLP.part.nonpolar>
-30.5298

> <Gold.PLP.part.repulsive>
1.8578

> <Gold.PLP.ligand.clash>
1.2370

> <Gold.PLP.ligand.torsion>
0.1391

> <Gold.PLP.Chemscore.Hbond>
2.3118

> <Gold.PLP.Chemscore.CHOScore>
0.0000

> <Gold.PLP.Chemscore.Metal>
0.0000

> <Gold.Chemscore.Hbonds>
donor molecule, donor type, donor heavy atom, donor atom, acceptor molecule, acceptor atom, score
      L1  H     8    22       P1  6560  0.19
      P1  H  1425  1459       L1    11  1.00
      P1  H 23671 23721       L1     9  1.00

> <Gold.PLP.Chemscore.Internal.Correction>
   9.000000E+99

