#       Name:                CT1002167954
#       Creating user name   hitesit
#       Creation time:       Sun Apr 16 02:32:22 2023


#       File generated by GOLD software.
#

@<TRIPOS>MOLECULE
CT1002167954|ligand_prepared|mol2|1|dock9
    29    30     1
SMALL
NO_CHARGES


@<TRIPOS>ATOM
      1 C1         226.0658 355.8917 -93.1803 C.3            1 RES1               0.0000
      2 C2         225.9159 355.1298 -91.8477 C.ar           1 RES1               0.0000
      3 C3         225.6974 354.9033 -94.2828 C.2            1 RES1               0.0000
      4 C4         225.1366 357.0971 -93.0894 C.2            1 RES1               0.0000
      5 C5         227.4981 356.4115 -93.4452 C.3            1 RES1               0.0000
      6 C6         224.6892 354.5887 -91.4750 C.ar           1 RES1               0.0000
      7 C7         226.9940 354.9579 -90.9836 C.ar           1 RES1               0.0000
      8 N8         224.4946 355.0692 -94.9039 N.am           1 RES1               0.0000
      9 O9         226.4334 353.9691 -94.5756 O.2            1 RES1               0.0000
     10 N10        224.0654 357.1479 -93.9424 N.am           1 RES1               0.0000
     11 O11        225.3130 357.9953 -92.2754 O.2            1 RES1               0.0000
     12 C12        227.6455 357.1591 -94.7610 C.3            1 RES1               0.0000
     13 C13        224.5459 353.8982 -90.2829 C.ar           1 RES1               0.0000
     14 C14        226.8486 354.2671 -89.7919 C.ar           1 RES1               0.0000
     15 C15        223.6849 356.1736 -94.8246 C.2            1 RES1               0.0000
     16 C16        225.6255 353.7365 -89.4409 C.ar           1 RES1               0.0000
     17 O17        222.6774 356.2681 -95.5196 O.2            1 RES1               0.0000
     18 H18        227.7885 357.0796 -92.6250 H              1 RES1               0.0000
     19 H19        228.1888 355.5593 -93.4440 H              1 RES1               0.0000
     20 H20        223.8278 354.7079 -92.1237 H              1 RES1               0.0000
     21 H21        227.9655 355.3676 -91.2386 H              1 RES1               0.0000
     22 H22        224.1668 354.3009 -95.4807 H              1 RES1               0.0000
     23 H23        223.4992 357.9900 -93.9175 H              1 RES1               0.0000
     24 H24        228.6690 357.5020 -94.8973 H              1 RES1               0.0000
     25 H25        227.3887 356.5165 -95.6006 H              1 RES1               0.0000
     26 H26        226.9908 358.0278 -94.7865 H              1 RES1               0.0000
     27 H27        223.5809 353.4837 -90.0107 H              1 RES1               0.0000
     28 H28        227.7008 354.1429 -89.1319 H              1 RES1               0.0000
     29 H29        225.5131 353.1952 -88.5073 H              1 RES1               0.0000
@<TRIPOS>BOND
    1    1    2 1     
    2    1    3 1     
    3    1    4 1     
    4    1    5 1     
    5    2    6 ar    
    6    2    7 ar    
    7    3    8 1     
    8    3    9 2     
    9    4   10 1     
   10    4   11 2     
   11    5   12 1     
   12    5   18 1     
   13    5   19 1     
   14    6   13 ar    
   15    6   20 1     
   16    7   14 ar    
   17    7   21 1     
   18    8   15 1     
   19    8   22 1     
   20   10   15 1     
   21   10   23 1     
   22   12   24 1     
   23   12   25 1     
   24   12   26 1     
   25   13   16 ar    
   26   13   27 1     
   27   14   16 ar    
   28   14   28 1     
   29   15   17 2     
   30   16   29 1     
@<TRIPOS>SUBSTRUCTURE
      1 RES1           1
@<TRIPOS>SET
DONOR_HYDROGENS      STATIC     ATOMS    <user>   **** ""
2 22 23
ATOM$RED        STATIC     ATOMS    COLORGROUP SYSTEM
2 22 23
@<TRIPOS>COMMENT
> <Gold.Version>
2022.3.0

> <Gold.Id.Protein>
unknown|7ts3_clean|pdb

> <Gold.Protein.RotatedTorsions>
[ 1457 1425 1424 1423 ] final  -16.52 input   59.98 | X-H torsion
[ 3981 3955 3956 3957 ] final  141.73 input  120.40 | X-H torsion
[ 4062 4029 4030 4031 ] final -134.75 input  117.34 | X-H torsion
[ 6581 6560 6559 6557 ] final  -16.86 input   59.98 | X-H torsion
[ 25706 25673 25674 25675 ] final  -22.60 input   60.60 | X-H torsion
[ 4242 4229 4230 4231 ] final  135.17 input  128.17 | X-H torsion
[ 1447 1417 1418 1419 ] final   26.01 input   90.13 | X-H torsion
[ 1519 1499 1500 1501 ] final  -72.48 input  110.10 | X-H torsion
[ 25633 25595 25596 25597 ] final   95.10 input   68.08 | X-H torsion
[ 1222 1195 1196 1197 ] final  -59.78 input  124.45 | X-H torsion
[ 1302 1275 1276 1277 ] final   56.41 input  121.39 | X-H torsion
[ 1365 1339 1340 1341 ] final  -21.87 input  109.22 | X-H torsion
[ 1573 1545 1546 1547 ] final   20.98 input   73.55 | X-H torsion
[ 1579 1551 1549 1546 ] final  176.09 input   59.99 | X-H torsion
[ 25712 25679 25677 25674 ] final  -30.63 input   60.00 | X-H torsion
[ 1523 1504 1503 1500 ] final   66.65 input   60.00 | X-H torsion
[ 1641 1603 1604 1605 ] final -123.79 input   84.06 | X-H torsion
[ 27271 1198 1197 1196 ] final   21.96 input   -0.00 | X-H torsion
[ 27273 1420 1419 1418 ] final -121.83 input    0.00 | X-H torsion
[ 27280 3958 3957 3956 ] final   55.19 input   -0.00 | X-H torsion
[ 27285 6788 6787 6786 ] final  -81.34 input   -0.00 | X-H torsion
[ 27288 23664 23663 23662 ] final -124.28 input    0.00 | X-H torsion
[ 27291 25676 25675 25674 ] final   56.47 input    0.00 | X-H torsion
[ 27297 3694 3693 3692 ] final  155.03 input    0.00 | X-H torsion
[ 27300 25598 25597 25596 ] final   97.35 input   -0.00 | X-H torsion
[ 27305 1342 1341 1340 ] final -110.31 input    0.00 | X-H torsion
[ 27310 25508 25507 25506 ] final  176.38 input   -0.00 | X-H torsion
[ 27314 25737 25736 25735 ] final  -14.36 input    0.00 | X-H torsion
[ 27316 1502 1501 1500 ] final  -93.22 input    0.00 | X-H torsion

> <Gold.Protein.ActiveResidues>
 LEU321  HIS322  LEU323  LYS324  SER325  THR326  LEU327  ARG348  GLU365  PHE366 
 GLN369  TYR370  SER372  SER373  TYR408  HIS412  ARG415  ASN416  ARG674  PRO678 
 TYR703  ARG704  LEU705  THR706  PRO707 

> <Gold.Protein.RotatedAtoms>
  224.3626  365.1504  -93.6117 H   0  0  0  0  0  0  0  0  0  0  0  0  # atno 1222 bound_to 1195
  226.4135  365.4227  -94.3597 H   0  0  0  0  0  0  0  0  0  0  0  0  # atno 1302 bound_to 1275
  228.4556  364.4937  -93.0793 H   0  0  0  0  0  0  0  0  0  0  0  0  # atno 1365 bound_to 1339
  229.1556  363.2174  -92.3541 H   0  0  0  0  0  0  0  0  0  0  0  0  # atno 1447 bound_to 1417
  225.8057  357.6772  -89.5773 H   0  0  0  0  0  0  0  0  0  0  0  0  # atno 1457 bound_to 1425
  226.4417  356.7247  -88.3788 H   0  0  0  0  0  0  0  0  0  0  0  0  # atno 1458 bound_to 1425
  225.7526  358.1842  -88.0003 H   0  0  0  0  0  0  0  0  0  0  0  0  # atno 1459 bound_to 1425
  230.9156  361.4468  -92.3469 H   0  0  0  0  0  0  0  0  0  0  0  0  # atno 1519 bound_to 1499
  233.7829  362.9614  -95.6966 H   0  0  0  0  0  0  0  0  0  0  0  0  # atno 1523 bound_to 1504
  234.8451  361.4899  -94.0142 H   0  0  0  0  0  0  0  0  0  0  0  0  # atno 1573 bound_to 1545
  235.1550  357.6196  -94.2450 H   0  0  0  0  0  0  0  0  0  0  0  0  # atno 1579 bound_to 1551
  237.3203  360.5348  -93.0841 H   0  0  0  0  0  0  0  0  0  0  0  0  # atno 1641 bound_to 1603
  228.4983  350.5381  -89.4199 H   0  0  0  0  0  0  0  0  0  0  0  0  # atno 3981 bound_to 3955
  226.8925  349.5400  -92.2983 H   0  0  0  0  0  0  0  0  0  0  0  0  # atno 4062 bound_to 4029
  223.0659  349.9184  -91.7499 H   0  0  0  0  0  0  0  0  0  0  0  0  # atno 4242 bound_to 4229
  224.8794  351.5109  -95.7244 H   0  0  0  0  0  0  0  0  0  0  0  0  # atno 6581 bound_to 6560
  232.9150  359.8745  -99.0058 H   0  0  0  0  0  0  0  0  0  0  0  0  # atno 25633 bound_to 25595
  231.9311  356.5952  -96.7064 H   0  0  0  0  0  0  0  0  0  0  0  0  # atno 25706 bound_to 25673
  234.6150  352.9270  -96.6475 H   0  0  0  0  0  0  0  0  0  0  0  0  # atno 25712 bound_to 25679
  227.0245  361.8768  -94.0861 LP  0  0  0  0  0  0  0  0  0  0  0  0  # atno 27271 bound_to 1198
  228.1894  363.0711  -93.6207 LP  0  0  0  0  0  0  0  0  0  0  0  0  # atno 27272 bound_to 1198
  232.2094  359.8726  -92.0472 LP  0  0  0  0  0  0  0  0  0  0  0  0  # atno 27273 bound_to 1420
  230.7806  359.3784  -92.8924 LP  0  0  0  0  0  0  0  0  0  0  0  0  # atno 27274 bound_to 1420
  227.0737  349.5878  -89.0699 LP  0  0  0  0  0  0  0  0  0  0  0  0  # atno 27279 bound_to 3955
  224.5805  350.9293  -92.2731 LP  0  0  0  0  0  0  0  0  0  0  0  0  # atno 27280 bound_to 3958
  224.1017  349.4755  -91.4625 LP  0  0  0  0  0  0  0  0  0  0  0  0  # atno 27281 bound_to 3958
  226.7674  348.5342  -90.8779 LP  0  0  0  0  0  0  0  0  0  0  0  0  # atno 27282 bound_to 4029
  226.4879  351.5188  -95.4799 LP  0  0  0  0  0  0  0  0  0  0  0  0  # atno 27283 bound_to 6560
  225.4992  350.7873  -94.4056 LP  0  0  0  0  0  0  0  0  0  0  0  0  # atno 27284 bound_to 6560
  229.1402  354.3497 -102.5324 LP  0  0  0  0  0  0  0  0  0  0  0  0  # atno 27285 bound_to 6788
  229.8376  354.2855 -100.9482 LP  0  0  0  0  0  0  0  0  0  0  0  0  # atno 27286 bound_to 6788
  221.3701  361.4696  -94.8595 LP  0  0  0  0  0  0  0  0  0  0  0  0  # atno 27288 bound_to 23664
  222.3991  360.7135  -96.0298 LP  0  0  0  0  0  0  0  0  0  0  0  0  # atno 27289 bound_to 23664
  233.5448  357.0932  -96.2767 LP  0  0  0  0  0  0  0  0  0  0  0  0  # atno 27290 bound_to 25673
  230.7711  355.1332  -95.9960 LP  0  0  0  0  0  0  0  0  0  0  0  0  # atno 27291 bound_to 25676
  231.0391  353.6612  -95.1234 LP  0  0  0  0  0  0  0  0  0  0  0  0  # atno 27292 bound_to 25676
  221.5066  349.8969  -90.9645 LP  0  0  0  0  0  0  0  0  0  0  0  0  # atno 27294 bound_to 4229
  228.2858  362.9877  -90.8475 LP  0  0  0  0  0  0  0  0  0  0  0  0  # atno 27295 bound_to 1417
  230.9770  363.1913  -92.3929 LP  0  0  0  0  0  0  0  0  0  0  0  0  # atno 27296 bound_to 1499
  229.8299  350.8042  -90.2839 LP  0  0  0  0  0  0  0  0  0  0  0  0  # atno 27297 bound_to 3694
  229.7267  351.0099  -88.5672 LP  0  0  0  0  0  0  0  0  0  0  0  0  # atno 27298 bound_to 3694
  234.1077  359.9894  -97.7275 LP  0  0  0  0  0  0  0  0  0  0  0  0  # atno 27299 bound_to 25595
  234.5756  356.9658  -98.7135 LP  0  0  0  0  0  0  0  0  0  0  0  0  # atno 27300 bound_to 25598
  233.0156  356.6647  -99.4033 LP  0  0  0  0  0  0  0  0  0  0  0  0  # atno 27301 bound_to 25598
  223.7513  365.0593  -95.2484 LP  0  0  0  0  0  0  0  0  0  0  0  0  # atno 27302 bound_to 1195
  226.7887  364.1776  -95.5302 LP  0  0  0  0  0  0  0  0  0  0  0  0  # atno 27303 bound_to 1275
  227.4632  365.8429  -92.5960 LP  0  0  0  0  0  0  0  0  0  0  0  0  # atno 27304 bound_to 1339
  230.7852  363.2740  -89.7024 LP  0  0  0  0  0  0  0  0  0  0  0  0  # atno 27305 bound_to 1342
  229.3500  363.4954  -88.7585 LP  0  0  0  0  0  0  0  0  0  0  0  0  # atno 27306 bound_to 1342
  233.6761  360.9071  -92.8503 LP  0  0  0  0  0  0  0  0  0  0  0  0  # atno 27307 bound_to 1545
  235.6295  359.1048  -94.7110 LP  0  0  0  0  0  0  0  0  0  0  0  0  # atno 27308 bound_to 1551
  234.1584  358.8889  -94.0358 LP  0  0  0  0  0  0  0  0  0  0  0  0  # atno 27309 bound_to 1551
  233.6096  360.1236  -95.6870 LP  0  0  0  0  0  0  0  0  0  0  0  0  # atno 27310 bound_to 25508
  234.8042  361.3497  -95.9510 LP  0  0  0  0  0  0  0  0  0  0  0  0  # atno 27311 bound_to 25508
  235.5737  353.0445  -95.3378 LP  0  0  0  0  0  0  0  0  0  0  0  0  # atno 27312 bound_to 25679
  235.9852  353.8015  -96.7250 LP  0  0  0  0  0  0  0  0  0  0  0  0  # atno 27313 bound_to 25679
  231.7269  354.0964  -99.4708 LP  0  0  0  0  0  0  0  0  0  0  0  0  # atno 27314 bound_to 25737
  232.9181  354.8831 -100.4517 LP  0  0  0  0  0  0  0  0  0  0  0  0  # atno 27315 bound_to 25737
  234.4505  362.9996  -91.2294 LP  0  0  0  0  0  0  0  0  0  0  0  0  # atno 27316 bound_to 1502
  233.4449  361.7036  -90.6732 LP  0  0  0  0  0  0  0  0  0  0  0  0  # atno 27317 bound_to 1502
  234.7584  363.1599  -94.4094 LP  0  0  0  0  0  0  0  0  0  0  0  0  # atno 27318 bound_to 1504
  234.2156  364.4605  -95.2345 LP  0  0  0  0  0  0  0  0  0  0  0  0  # atno 27319 bound_to 1504

> <Gold.Score>
     Fitness  S(hb_ext) S(vdw_ext)  S(hb_int)    S(int)      intcor
     29.43       0.00      21.43       0.00      -0.03      -0.76

> <Gold.Goldscore.Fitness>
29.4259

> <Gold.Goldscore.Internal.Vdw>
-0.4236

> <Gold.Goldscore.Internal.Torsion>
-0.3672

> <Gold.Goldscore.External.Vdw>
21.4258

> <Gold.Goldscore.Internal.HBond>
0.0000

> <Gold.Goldscore.External.HBond>
0.0000

> <Gold.Goldscore.Internal.Correction>
-0.7562

> <Gold.Goldscore.Internal.Vdw.Weighted>
-0.4236

> <Gold.Goldscore.Internal.Torsion.Weighted>
-0.3672

> <Gold.Goldscore.External.Vdw.Weighted>
29.4605

> <Gold.Goldscore.Internal.HBond.Weighted>
0.0000

> <Gold.Goldscore.External.HBond.Weighted>
0.0000

> <Gold.Goldscore.Internal.Correction.Weighted>
-0.7562

> <Gold.Rescore>
     Score     S(PLP)   S(hbond)     S(cho)   S(metal)  DE(clash)   DE(tors)     intcor
     30.66     -30.71       0.00       0.00       0.00       0.00       0.02       ----

> <Gold.PLP.Fitness>
30.6589

> <Gold.PLP.PLP>
-30.7065

> <Gold.PLP.part.hbond>
-1.0000

> <Gold.PLP.part.metal>
0.0000

> <Gold.PLP.part.buried>
-4.0989

> <Gold.PLP.part.nonpolar>
-26.1620

> <Gold.PLP.part.repulsive>
0.1230

> <Gold.PLP.ligand.clash>
0.0000

> <Gold.PLP.ligand.torsion>
0.0238

> <Gold.PLP.Chemscore.Hbond>
0.0000

> <Gold.PLP.Chemscore.CHOScore>
0.0000

> <Gold.PLP.Chemscore.Metal>
0.0000

> <Gold.PLP.Chemscore.Internal.Correction>
   9.000000E+99

