#       Name:                CT1002167954
#       Creating user name   hitesit
#       Creation time:       Sun Apr 16 02:32:19 2023


#       File generated by GOLD software.
#

@<TRIPOS>MOLECULE
CT1002167954|ligand_prepared|mol2|1|dock2
    29    30     1
SMALL
NO_CHARGES


@<TRIPOS>ATOM
      1 C1         224.9448 355.2129 -93.7286 C.3            1 RES1               0.0000
      2 C2         226.4369 355.4550 -94.0346 C.ar           1 RES1               0.0000
      3 C3         224.8173 355.1911 -92.2082 C.2            1 RES1               0.0000
      4 C4         224.1816 356.3489 -94.4006 C.2            1 RES1               0.0000
      5 C5         224.4014 353.8767 -94.2862 C.3            1 RES1               0.0000
      6 C6         227.2750 356.0162 -93.0757 C.ar           1 RES1               0.0000
      7 C7         226.9894 355.1205 -95.2681 C.ar           1 RES1               0.0000
      8 N8         224.2465 356.2736 -91.6064 N.am           1 RES1               0.0000
      9 O9         225.2469 354.2557 -91.5443 O.2            1 RES1               0.0000
     10 N10        223.5213 357.2419 -93.5979 N.am           1 RES1               0.0000
     11 O11        224.1600 356.4884 -95.6173 O.2            1 RES1               0.0000
     12 C12        223.0035 353.5316 -93.7975 C.3            1 RES1               0.0000
     13 C13        228.6174 356.2324 -93.3393 C.ar           1 RES1               0.0000
     14 C14        228.3321 355.3378 -95.5296 C.ar           1 RES1               0.0000
     15 C15        223.5446 357.2735 -92.2302 C.2            1 RES1               0.0000
     16 C16        229.1470 355.8931 -94.5660 C.ar           1 RES1               0.0000
     17 O17        222.9695 358.1411 -91.5792 O.2            1 RES1               0.0000
     18 H18        224.3892 353.9303 -95.3818 H              1 RES1               0.0000
     19 H19        225.0856 353.0693 -93.9976 H              1 RES1               0.0000
     20 H20        226.8756 356.2919 -92.1054 H              1 RES1               0.0000
     21 H21        226.3671 354.6835 -96.0416 H              1 RES1               0.0000
     22 H22        224.3514 356.3466 -90.5994 H              1 RES1               0.0000
     23 H23        222.9602 357.9484 -94.0631 H              1 RES1               0.0000
     24 H24        222.6703 352.5853 -94.2185 H              1 RES1               0.0000
     25 H25        222.9842 353.4456 -92.7131 H              1 RES1               0.0000
     26 H26        222.2920 354.3015 -94.0891 H              1 RES1               0.0000
     27 H27        229.2541 356.6710 -92.5780 H              1 RES1               0.0000
     28 H28        228.7445 355.0698 -96.4968 H              1 RES1               0.0000
     29 H29        230.1987 356.0622 -94.7721 H              1 RES1               0.0000
@<TRIPOS>BOND
    1    1    2 1     
    2    1    3 1     
    3    1    4 1     
    4    1    5 1     
    5    2    6 ar    
    6    2    7 ar    
    7    3    8 1     
    8    3    9 2     
    9    4   10 1     
   10    4   11 2     
   11    5   12 1     
   12    5   18 1     
   13    5   19 1     
   14    6   13 ar    
   15    6   20 1     
   16    7   14 ar    
   17    7   21 1     
   18    8   15 1     
   19    8   22 1     
   20   10   15 1     
   21   10   23 1     
   22   12   24 1     
   23   12   25 1     
   24   12   26 1     
   25   13   16 ar    
   26   13   27 1     
   27   14   16 ar    
   28   14   28 1     
   29   15   17 2     
   30   16   29 1     
@<TRIPOS>SUBSTRUCTURE
      1 RES1           1
@<TRIPOS>SET
DONOR_HYDROGENS      STATIC     ATOMS    <user>   **** ""
2 22 23
ATOM$RED        STATIC     ATOMS    COLORGROUP SYSTEM
2 22 23
@<TRIPOS>COMMENT
> <Gold.Version>
2022.3.0

> <Gold.Id.Protein>
unknown|7ts3_clean|pdb

> <Gold.Protein.RotatedTorsions>
[ 1457 1425 1424 1423 ] final  163.07 input   59.98 | X-H torsion
[ 3981 3955 3956 3957 ] final -177.93 input  120.40 | X-H torsion
[ 4062 4029 4030 4031 ] final -105.92 input  117.34 | X-H torsion
[ 6581 6560 6559 6557 ] final  -83.94 input   59.98 | X-H torsion
[ 25706 25673 25674 25675 ] final -162.26 input   60.60 | X-H torsion
[ 4242 4229 4230 4231 ] final  153.80 input  128.17 | X-H torsion
[ 1447 1417 1418 1419 ] final   86.51 input   90.13 | X-H torsion
[ 1519 1499 1500 1501 ] final   77.71 input  110.10 | X-H torsion
[ 25633 25595 25596 25597 ] final   76.75 input   68.08 | X-H torsion
[ 1222 1195 1196 1197 ] final   88.05 input  124.45 | X-H torsion
[ 1302 1275 1276 1277 ] final  163.53 input  121.39 | X-H torsion
[ 1365 1339 1340 1341 ] final  102.86 input  109.22 | X-H torsion
[ 1573 1545 1546 1547 ] final    4.10 input   73.55 | X-H torsion
[ 1579 1551 1549 1546 ] final -122.46 input   59.99 | X-H torsion
[ 25712 25679 25677 25674 ] final  -53.87 input   60.00 | X-H torsion
[ 1523 1504 1503 1500 ] final -136.19 input   60.00 | X-H torsion
[ 1641 1603 1604 1605 ] final    4.33 input   84.06 | X-H torsion
[ 27271 1198 1197 1196 ] final  132.02 input   -0.00 | X-H torsion
[ 27273 1420 1419 1418 ] final  178.78 input    0.00 | X-H torsion
[ 27280 3958 3957 3956 ] final  -13.71 input   -0.00 | X-H torsion
[ 27285 6788 6787 6786 ] final  -46.25 input   -0.00 | X-H torsion
[ 27288 23664 23663 23662 ] final -149.87 input    0.00 | X-H torsion
[ 27291 25676 25675 25674 ] final  -44.97 input    0.00 | X-H torsion
[ 27297 3694 3693 3692 ] final  -36.51 input    0.00 | X-H torsion
[ 27300 25598 25597 25596 ] final -164.36 input   -0.00 | X-H torsion
[ 27305 1342 1341 1340 ] final  -69.73 input    0.00 | X-H torsion
[ 27310 25508 25507 25506 ] final   14.70 input   -0.00 | X-H torsion
[ 27314 25737 25736 25735 ] final    7.72 input    0.00 | X-H torsion
[ 27316 1502 1501 1500 ] final  -48.59 input    0.00 | X-H torsion

> <Gold.Protein.ActiveResidues>
 LEU321  HIS322  LEU323  LYS324  SER325  THR326  LEU327  ARG348  GLU365  PHE366 
 GLN369  TYR370  SER372  SER373  TYR408  HIS412  ARG415  ASN416  ARG674  PRO678 
 TYR703  ARG704  LEU705  THR706  PRO707 

> <Gold.Protein.RotatedAtoms>
  224.1616  365.3143  -95.2986 H   0  0  0  0  0  0  0  0  0  0  0  0  # atno 1222 bound_to 1195
  226.5923  365.1734  -95.7552 H   0  0  0  0  0  0  0  0  0  0  0  0  # atno 1302 bound_to 1275
  227.1291  365.1072  -92.5620 H   0  0  0  0  0  0  0  0  0  0  0  0  # atno 1365 bound_to 1339
  228.3240  362.8613  -92.3578 H   0  0  0  0  0  0  0  0  0  0  0  0  # atno 1447 bound_to 1417
  226.1976  357.3741  -87.7288 H   0  0  0  0  0  0  0  0  0  0  0  0  # atno 1457 bound_to 1425
  225.5589  358.3348  -88.9193 H   0  0  0  0  0  0  0  0  0  0  0  0  # atno 1458 bound_to 1425
  226.2438  356.8764  -89.3089 H   0  0  0  0  0  0  0  0  0  0  0  0  # atno 1459 bound_to 1425
  231.2103  363.0917  -92.0218 H   0  0  0  0  0  0  0  0  0  0  0  0  # atno 1519 bound_to 1499
  234.5601  364.3356  -94.7610 H   0  0  0  0  0  0  0  0  0  0  0  0  # atno 1523 bound_to 1504
  234.8527  361.6911  -93.8483 H   0  0  0  0  0  0  0  0  0  0  0  0  # atno 1573 bound_to 1545
  234.3237  357.9892  -93.9490 H   0  0  0  0  0  0  0  0  0  0  0  0  # atno 1579 bound_to 1551
  236.7175  361.5808  -94.1308 H   0  0  0  0  0  0  0  0  0  0  0  0  # atno 1641 bound_to 1603
  228.1300  350.8428  -89.0405 H   0  0  0  0  0  0  0  0  0  0  0  0  # atno 3981 bound_to 3955
  226.5240  349.6725  -92.1032 H   0  0  0  0  0  0  0  0  0  0  0  0  # atno 4062 bound_to 4029
  223.0276  350.1988  -91.7158 H   0  0  0  0  0  0  0  0  0  0  0  0  # atno 4242 bound_to 4229
  225.8537  351.7510  -95.9745 H   0  0  0  0  0  0  0  0  0  0  0  0  # atno 6581 bound_to 6560
  233.0914  359.6671  -99.0895 H   0  0  0  0  0  0  0  0  0  0  0  0  # atno 25633 bound_to 25595
  233.4600  357.1660  -96.8674 H   0  0  0  0  0  0  0  0  0  0  0  0  # atno 25706 bound_to 25673
  234.5846  352.7826  -96.3004 H   0  0  0  0  0  0  0  0  0  0  0  0  # atno 25712 bound_to 25679
  228.1827  362.5910  -94.4896 LP  0  0  0  0  0  0  0  0  0  0  0  0  # atno 27271 bound_to 1198
  227.0312  362.3568  -93.2172 LP  0  0  0  0  0  0  0  0  0  0  0  0  # atno 27272 bound_to 1198
  232.1549  359.9908  -92.8954 LP  0  0  0  0  0  0  0  0  0  0  0  0  # atno 27273 bound_to 1420
  230.8351  359.2603  -92.0442 LP  0  0  0  0  0  0  0  0  0  0  0  0  # atno 27274 bound_to 1420
  227.4329  349.2906  -89.4400 LP  0  0  0  0  0  0  0  0  0  0  0  0  # atno 27279 bound_to 3955
  224.3637  350.8721  -91.3192 LP  0  0  0  0  0  0  0  0  0  0  0  0  # atno 27280 bound_to 3958
  224.3185  349.5327  -92.4164 LP  0  0  0  0  0  0  0  0  0  0  0  0  # atno 27281 bound_to 3958
  227.1305  348.4037  -91.0701 LP  0  0  0  0  0  0  0  0  0  0  0  0  # atno 27282 bound_to 4029
  226.2907  350.9823  -94.6088 LP  0  0  0  0  0  0  0  0  0  0  0  0  # atno 27283 bound_to 6560
  224.7147  351.0819  -95.0246 LP  0  0  0  0  0  0  0  0  0  0  0  0  # atno 27284 bound_to 6560
  228.7481  354.3519 -102.1876 LP  0  0  0  0  0  0  0  0  0  0  0  0  # atno 27285 bound_to 6788
  230.2297  354.2833 -101.2930 LP  0  0  0  0  0  0  0  0  0  0  0  0  # atno 27286 bound_to 6788
  221.5507  361.7679  -95.0191 LP  0  0  0  0  0  0  0  0  0  0  0  0  # atno 27288 bound_to 23664
  222.2185  360.4153  -95.8702 LP  0  0  0  0  0  0  0  0  0  0  0  0  # atno 27289 bound_to 23664
  232.0239  356.5254  -96.1165 LP  0  0  0  0  0  0  0  0  0  0  0  0  # atno 27290 bound_to 25673
  231.4552  354.6598  -94.9445 LP  0  0  0  0  0  0  0  0  0  0  0  0  # atno 27291 bound_to 25676
  230.3550  354.1346  -96.1748 LP  0  0  0  0  0  0  0  0  0  0  0  0  # atno 27292 bound_to 25676
  221.5443  349.6215  -90.9980 LP  0  0  0  0  0  0  0  0  0  0  0  0  # atno 27294 bound_to 4229
  229.0790  363.3273  -90.8439 LP  0  0  0  0  0  0  0  0  0  0  0  0  # atno 27295 bound_to 1417
  230.6875  361.5753  -92.7123 LP  0  0  0  0  0  0  0  0  0  0  0  0  # atno 27296 bound_to 1499
  229.6910  350.8395  -88.5666 LP  0  0  0  0  0  0  0  0  0  0  0  0  # atno 27297 bound_to 3694
  229.8656  350.9747  -90.2845 LP  0  0  0  0  0  0  0  0  0  0  0  0  # atno 27298 bound_to 3694
  233.9381  360.1887  -97.6470 LP  0  0  0  0  0  0  0  0  0  0  0  0  # atno 27299 bound_to 25595
  233.7294  355.9758  -98.8559 LP  0  0  0  0  0  0  0  0  0  0  0  0  # atno 27300 bound_to 25598
  233.8617  357.6546  -99.2609 LP  0  0  0  0  0  0  0  0  0  0  0  0  # atno 27301 bound_to 25598
  223.9462  364.9004  -93.6125 LP  0  0  0  0  0  0  0  0  0  0  0  0  # atno 27302 bound_to 1195
  226.6154  364.4195  -94.1765 LP  0  0  0  0  0  0  0  0  0  0  0  0  # atno 27303 bound_to 1275
  228.7793  365.2342  -93.1091 LP  0  0  0  0  0  0  0  0  0  0  0  0  # atno 27304 bound_to 1339
  230.7155  363.8539  -89.5623 LP  0  0  0  0  0  0  0  0  0  0  0  0  # atno 27305 bound_to 1342
  229.4197  362.9156  -88.8986 LP  0  0  0  0  0  0  0  0  0  0  0  0  # atno 27306 bound_to 1342
  233.6687  360.7121  -93.0111 LP  0  0  0  0  0  0  0  0  0  0  0  0  # atno 27307 bound_to 1545
  235.7967  358.1604  -94.6192 LP  0  0  0  0  0  0  0  0  0  0  0  0  # atno 27308 bound_to 1551
  234.8284  359.4610  -94.4258 LP  0  0  0  0  0  0  0  0  0  0  0  0  # atno 27309 bound_to 1551
  234.5783  361.5079  -95.9505 LP  0  0  0  0  0  0  0  0  0  0  0  0  # atno 27310 bound_to 25508
  233.8355  359.9655  -95.6874 LP  0  0  0  0  0  0  0  0  0  0  0  0  # atno 27311 bound_to 25508
  235.8718  353.2619  -95.4277 LP  0  0  0  0  0  0  0  0  0  0  0  0  # atno 27312 bound_to 25679
  235.7176  353.7294  -96.9846 LP  0  0  0  0  0  0  0  0  0  0  0  0  # atno 27313 bound_to 25679
  231.8593  354.3081  -99.2525 LP  0  0  0  0  0  0  0  0  0  0  0  0  # atno 27314 bound_to 25737
  232.7858  354.6715 -100.6701 LP  0  0  0  0  0  0  0  0  0  0  0  0  # atno 27315 bound_to 25737
  233.8146  363.1666  -91.2122 LP  0  0  0  0  0  0  0  0  0  0  0  0  # atno 27316 bound_to 1502
  234.0807  361.5366  -90.6904 LP  0  0  0  0  0  0  0  0  0  0  0  0  # atno 27317 bound_to 1502
  233.6873  363.5263  -95.8705 LP  0  0  0  0  0  0  0  0  0  0  0  0  # atno 27318 bound_to 1504
  234.5039  362.7099  -94.7158 LP  0  0  0  0  0  0  0  0  0  0  0  0  # atno 27319 bound_to 1504

> <Gold.Score>
     Fitness  S(hb_ext) S(vdw_ext)  S(hb_int)    S(int)      intcor
     35.13       6.00      22.02       0.00      -1.15      -0.77

> <Gold.Goldscore.Fitness>
35.1324

> <Gold.Goldscore.Internal.Vdw>
-1.4083

> <Gold.Goldscore.Internal.Torsion>
-0.5090

> <Gold.Goldscore.External.Vdw>
22.0226

> <Gold.Goldscore.Internal.HBond>
0.0000

> <Gold.Goldscore.External.HBond>
6.0000

> <Gold.Goldscore.Internal.Correction>
-0.7686

> <Gold.Goldscore.Hbonds>
donor molecule, donor type, donor heavy atom, donor atom, acceptor molecule, acceptor atom, score
      P1  H 23668 23717       L1    11  1.00

> <Gold.Goldscore.Internal.Vdw.Weighted>
-1.4083

> <Gold.Goldscore.Internal.Torsion.Weighted>
-0.5090

> <Gold.Goldscore.External.Vdw.Weighted>
30.2811

> <Gold.Goldscore.Internal.HBond.Weighted>
0.0000

> <Gold.Goldscore.External.HBond.Weighted>
6.0000

> <Gold.Goldscore.Internal.Correction.Weighted>
-0.7686

> <Gold.Rescore>
     Score     S(PLP)   S(hbond)     S(cho)   S(metal)  DE(clash)   DE(tors)     intcor
     37.10     -36.36       1.00       0.00       0.00       0.00       1.13       ----

> <Gold.PLP.Fitness>
37.0976

> <Gold.PLP.PLP>
-36.3583

> <Gold.PLP.part.hbond>
-1.0000

> <Gold.PLP.part.metal>
0.0000

> <Gold.PLP.part.buried>
-6.3889

> <Gold.PLP.part.nonpolar>
-28.9087

> <Gold.PLP.part.repulsive>
0.1178

> <Gold.PLP.ligand.clash>
0.0000

> <Gold.PLP.ligand.torsion>
1.1303

> <Gold.PLP.Chemscore.Hbond>
1.0000

> <Gold.PLP.Chemscore.CHOScore>
0.0000

> <Gold.PLP.Chemscore.Metal>
0.0000

> <Gold.Chemscore.Hbonds>
donor molecule, donor type, donor heavy atom, donor atom, acceptor molecule, acceptor atom, score
      P1  H 23668 23717       L1    11  1.00

> <Gold.PLP.Chemscore.Internal.Correction>
   9.000000E+99

