#       Name:                CT1002167954
#       Creating user name   hitesit
#       Creation time:       Sun Apr 16 02:32:21 2023


#       File generated by GOLD software.
#

@<TRIPOS>MOLECULE
CT1002167954|ligand_prepared|mol2|1|dock6
    29    30     1
SMALL
NO_CHARGES


@<TRIPOS>ATOM
      1 C1         224.6729 354.9807 -94.2829 C.3            1 RES1               0.0000
      2 C2         226.1865 355.2188 -94.4588 C.ar           1 RES1               0.0000
      3 C3         224.4740 354.5389 -92.8360 C.2            1 RES1               0.0000
      4 C4         223.9904 356.2991 -94.6303 C.2            1 RES1               0.0000
      5 C5         224.1002 353.8864 -95.2137 C.3            1 RES1               0.0000
      6 C6         226.9419 355.7690 -93.4276 C.ar           1 RES1               0.0000
      7 C7         226.8409 354.8915 -95.6434 C.ar           1 RES1               0.0000
      8 N8         223.9219 355.4375 -91.9713 N.am           1 RES1               0.0000
      9 O9         224.8324 353.4330 -92.4505 O.2            1 RES1               0.0000
     10 N10        223.3316 356.9642 -93.6297 N.am           1 RES1               0.0000
     11 O11        224.0313 356.7761 -95.7577 O.2            1 RES1               0.0000
     12 C12        222.6889 353.4509 -94.8520 C.3            1 RES1               0.0000
     13 C13        228.3026 355.9816 -93.5741 C.ar           1 RES1               0.0000
     14 C14        228.2018 355.1051 -95.7879 C.ar           1 RES1               0.0000
     15 C15        223.2925 356.6086 -92.3090 C.2            1 RES1               0.0000
     16 C16        228.9335 355.6494 -94.7540 C.ar           1 RES1               0.0000
     17 O17        222.7248 357.2875 -91.4582 O.2            1 RES1               0.0000
     18 H18        224.1003 354.2636 -96.2438 H              1 RES1               0.0000
     19 H19        224.7602 353.0109 -95.1771 H              1 RES1               0.0000
     20 H20        226.4622 356.0390 -92.4926 H              1 RES1               0.0000
     21 H21        226.2852 354.4630 -96.4706 H              1 RES1               0.0000
     22 H22        223.9828 355.2185 -90.9820 H              1 RES1               0.0000
     23 H23        222.8231 357.8021 -93.8939 H              1 RES1               0.0000
     24 H24        222.3353 352.6822 -95.5360 H              1 RES1               0.0000
     25 H25        222.6567 353.0469 -93.8423 H              1 RES1               0.0000
     26 H26        222.0008 354.2922 -94.9027 H              1 RES1               0.0000
     27 H27        228.8737 356.4115 -92.7579 H              1 RES1               0.0000
     28 H28        228.6941 354.8427 -96.7185 H              1 RES1               0.0000
     29 H29        229.9996 355.8157 -94.8684 H              1 RES1               0.0000
@<TRIPOS>BOND
    1    1    2 1     
    2    1    3 1     
    3    1    4 1     
    4    1    5 1     
    5    2    6 ar    
    6    2    7 ar    
    7    3    8 1     
    8    3    9 2     
    9    4   10 1     
   10    4   11 2     
   11    5   12 1     
   12    5   18 1     
   13    5   19 1     
   14    6   13 ar    
   15    6   20 1     
   16    7   14 ar    
   17    7   21 1     
   18    8   15 1     
   19    8   22 1     
   20   10   15 1     
   21   10   23 1     
   22   12   24 1     
   23   12   25 1     
   24   12   26 1     
   25   13   16 ar    
   26   13   27 1     
   27   14   16 ar    
   28   14   28 1     
   29   15   17 2     
   30   16   29 1     
@<TRIPOS>SUBSTRUCTURE
      1 RES1           1
@<TRIPOS>SET
DONOR_HYDROGENS      STATIC     ATOMS    <user>   **** ""
2 22 23
ATOM$RED        STATIC     ATOMS    COLORGROUP SYSTEM
2 22 23
@<TRIPOS>COMMENT
> <Gold.Version>
2022.3.0

> <Gold.Id.Protein>
unknown|7ts3_clean|pdb

> <Gold.Protein.RotatedTorsions>
[ 1457 1425 1424 1423 ] final  116.11 input   59.98 | X-H torsion
[ 3981 3955 3956 3957 ] final -166.24 input  120.40 | X-H torsion
[ 4062 4029 4030 4031 ] final   52.91 input  117.34 | X-H torsion
[ 6581 6560 6559 6557 ] final -138.60 input   59.98 | X-H torsion
[ 25706 25673 25674 25675 ] final -162.04 input   60.60 | X-H torsion
[ 4242 4229 4230 4231 ] final  146.47 input  128.17 | X-H torsion
[ 1447 1417 1418 1419 ] final  -45.02 input   90.13 | X-H torsion
[ 1519 1499 1500 1501 ] final -119.48 input  110.10 | X-H torsion
[ 25633 25595 25596 25597 ] final  111.63 input   68.08 | X-H torsion
[ 1222 1195 1196 1197 ] final -113.36 input  124.45 | X-H torsion
[ 1302 1275 1276 1277 ] final -129.14 input  121.39 | X-H torsion
[ 1365 1339 1340 1341 ] final   39.05 input  109.22 | X-H torsion
[ 1573 1545 1546 1547 ] final -118.89 input   73.55 | X-H torsion
[ 1579 1551 1549 1546 ] final -131.25 input   59.99 | X-H torsion
[ 25712 25679 25677 25674 ] final  111.70 input   60.00 | X-H torsion
[ 1523 1504 1503 1500 ] final  -98.90 input   60.00 | X-H torsion
[ 1641 1603 1604 1605 ] final  -31.42 input   84.06 | X-H torsion
[ 27271 1198 1197 1196 ] final  127.68 input   -0.00 | X-H torsion
[ 27273 1420 1419 1418 ] final  137.78 input    0.00 | X-H torsion
[ 27280 3958 3957 3956 ] final  -98.79 input   -0.00 | X-H torsion
[ 27285 6788 6787 6786 ] final -160.23 input   -0.00 | X-H torsion
[ 27288 23664 23663 23662 ] final  -95.41 input    0.00 | X-H torsion
[ 27291 25676 25675 25674 ] final   68.85 input    0.00 | X-H torsion
[ 27297 3694 3693 3692 ] final -105.67 input    0.00 | X-H torsion
[ 27300 25598 25597 25596 ] final   43.31 input   -0.00 | X-H torsion
[ 27305 1342 1341 1340 ] final  -68.16 input    0.00 | X-H torsion
[ 27310 25508 25507 25506 ] final -118.90 input   -0.00 | X-H torsion
[ 27314 25737 25736 25735 ] final  -19.07 input    0.00 | X-H torsion
[ 27316 1502 1501 1500 ] final  110.43 input    0.00 | X-H torsion

> <Gold.Protein.ActiveResidues>
 LEU321  HIS322  LEU323  LYS324  SER325  THR326  LEU327  ARG348  GLU365  PHE366 
 GLN369  TYR370  SER372  SER373  TYR408  HIS412  ARG415  ASN416  ARG674  PRO678 
 TYR703  ARG704  LEU705  THR706  PRO707 

> <Gold.Protein.RotatedAtoms>
  223.6894  364.7314  -93.7227 H   0  0  0  0  0  0  0  0  0  0  0  0  # atno 1222 bound_to 1195
  226.8015  364.2227  -95.6073 H   0  0  0  0  0  0  0  0  0  0  0  0  # atno 1302 bound_to 1275
  227.6241  364.3628  -92.7994 H   0  0  0  0  0  0  0  0  0  0  0  0  # atno 1365 bound_to 1339
  229.5238  363.4354  -91.4026 H   0  0  0  0  0  0  0  0  0  0  0  0  # atno 1447 bound_to 1417
  226.4242  356.8081  -88.1868 H   0  0  0  0  0  0  0  0  0  0  0  0  # atno 1457 bound_to 1425
  225.6793  358.2889  -88.1675 H   0  0  0  0  0  0  0  0  0  0  0  0  # atno 1458 bound_to 1425
  225.8967  357.4886  -89.6029 H   0  0  0  0  0  0  0  0  0  0  0  0  # atno 1459 bound_to 1425
  230.5713  361.7249  -92.8925 H   0  0  0  0  0  0  0  0  0  0  0  0  # atno 1519 bound_to 1499
  234.7804  363.8865  -94.4321 H   0  0  0  0  0  0  0  0  0  0  0  0  # atno 1523 bound_to 1504
  233.8826  361.4355  -92.6519 H   0  0  0  0  0  0  0  0  0  0  0  0  # atno 1573 bound_to 1545
  234.4164  357.8816  -93.9704 H   0  0  0  0  0  0  0  0  0  0  0  0  # atno 1579 bound_to 1551
  236.8556  361.6108  -93.6040 H   0  0  0  0  0  0  0  0  0  0  0  0  # atno 1641 bound_to 1603
  227.9810  350.8636  -88.9413 H   0  0  0  0  0  0  0  0  0  0  0  0  # atno 3981 bound_to 3955
  226.8705  348.4822  -90.8993 H   0  0  0  0  0  0  0  0  0  0  0  0  # atno 4062 bound_to 4029
  223.0525  350.0905  -91.7341 H   0  0  0  0  0  0  0  0  0  0  0  0  # atno 4242 bound_to 4229
  226.4921  351.5023  -95.4557 H   0  0  0  0  0  0  0  0  0  0  0  0  # atno 6581 bound_to 6560
  232.8079  360.0661  -98.8725 H   0  0  0  0  0  0  0  0  0  0  0  0  # atno 25633 bound_to 25595
  233.4585  357.1659  -96.8704 H   0  0  0  0  0  0  0  0  0  0  0  0  # atno 25706 bound_to 25673
  236.1452  353.7859  -96.3985 H   0  0  0  0  0  0  0  0  0  0  0  0  # atno 25712 bound_to 25679
  228.1500  362.5457  -94.5241 LP  0  0  0  0  0  0  0  0  0  0  0  0  # atno 27271 bound_to 1198
  227.0639  362.4021  -93.1826 LP  0  0  0  0  0  0  0  0  0  0  0  0  # atno 27272 bound_to 1198
  231.7045  359.8545  -93.2783 LP  0  0  0  0  0  0  0  0  0  0  0  0  # atno 27273 bound_to 1420
  231.2855  359.3965  -91.6613 LP  0  0  0  0  0  0  0  0  0  0  0  0  # atno 27274 bound_to 1420
  227.5782  349.2704  -89.5367 LP  0  0  0  0  0  0  0  0  0  0  0  0  # atno 27279 bound_to 3955
  224.0961  349.7411  -91.1771 LP  0  0  0  0  0  0  0  0  0  0  0  0  # atno 27280 bound_to 3958
  224.5861  350.6637  -92.5586 LP  0  0  0  0  0  0  0  0  0  0  0  0  # atno 27281 bound_to 3958
  226.7891  349.5763  -92.2562 LP  0  0  0  0  0  0  0  0  0  0  0  0  # atno 27282 bound_to 4029
  225.4708  350.7875  -94.4103 LP  0  0  0  0  0  0  0  0  0  0  0  0  # atno 27283 bound_to 6560
  224.8914  351.5272  -95.7458 LP  0  0  0  0  0  0  0  0  0  0  0  0  # atno 27284 bound_to 6560
  230.1992  354.3100 -102.2358 LP  0  0  0  0  0  0  0  0  0  0  0  0  # atno 27285 bound_to 6788
  228.7786  354.3252 -101.2449 LP  0  0  0  0  0  0  0  0  0  0  0  0  # atno 27286 bound_to 6788
  221.2885  361.0477  -94.8180 LP  0  0  0  0  0  0  0  0  0  0  0  0  # atno 27288 bound_to 23664
  222.4807  361.1355  -96.0713 LP  0  0  0  0  0  0  0  0  0  0  0  0  # atno 27289 bound_to 23664
  232.0254  356.5255  -96.1136 LP  0  0  0  0  0  0  0  0  0  0  0  0  # atno 27290 bound_to 25673
  230.6597  355.0267  -96.1015 LP  0  0  0  0  0  0  0  0  0  0  0  0  # atno 27291 bound_to 25676
  231.1505  353.7677  -95.0179 LP  0  0  0  0  0  0  0  0  0  0  0  0  # atno 27292 bound_to 25676
  221.5199  349.7279  -90.9801 LP  0  0  0  0  0  0  0  0  0  0  0  0  # atno 27294 bound_to 4229
  227.9347  362.7798  -91.7548 LP  0  0  0  0  0  0  0  0  0  0  0  0  # atno 27295 bound_to 1417
  231.3152  362.9181  -91.8569 LP  0  0  0  0  0  0  0  0  0  0  0  0  # atno 27296 bound_to 1499
  229.5886  350.0932  -89.1982 LP  0  0  0  0  0  0  0  0  0  0  0  0  # atno 27297 bound_to 3694
  229.9680  351.7209  -89.6529 LP  0  0  0  0  0  0  0  0  0  0  0  0  # atno 27298 bound_to 3694
  234.2107  359.8051  -97.8557 LP  0  0  0  0  0  0  0  0  0  0  0  0  # atno 27299 bound_to 25595
  234.2158  357.5724  -99.0622 LP  0  0  0  0  0  0  0  0  0  0  0  0  # atno 27300 bound_to 25598
  233.3754  356.0580  -99.0546 LP  0  0  0  0  0  0  0  0  0  0  0  0  # atno 27301 bound_to 25598
  224.4041  365.4657  -95.1407 LP  0  0  0  0  0  0  0  0  0  0  0  0  # atno 27302 bound_to 1195
  226.4124  365.3418  -94.3200 LP  0  0  0  0  0  0  0  0  0  0  0  0  # atno 27303 bound_to 1275
  228.2883  365.9727  -92.8736 LP  0  0  0  0  0  0  0  0  0  0  0  0  # atno 27304 bound_to 1339
  230.7057  363.8733  -89.5530 LP  0  0  0  0  0  0  0  0  0  0  0  0  # atno 27305 bound_to 1342
  229.4294  362.8961  -88.9079 LP  0  0  0  0  0  0  0  0  0  0  0  0  # atno 27306 bound_to 1342
  234.6090  360.9599  -94.1709 LP  0  0  0  0  0  0  0  0  0  0  0  0  # atno 27307 bound_to 1545
  235.8322  358.2952  -94.6580 LP  0  0  0  0  0  0  0  0  0  0  0  0  # atno 27308 bound_to 1551
  234.6996  359.4347  -94.3654 LP  0  0  0  0  0  0  0  0  0  0  0  0  # atno 27309 bound_to 1551
  234.5145  359.9305  -95.7447 LP  0  0  0  0  0  0  0  0  0  0  0  0  # atno 27310 bound_to 25508
  233.8992  361.5428  -95.8933 LP  0  0  0  0  0  0  0  0  0  0  0  0  # atno 27311 bound_to 25508
  234.7597  353.1136  -96.9245 LP  0  0  0  0  0  0  0  0  0  0  0  0  # atno 27312 bound_to 25679
  235.2585  352.8676  -95.3891 LP  0  0  0  0  0  0  0  0  0  0  0  0  # atno 27313 bound_to 25679
  231.7096  354.0578  -99.5281 LP  0  0  0  0  0  0  0  0  0  0  0  0  # atno 27314 bound_to 25737
  232.9355  354.9218 -100.3945 LP  0  0  0  0  0  0  0  0  0  0  0  0  # atno 27315 bound_to 25737
  233.7674  361.5560  -90.6606 LP  0  0  0  0  0  0  0  0  0  0  0  0  # atno 27316 bound_to 1502
  234.1280  363.1472  -91.2420 LP  0  0  0  0  0  0  0  0  0  0  0  0  # atno 27317 bound_to 1502
  233.8236  364.0969  -95.7314 LP  0  0  0  0  0  0  0  0  0  0  0  0  # atno 27318 bound_to 1504
  234.1457  362.5917  -95.1862 LP  0  0  0  0  0  0  0  0  0  0  0  0  # atno 27319 bound_to 1504

> <Gold.Score>
     Fitness  S(hb_ext) S(vdw_ext)  S(hb_int)    S(int)      intcor
     34.56       6.00      20.99       0.00      -0.30      -0.77

> <Gold.Goldscore.Fitness>
34.5602

> <Gold.Goldscore.Internal.Vdw>
-0.4763

> <Gold.Goldscore.Internal.Torsion>
-0.5900

> <Gold.Goldscore.External.Vdw>
20.9875

> <Gold.Goldscore.Internal.HBond>
0.0000

> <Gold.Goldscore.External.HBond>
6.0000

> <Gold.Goldscore.Internal.Correction>
-0.7686

> <Gold.Goldscore.Hbonds>
donor molecule, donor type, donor heavy atom, donor atom, acceptor molecule, acceptor atom, score
      P1  H 23668 23717       L1    11  1.00

> <Gold.Goldscore.Internal.Vdw.Weighted>
-0.4763

> <Gold.Goldscore.Internal.Torsion.Weighted>
-0.5900

> <Gold.Goldscore.External.Vdw.Weighted>
28.8578

> <Gold.Goldscore.Internal.HBond.Weighted>
0.0000

> <Gold.Goldscore.External.HBond.Weighted>
6.0000

> <Gold.Goldscore.Internal.Correction.Weighted>
-0.7686

> <Gold.Rescore>
     Score     S(PLP)   S(hbond)     S(cho)   S(metal)  DE(clash)   DE(tors)     intcor
     25.11     -24.38       0.99       0.00       0.00       0.00       1.12       ----

> <Gold.PLP.Fitness>
25.1092

> <Gold.PLP.PLP>
-24.3818

> <Gold.PLP.part.hbond>
-2.0000

> <Gold.PLP.part.metal>
0.0000

> <Gold.PLP.part.buried>
-0.3418

> <Gold.PLP.part.nonpolar>
-23.8705

> <Gold.PLP.part.repulsive>
0.1233

> <Gold.PLP.ligand.clash>
0.0000

> <Gold.PLP.ligand.torsion>
1.1232

> <Gold.PLP.Chemscore.Hbond>
0.9913

> <Gold.PLP.Chemscore.CHOScore>
0.0000

> <Gold.PLP.Chemscore.Metal>
0.0000

> <Gold.Chemscore.Hbonds>
donor molecule, donor type, donor heavy atom, donor atom, acceptor molecule, acceptor atom, score
      P1  H 23668 23717       L1    11  1.00

> <Gold.PLP.Chemscore.Internal.Correction>
   9.000000E+99

