#       Name:                GA Fitting Points
#       Creating user name   hitesit
#       Creation time:       Sun Apr 16 02:21:44 2023


#       Fitting Points Used by GA Software.
#

@<TRIPOS>MOLECULE
GA Fitting Points
 11457    0    0
SMALL
NO_CHARGES


@<TRIPOS>ATOM
      1 ****       -10.0000 -20.7500 -16.0000 Du        
      2 ****       -10.0000 -20.7500 -15.7500 Du        
      3 ****       -10.0000 -20.5000 -16.5000 Du        
      4 ****       -10.0000 -20.5000 -16.2500 Du        
      5 ****       -10.0000 -20.5000 -16.0000 Du        
      6 ****       -10.0000 -20.2500 -16.7500 Du        
      7 ****       -10.0000 -20.2500 -16.5000 Du        
      8 ****       -10.0000 -20.2500 -16.2500 Du        
      9 ****       -10.0000 -20.2500 -16.0000 Du        
     10 ****       -10.0000 -20.0000 -16.7500 Du        
     11 ****       -10.0000 -20.0000 -16.5000 Du        
     12 ****       -10.0000 -20.0000 -16.2500 Du        
     13 ****       -10.0000 -20.0000 -16.0000 Du        
     14 ****       -10.0000 -19.7500 -16.5000 Du        
     15 ****       -10.0000 -19.7500 -16.2500 Du        
     16 ****       -10.0000 -19.7500 -16.0000 Du        
     17 ****       -10.0000 -19.5000 -16.5000 Du        
     18 ****       -10.0000 -19.5000 -16.2500 Du        
     19 ****       -10.0000 -19.2500 -16.2500 Du        
     20 ****        -9.7500 -20.7500 -16.2500 Du        
     21 ****        -9.7500 -20.7500 -16.0000 Du        
     22 ****        -9.7500 -20.7500 -15.7500 Du        
     23 ****        -9.7500 -20.5000 -16.5000 Du        
     24 ****        -9.7500 -20.5000 -16.2500 Du        
     25 ****        -9.7500 -20.5000 -16.0000 Du        
     26 ****        -9.7500 -20.5000 -15.7500 Du        
     27 ****        -9.7500 -20.2500 -16.7500 Du        
     28 ****        -9.7500 -20.2500 -16.5000 Du        
     29 ****        -9.7500 -20.2500 -16.2500 Du        
     30 ****        -9.7500 -20.2500 -16.0000 Du        
     31 ****        -9.7500 -20.2500 -15.7500 Du        
     32 ****        -9.7500 -20.0000 -16.7500 Du        
     33 ****        -9.7500 -20.0000 -16.5000 Du        
     34 ****        -9.7500 -20.0000 -16.2500 Du        
     35 ****        -9.7500 -20.0000 -16.0000 Du        
     36 ****        -9.7500 -19.7500 -16.7500 Du        
     37 ****        -9.7500 -19.7500 -16.5000 Du        
     38 ****        -9.7500 -19.7500 -16.2500 Du        
     39 ****        -9.7500 -19.7500 -16.0000 Du        
     40 ****        -9.7500 -19.5000 -16.5000 Du        
     41 ****        -9.7500 -19.5000 -16.2500 Du        
     42 ****        -9.7500 -19.5000 -16.0000 Du        
     43 ****        -9.7500 -19.2500 -16.5000 Du        
     44 ****        -9.7500 -19.2500 -16.2500 Du        
     45 ****        -9.7500 -19.2500 -16.0000 Du        
     46 ****        -9.7500 -19.0000 -16.2500 Du        
     47 ****        -9.7500 -19.0000 -16.0000 Du        
     48 ****        -9.5000 -21.0000 -15.7500 Du        
     49 ****        -9.5000 -21.0000 -15.5000 Du        
     50 ****        -9.5000 -20.7500 -16.2500 Du        
     51 ****        -9.5000 -20.7500 -16.0000 Du        
     52 ****        -9.5000 -20.7500 -15.7500 Du        
     53 ****        -9.5000 -20.7500 -15.5000 Du        
     54 ****        -9.5000 -20.5000 -16.7500 Du        
     55 ****        -9.5000 -20.5000 -16.5000 Du        
     56 ****        -9.5000 -20.5000 -16.2500 Du        
     57 ****        -9.5000 -20.5000 -16.0000 Du        
     58 ****        -9.5000 -20.5000 -15.7500 Du        
     59 ****        -9.5000 -20.2500 -17.0000 Du        
     60 ****        -9.5000 -20.2500 -16.7500 Du        
     61 ****        -9.5000 -20.2500 -16.5000 Du        
     62 ****        -9.5000 -20.2500 -16.2500 Du        
     63 ****        -9.5000 -20.2500 -16.0000 Du        
     64 ****        -9.5000 -20.2500 -15.7500 Du        
     65 ****        -9.5000 -20.0000 -17.0000 Du        
     66 ****        -9.5000 -20.0000 -16.7500 Du        
     67 ****        -9.5000 -20.0000 -16.5000 Du        
     68 ****        -9.5000 -20.0000 -16.2500 Du        
     69 ****        -9.5000 -20.0000 -16.0000 Du        
     70 ****        -9.5000 -20.0000 -15.7500 Du        
     71 ****        -9.5000 -19.7500 -16.7500 Du        
     72 ****        -9.5000 -19.7500 -16.5000 Du        
     73 ****        -9.5000 -19.7500 -16.2500 Du        
     74 ****        -9.5000 -19.7500 -16.0000 Du        
     75 ****        -9.5000 -19.5000 -16.7500 Du        
     76 ****        -9.5000 -19.5000 -16.5000 Du        
     77 ****        -9.5000 -19.5000 -16.2500 Du        
     78 ****        -9.5000 -19.5000 -16.0000 Du        
     79 ****        -9.5000 -19.2500 -16.5000 Du        
     80 ****        -9.5000 -19.2500 -16.2500 Du        
     81 ****        -9.5000 -19.2500 -16.0000 Du        
     82 ****        -9.5000 -19.0000 -16.2500 Du        
     83 ****        -9.5000 -19.0000 -16.0000 Du        
     84 ****        -9.5000 -18.7500 -16.2500 Du        
     85 ****        -9.5000 -18.7500 -16.0000 Du        
     86 ****        -9.5000 -18.5000 -16.2500 Du        
     87 ****        -9.5000 -18.5000 -16.0000 Du        
     88 ****        -9.5000 -18.2500 -16.0000 Du        
     89 ****        -9.5000 -18.0000 -16.0000 Du        
     90 ****        -9.2500 -21.2500 -15.5000 Du        
     91 ****        -9.2500 -21.0000 -16.0000 Du        
     92 ****        -9.2500 -21.0000 -15.7500 Du        
     93 ****        -9.2500 -21.0000 -15.5000 Du        
     94 ****        -9.2500 -20.7500 -16.5000 Du        
     95 ****        -9.2500 -20.7500 -16.2500 Du        
     96 ****        -9.2500 -20.7500 -16.0000 Du        
     97 ****        -9.2500 -20.7500 -15.7500 Du        
     98 ****        -9.2500 -20.7500 -15.5000 Du        
     99 ****        -9.2500 -20.5000 -17.0000 Du        
    100 ****        -9.2500 -20.5000 -16.7500 Du        
    101 ****        -9.2500 -20.5000 -16.5000 Du        
    102 ****        -9.2500 -20.5000 -16.2500 Du        
    103 ****        -9.2500 -20.5000 -16.0000 Du        
    104 ****        -9.2500 -20.5000 -15.7500 Du        
    105 ****        -9.2500 -20.5000 -15.5000 Du        
    106 ****        -9.2500 -20.2500 -17.0000 Du        
    107 ****        -9.2500 -20.2500 -16.7500 Du        
    108 ****        -9.2500 -20.2500 -16.5000 Du        
    109 ****        -9.2500 -20.2500 -16.2500 Du        
    110 ****        -9.2500 -20.2500 -16.0000 Du        
    111 ****        -9.2500 -20.2500 -15.7500 Du        
    112 ****        -9.2500 -20.0000 -17.0000 Du        
    113 ****        -9.2500 -20.0000 -16.7500 Du        
    114 ****        -9.2500 -20.0000 -16.5000 Du        
    115 ****        -9.2500 -20.0000 -16.2500 Du        
    116 ****        -9.2500 -20.0000 -16.0000 Du        
    117 ****        -9.2500 -20.0000 -15.7500 Du        
    118 ****        -9.2500 -19.7500 -17.0000 Du        
    119 ****        -9.2500 -19.7500 -16.7500 Du        
    120 ****        -9.2500 -19.7500 -16.5000 Du        
    121 ****        -9.2500 -19.7500 -16.2500 Du        
    122 ****        -9.2500 -19.7500 -16.0000 Du        
    123 ****        -9.2500 -19.7500 -15.7500 Du        
    124 ****        -9.2500 -19.5000 -16.7500 Du        
    125 ****        -9.2500 -19.5000 -16.5000 Du        
    126 ****        -9.2500 -19.5000 -16.2500 Du        
    127 ****        -9.2500 -19.5000 -16.0000 Du        
    128 ****        -9.2500 -19.5000 -15.7500 Du        
    129 ****        -9.2500 -19.2500 -16.7500 Du        
    130 ****        -9.2500 -19.2500 -16.5000 Du        
    131 ****        -9.2500 -19.2500 -16.2500 Du        
    132 ****        -9.2500 -19.2500 -16.0000 Du        
    133 ****        -9.2500 -19.2500 -15.7500 Du        
    134 ****        -9.2500 -19.0000 -16.5000 Du        
    135 ****        -9.2500 -19.0000 -16.2500 Du        
    136 ****        -9.2500 -19.0000 -16.0000 Du        
    137 ****        -9.2500 -19.0000 -15.7500 Du        
    138 ****        -9.2500 -18.7500 -16.5000 Du        
    139 ****        -9.2500 -18.7500 -16.2500 Du        
    140 ****        -9.2500 -18.7500 -16.0000 Du        
    141 ****        -9.2500 -18.7500 -15.7500 Du        
    142 ****        -9.2500 -18.5000 -16.2500 Du        
    143 ****        -9.2500 -18.5000 -16.0000 Du        
    144 ****        -9.2500 -18.5000 -15.7500 Du        
    145 ****        -9.2500 -18.2500 -16.2500 Du        
    146 ****        -9.2500 -18.2500 -16.0000 Du        
    147 ****        -9.2500 -18.2500 -15.7500 Du        
    148 ****        -9.2500 -18.0000 -16.2500 Du        
    149 ****        -9.2500 -18.0000 -16.0000 Du        
    150 ****        -9.2500 -18.0000 -15.7500 Du        
    151 ****        -9.0000 -21.2500 -15.7500 Du        
    152 ****        -9.0000 -21.2500 -15.5000 Du        
    153 ****        -9.0000 -21.2500 -15.2500 Du        
    154 ****        -9.0000 -21.0000 -16.0000 Du        
    155 ****        -9.0000 -21.0000 -15.7500 Du        
    156 ****        -9.0000 -21.0000 -15.5000 Du        
    157 ****        -9.0000 -21.0000 -15.2500 Du        
    158 ****        -9.0000 -20.7500 -16.7500 Du        
    159 ****        -9.0000 -20.7500 -16.5000 Du        
    160 ****        -9.0000 -20.7500 -16.2500 Du        
    161 ****        -9.0000 -20.7500 -16.0000 Du        
    162 ****        -9.0000 -20.7500 -15.7500 Du        
    163 ****        -9.0000 -20.7500 -15.5000 Du        
    164 ****        -9.0000 -20.7500 -15.2500 Du        
    165 ****        -9.0000 -20.5000 -17.0000 Du        
    166 ****        -9.0000 -20.5000 -16.7500 Du        
    167 ****        -9.0000 -20.5000 -16.5000 Du        
    168 ****        -9.0000 -20.5000 -16.2500 Du        
    169 ****        -9.0000 -20.5000 -16.0000 Du        
    170 ****        -9.0000 -20.5000 -15.7500 Du        
    171 ****        -9.0000 -20.5000 -15.5000 Du        
    172 ****        -9.0000 -20.2500 -17.0000 Du        
    173 ****        -9.0000 -20.2500 -16.7500 Du        
    174 ****        -9.0000 -20.2500 -16.5000 Du        
    175 ****        -9.0000 -20.2500 -16.2500 Du        
    176 ****        -9.0000 -20.2500 -16.0000 Du        
    177 ****        -9.0000 -20.2500 -15.7500 Du        
    178 ****        -9.0000 -20.2500 -15.5000 Du        
    179 ****        -9.0000 -20.0000 -17.0000 Du        
    180 ****        -9.0000 -20.0000 -16.7500 Du        
    181 ****        -9.0000 -20.0000 -16.5000 Du        
    182 ****        -9.0000 -20.0000 -16.2500 Du        
    183 ****        -9.0000 -20.0000 -16.0000 Du        
    184 ****        -9.0000 -20.0000 -15.7500 Du        
    185 ****        -9.0000 -20.0000 -15.5000 Du        
    186 ****        -9.0000 -19.7500 -17.0000 Du        
    187 ****        -9.0000 -19.7500 -16.7500 Du        
    188 ****        -9.0000 -19.7500 -16.5000 Du        
    189 ****        -9.0000 -19.7500 -16.2500 Du        
    190 ****        -9.0000 -19.7500 -16.0000 Du        
    191 ****        -9.0000 -19.7500 -15.7500 Du        
    192 ****        -9.0000 -19.7500 -15.5000 Du        
    193 ****        -9.0000 -19.5000 -17.0000 Du        
    194 ****        -9.0000 -19.5000 -16.7500 Du        
    195 ****        -9.0000 -19.5000 -16.5000 Du        
    196 ****        -9.0000 -19.5000 -16.2500 Du        
    197 ****        -9.0000 -19.5000 -16.0000 Du        
    198 ****        -9.0000 -19.5000 -15.7500 Du        
    199 ****        -9.0000 -19.2500 -16.7500 Du        
    200 ****        -9.0000 -19.2500 -16.5000 Du        
    201 ****        -9.0000 -19.2500 -16.2500 Du        
    202 ****        -9.0000 -19.2500 -16.0000 Du        
    203 ****        -9.0000 -19.2500 -15.7500 Du        
    204 ****        -9.0000 -19.0000 -16.7500 Du        
    205 ****        -9.0000 -19.0000 -16.5000 Du        
    206 ****        -9.0000 -19.0000 -16.2500 Du        
    207 ****        -9.0000 -19.0000 -16.0000 Du        
    208 ****        -9.0000 -19.0000 -15.7500 Du        
    209 ****        -9.0000 -18.7500 -16.5000 Du        
    210 ****        -9.0000 -18.7500 -16.2500 Du        
    211 ****        -9.0000 -18.7500 -16.0000 Du        
    212 ****        -9.0000 -18.7500 -15.7500 Du        
    213 ****        -9.0000 -18.5000 -16.5000 Du        
    214 ****        -9.0000 -18.5000 -16.2500 Du        
    215 ****        -9.0000 -18.5000 -16.0000 Du        
    216 ****        -9.0000 -18.5000 -15.7500 Du        
    217 ****        -9.0000 -18.2500 -16.5000 Du        
    218 ****        -9.0000 -18.2500 -16.2500 Du        
    219 ****        -9.0000 -18.2500 -16.0000 Du        
    220 ****        -9.0000 -18.2500 -15.7500 Du        
    221 ****        -9.0000 -18.0000 -16.5000 Du        
    222 ****        -9.0000 -18.0000 -16.2500 Du        
    223 ****        -9.0000 -18.0000 -16.0000 Du        
    224 ****        -9.0000 -18.0000 -15.7500 Du        
    225 ****        -9.0000 -17.7500 -16.5000 Du        
    226 ****        -9.0000 -17.7500 -16.2500 Du        
    227 ****        -9.0000 -17.7500 -16.0000 Du        
    228 ****        -9.0000 -17.7500 -15.7500 Du        
    229 ****        -9.0000 -17.5000 -16.5000 Du        
    230 ****        -9.0000 -17.5000 -16.2500 Du        
    231 ****        -9.0000 -17.5000 -16.0000 Du        
    232 ****        -9.0000 -17.5000 -15.7500 Du        
    233 ****        -9.0000 -17.2500 -16.5000 Du        
    234 ****        -9.0000 -17.2500 -16.2500 Du        
    235 ****        -9.0000 -17.2500 -16.0000 Du        
    236 ****        -9.0000 -17.2500 -15.7500 Du        
    237 ****        -9.0000 -17.2500 -15.5000 Du        
    238 ****        -9.0000 -17.0000 -16.5000 Du        
    239 ****        -9.0000 -17.0000 -16.2500 Du        
    240 ****        -9.0000 -17.0000 -16.0000 Du        
    241 ****        -9.0000 -17.0000 -15.7500 Du        
    242 ****        -9.0000 -17.0000 -15.5000 Du        
    243 ****        -8.7500 -21.5000 -15.5000 Du        
    244 ****        -8.7500 -21.2500 -16.0000 Du        
    245 ****        -8.7500 -21.2500 -15.7500 Du        
    246 ****        -8.7500 -21.2500 -15.5000 Du        
    247 ****        -8.7500 -21.2500 -15.2500 Du        
    248 ****        -8.7500 -21.0000 -16.2500 Du        
    249 ****        -8.7500 -21.0000 -16.0000 Du        
    250 ****        -8.7500 -21.0000 -15.7500 Du        
    251 ****        -8.7500 -21.0000 -15.5000 Du        
    252 ****        -8.7500 -21.0000 -15.2500 Du        
    253 ****        -8.7500 -20.7500 -16.7500 Du        
    254 ****        -8.7500 -20.7500 -16.5000 Du        
    255 ****        -8.7500 -20.7500 -16.2500 Du        
    256 ****        -8.7500 -20.7500 -16.0000 Du        
    257 ****        -8.7500 -20.7500 -15.7500 Du        
    258 ****        -8.7500 -20.7500 -15.5000 Du        
    259 ****        -8.7500 -20.7500 -15.2500 Du        
    260 ****        -8.7500 -20.5000 -17.0000 Du        
    261 ****        -8.7500 -20.5000 -16.7500 Du        
    262 ****        -8.7500 -20.5000 -16.5000 Du        
    263 ****        -8.7500 -20.5000 -16.2500 Du        
    264 ****        -8.7500 -20.5000 -16.0000 Du        
    265 ****        -8.7500 -20.5000 -15.7500 Du        
    266 ****        -8.7500 -20.5000 -15.5000 Du        
    267 ****        -8.7500 -20.5000 -15.2500 Du        
    268 ****        -8.7500 -20.2500 -17.0000 Du        
    269 ****        -8.7500 -20.2500 -16.7500 Du        
    270 ****        -8.7500 -20.2500 -16.5000 Du        
    271 ****        -8.7500 -20.2500 -16.2500 Du        
    272 ****        -8.7500 -20.2500 -16.0000 Du        
    273 ****        -8.7500 -20.2500 -15.7500 Du        
    274 ****        -8.7500 -20.2500 -15.5000 Du        
    275 ****        -8.7500 -20.2500 -15.2500 Du        
    276 ****        -8.7500 -20.0000 -17.0000 Du        
    277 ****        -8.7500 -20.0000 -16.7500 Du        
    278 ****        -8.7500 -20.0000 -16.5000 Du        
    279 ****        -8.7500 -20.0000 -16.2500 Du        
    280 ****        -8.7500 -20.0000 -16.0000 Du        
    281 ****        -8.7500 -20.0000 -15.7500 Du        
    282 ****        -8.7500 -20.0000 -15.5000 Du        
    283 ****        -8.7500 -19.7500 -17.0000 Du        
    284 ****        -8.7500 -19.7500 -16.7500 Du        
    285 ****        -8.7500 -19.7500 -16.5000 Du        
    286 ****        -8.7500 -19.7500 -16.2500 Du        
    287 ****        -8.7500 -19.7500 -16.0000 Du        
    288 ****        -8.7500 -19.7500 -15.7500 Du        
    289 ****        -8.7500 -19.7500 -15.5000 Du        
    290 ****        -8.7500 -19.5000 -17.0000 Du        
    291 ****        -8.7500 -19.5000 -16.7500 Du        
    292 ****        -8.7500 -19.5000 -16.5000 Du        
    293 ****        -8.7500 -19.5000 -16.2500 Du        
    294 ****        -8.7500 -19.5000 -16.0000 Du        
    295 ****        -8.7500 -19.5000 -15.7500 Du        
    296 ****        -8.7500 -19.5000 -15.5000 Du        
    297 ****        -8.7500 -19.2500 -17.0000 Du        
    298 ****        -8.7500 -19.2500 -16.7500 Du        
    299 ****        -8.7500 -19.2500 -16.5000 Du        
    300 ****        -8.7500 -19.2500 -16.2500 Du        
    301 ****        -8.7500 -19.2500 -16.0000 Du        
    302 ****        -8.7500 -19.2500 -15.7500 Du        
    303 ****        -8.7500 -19.2500 -15.5000 Du        
    304 ****        -8.7500 -19.0000 -16.7500 Du        
    305 ****        -8.7500 -19.0000 -16.5000 Du        
    306 ****        -8.7500 -19.0000 -16.2500 Du        
    307 ****        -8.7500 -19.0000 -16.0000 Du        
    308 ****        -8.7500 -19.0000 -15.7500 Du        
    309 ****        -8.7500 -19.0000 -15.5000 Du        
    310 ****        -8.7500 -18.7500 -16.7500 Du        
    311 ****        -8.7500 -18.7500 -16.5000 Du        
    312 ****        -8.7500 -18.7500 -16.2500 Du        
    313 ****        -8.7500 -18.7500 -16.0000 Du        
    314 ****        -8.7500 -18.7500 -15.7500 Du        
    315 ****        -8.7500 -18.7500 -15.5000 Du        
    316 ****        -8.7500 -18.5000 -16.7500 Du        
    317 ****        -8.7500 -18.5000 -16.5000 Du        
    318 ****        -8.7500 -18.5000 -16.2500 Du        
    319 ****        -8.7500 -18.5000 -16.0000 Du        
    320 ****        -8.7500 -18.5000 -15.7500 Du        
    321 ****        -8.7500 -18.5000 -15.5000 Du        
    322 ****        -8.7500 -18.2500 -16.5000 Du        
    323 ****        -8.7500 -18.2500 -16.2500 Du        
    324 ****        -8.7500 -18.2500 -16.0000 Du        
    325 ****        -8.7500 -18.2500 -15.7500 Du        
    326 ****        -8.7500 -18.2500 -15.5000 Du        
    327 ****        -8.7500 -18.0000 -16.5000 Du        
    328 ****        -8.7500 -18.0000 -16.2500 Du        
    329 ****        -8.7500 -18.0000 -16.0000 Du        
    330 ****        -8.7500 -18.0000 -15.7500 Du        
    331 ****        -8.7500 -18.0000 -15.5000 Du        
    332 ****        -8.7500 -17.7500 -16.5000 Du        
    333 ****        -8.7500 -17.7500 -16.2500 Du        
    334 ****        -8.7500 -17.7500 -16.0000 Du        
    335 ****        -8.7500 -17.7500 -15.7500 Du        
    336 ****        -8.7500 -17.7500 -15.5000 Du        
    337 ****        -8.7500 -17.5000 -16.5000 Du        
    338 ****        -8.7500 -17.5000 -16.2500 Du        
    339 ****        -8.7500 -17.5000 -16.0000 Du        
    340 ****        -8.7500 -17.5000 -15.7500 Du        
    341 ****        -8.7500 -17.5000 -15.5000 Du        
    342 ****        -8.7500 -17.2500 -16.7500 Du        
    343 ****        -8.7500 -17.2500 -16.5000 Du        
    344 ****        -8.7500 -17.2500 -16.2500 Du        
    345 ****        -8.7500 -17.2500 -16.0000 Du        
    346 ****        -8.7500 -17.2500 -15.7500 Du        
    347 ****        -8.7500 -17.2500 -15.5000 Du        
    348 ****        -8.7500 -17.0000 -16.7500 Du        
    349 ****        -8.7500 -17.0000 -16.5000 Du        
    350 ****        -8.7500 -17.0000 -16.2500 Du        
    351 ****        -8.7500 -17.0000 -16.0000 Du        
    352 ****        -8.7500 -17.0000 -15.7500 Du        
    353 ****        -8.7500 -17.0000 -15.5000 Du        
    354 ****        -8.5000 -27.7500 -14.7500 Du        
    355 ****        -8.5000 -27.7500 -14.5000 Du        
    356 ****        -8.5000 -27.7500 -14.2500 Du        
    357 ****        -8.5000 -27.7500 -14.0000 Du        
    358 ****        -8.5000 -27.7500 -13.7500 Du        
    359 ****        -8.5000 -27.5000 -15.0000 Du        
    360 ****        -8.5000 -27.5000 -14.7500 Du        
    361 ****        -8.5000 -27.5000 -14.5000 Du        
    362 ****        -8.5000 -27.5000 -14.2500 Du        
    363 ****        -8.5000 -27.5000 -14.0000 Du        
    364 ****        -8.5000 -27.5000 -13.7500 Du        
    365 ****        -8.5000 -27.2500 -15.0000 Du        
    366 ****        -8.5000 -27.2500 -14.7500 Du        
    367 ****        -8.5000 -27.2500 -14.5000 Du        
    368 ****        -8.5000 -27.2500 -14.2500 Du        
    369 ****        -8.5000 -27.2500 -14.0000 Du        
    370 ****        -8.5000 -21.5000 -15.7500 Du        
    371 ****        -8.5000 -21.5000 -15.5000 Du        
    372 ****        -8.5000 -21.5000 -15.2500 Du        
    373 ****        -8.5000 -21.2500 -16.2500 Du        
    374 ****        -8.5000 -21.2500 -16.0000 Du        
    375 ****        -8.5000 -21.2500 -15.7500 Du        
    376 ****        -8.5000 -21.2500 -15.5000 Du        
    377 ****        -8.5000 -21.2500 -15.2500 Du        
    378 ****        -8.5000 -21.0000 -16.5000 Du        
    379 ****        -8.5000 -21.0000 -16.2500 Du        
    380 ****        -8.5000 -21.0000 -16.0000 Du        
    381 ****        -8.5000 -21.0000 -15.7500 Du        
    382 ****        -8.5000 -21.0000 -15.5000 Du        
    383 ****        -8.5000 -21.0000 -15.2500 Du        
    384 ****        -8.5000 -20.7500 -16.7500 Du        
    385 ****        -8.5000 -20.7500 -16.5000 Du        
    386 ****        -8.5000 -20.7500 -16.2500 Du        
    387 ****        -8.5000 -20.7500 -16.0000 Du        
    388 ****        -8.5000 -20.7500 -15.7500 Du        
    389 ****        -8.5000 -20.7500 -15.5000 Du        
    390 ****        -8.5000 -20.7500 -15.2500 Du        
    391 ****        -8.5000 -20.5000 -17.0000 Du        
    392 ****        -8.5000 -20.5000 -16.7500 Du        
    393 ****        -8.5000 -20.5000 -16.5000 Du        
    394 ****        -8.5000 -20.5000 -16.2500 Du        
    395 ****        -8.5000 -20.5000 -16.0000 Du        
    396 ****        -8.5000 -20.5000 -15.7500 Du        
    397 ****        -8.5000 -20.5000 -15.5000 Du        
    398 ****        -8.5000 -20.5000 -15.2500 Du        
    399 ****        -8.5000 -20.2500 -17.0000 Du        
    400 ****        -8.5000 -20.2500 -16.7500 Du        
    401 ****        -8.5000 -20.2500 -16.5000 Du        
    402 ****        -8.5000 -20.2500 -16.2500 Du        
    403 ****        -8.5000 -20.2500 -16.0000 Du        
    404 ****        -8.5000 -20.2500 -15.7500 Du        
    405 ****        -8.5000 -20.2500 -15.5000 Du        
    406 ****        -8.5000 -20.2500 -15.2500 Du        
    407 ****        -8.5000 -20.0000 -17.0000 Du        
    408 ****        -8.5000 -20.0000 -16.7500 Du        
    409 ****        -8.5000 -20.0000 -16.5000 Du        
    410 ****        -8.5000 -20.0000 -16.2500 Du        
    411 ****        -8.5000 -20.0000 -16.0000 Du        
    412 ****        -8.5000 -20.0000 -15.7500 Du        
    413 ****        -8.5000 -20.0000 -15.5000 Du        
    414 ****        -8.5000 -20.0000 -15.2500 Du        
    415 ****        -8.5000 -19.7500 -17.0000 Du        
    416 ****        -8.5000 -19.7500 -16.7500 Du        
    417 ****        -8.5000 -19.7500 -16.5000 Du        
    418 ****        -8.5000 -19.7500 -16.2500 Du        
    419 ****        -8.5000 -19.7500 -16.0000 Du        
    420 ****        -8.5000 -19.7500 -15.7500 Du        
    421 ****        -8.5000 -19.7500 -15.5000 Du        
    422 ****        -8.5000 -19.7500 -15.2500 Du        
    423 ****        -8.5000 -19.5000 -16.7500 Du        
    424 ****        -8.5000 -19.5000 -16.5000 Du        
    425 ****        -8.5000 -19.5000 -16.2500 Du        
    426 ****        -8.5000 -19.5000 -16.0000 Du        
    427 ****        -8.5000 -19.5000 -15.7500 Du        
    428 ****        -8.5000 -19.5000 -15.5000 Du        
    429 ****        -8.5000 -19.2500 -16.7500 Du        
    430 ****        -8.5000 -19.2500 -16.5000 Du        
    431 ****        -8.5000 -19.2500 -16.2500 Du        
    432 ****        -8.5000 -19.2500 -16.0000 Du        
    433 ****        -8.5000 -19.2500 -15.7500 Du        
    434 ****        -8.5000 -19.2500 -15.5000 Du        
    435 ****        -8.5000 -19.0000 -16.7500 Du        
    436 ****        -8.5000 -19.0000 -16.5000 Du        
    437 ****        -8.5000 -19.0000 -16.2500 Du        
    438 ****        -8.5000 -19.0000 -16.0000 Du        
    439 ****        -8.5000 -19.0000 -15.7500 Du        
    440 ****        -8.5000 -19.0000 -15.5000 Du        
    441 ****        -8.5000 -18.7500 -16.7500 Du        
    442 ****        -8.5000 -18.7500 -16.5000 Du        
    443 ****        -8.5000 -18.7500 -16.2500 Du        
    444 ****        -8.5000 -18.7500 -16.0000 Du        
    445 ****        -8.5000 -18.7500 -15.7500 Du        
    446 ****        -8.5000 -18.7500 -15.5000 Du        
    447 ****        -8.5000 -18.5000 -16.7500 Du        
    448 ****        -8.5000 -18.5000 -16.5000 Du        
    449 ****        -8.5000 -18.5000 -16.2500 Du        
    450 ****        -8.5000 -18.5000 -16.0000 Du        
    451 ****        -8.5000 -18.5000 -15.7500 Du        
    452 ****        -8.5000 -18.5000 -15.5000 Du        
    453 ****        -8.5000 -18.2500 -16.7500 Du        
    454 ****        -8.5000 -18.2500 -16.5000 Du        
    455 ****        -8.5000 -18.2500 -16.2500 Du        
    456 ****        -8.5000 -18.2500 -16.0000 Du        
    457 ****        -8.5000 -18.2500 -15.7500 Du        
    458 ****        -8.5000 -18.2500 -15.5000 Du        
    459 ****        -8.5000 -18.0000 -16.7500 Du        
    460 ****        -8.5000 -18.0000 -16.5000 Du        
    461 ****        -8.5000 -18.0000 -16.2500 Du        
    462 ****        -8.5000 -18.0000 -16.0000 Du        
    463 ****        -8.5000 -18.0000 -15.7500 Du        
    464 ****        -8.5000 -18.0000 -15.5000 Du        
    465 ****        -8.5000 -17.7500 -16.7500 Du        
    466 ****        -8.5000 -17.7500 -16.5000 Du        
    467 ****        -8.5000 -17.7500 -16.2500 Du        
    468 ****        -8.5000 -17.7500 -16.0000 Du        
    469 ****        -8.5000 -17.7500 -15.7500 Du        
    470 ****        -8.5000 -17.7500 -15.5000 Du        
    471 ****        -8.5000 -17.5000 -16.7500 Du        
    472 ****        -8.5000 -17.5000 -16.5000 Du        
    473 ****        -8.5000 -17.5000 -16.2500 Du        
    474 ****        -8.5000 -17.5000 -16.0000 Du        
    475 ****        -8.5000 -17.5000 -15.7500 Du        
    476 ****        -8.5000 -17.5000 -15.5000 Du        
    477 ****        -8.5000 -17.2500 -17.0000 Du        
    478 ****        -8.5000 -17.2500 -16.7500 Du        
    479 ****        -8.5000 -17.2500 -16.5000 Du        
    480 ****        -8.5000 -17.2500 -16.2500 Du        
    481 ****        -8.5000 -17.2500 -16.0000 Du        
    482 ****        -8.5000 -17.2500 -15.7500 Du        
    483 ****        -8.5000 -17.2500 -15.5000 Du        
    484 ****        -8.5000 -17.0000 -17.0000 Du        
    485 ****        -8.5000 -17.0000 -16.7500 Du        
    486 ****        -8.5000 -17.0000 -16.5000 Du        
    487 ****        -8.5000 -17.0000 -16.2500 Du        
    488 ****        -8.5000 -17.0000 -16.0000 Du        
    489 ****        -8.5000 -17.0000 -15.7500 Du        
    490 ****        -8.5000 -17.0000 -15.5000 Du        
    491 ****        -8.5000 -16.7500 -17.0000 Du        
    492 ****        -8.5000 -16.7500 -16.7500 Du        
    493 ****        -8.5000 -16.7500 -16.5000 Du        
    494 ****        -8.5000 -16.7500 -16.2500 Du        
    495 ****        -8.5000 -16.7500 -16.0000 Du        
    496 ****        -8.5000 -16.7500 -15.7500 Du        
    497 ****        -8.5000 -16.5000 -17.0000 Du        
    498 ****        -8.5000 -16.5000 -16.7500 Du        
    499 ****        -8.5000 -16.5000 -16.5000 Du        
    500 ****        -8.5000 -16.5000 -16.2500 Du        
    501 ****        -8.5000 -16.5000 -16.0000 Du        
    502 ****        -8.5000 -16.5000 -15.7500 Du        
    503 ****        -8.5000 -16.2500 -17.0000 Du        
    504 ****        -8.5000 -16.2500 -16.7500 Du        
    505 ****        -8.5000 -16.2500 -16.5000 Du        
    506 ****        -8.5000 -16.2500 -16.2500 Du        
    507 ****        -8.5000 -16.2500 -16.0000 Du        
    508 ****        -8.5000 -16.2500 -15.7500 Du        
    509 ****        -8.5000 -16.0000 -17.0000 Du        
    510 ****        -8.5000 -16.0000 -16.7500 Du        
    511 ****        -8.5000 -16.0000 -16.5000 Du        
    512 ****        -8.5000 -16.0000 -16.2500 Du        
    513 ****        -8.5000 -16.0000 -16.0000 Du        
    514 ****        -8.5000 -16.0000 -15.7500 Du        
    515 ****        -8.5000 -15.7500 -17.0000 Du        
    516 ****        -8.5000 -15.7500 -16.7500 Du        
    517 ****        -8.5000 -15.7500 -16.5000 Du        
    518 ****        -8.5000 -15.7500 -16.2500 Du        
    519 ****        -8.5000 -15.7500 -16.0000 Du        
    520 ****        -8.2500 -28.0000 -15.0000 Du        
    521 ****        -8.2500 -28.0000 -14.7500 Du        
    522 ****        -8.2500 -28.0000 -14.5000 Du        
    523 ****        -8.2500 -28.0000 -14.2500 Du        
    524 ****        -8.2500 -28.0000 -14.0000 Du        
    525 ****        -8.2500 -28.0000 -13.7500 Du        
    526 ****        -8.2500 -27.7500 -15.2500 Du        
    527 ****        -8.2500 -27.7500 -15.0000 Du        
    528 ****        -8.2500 -27.7500 -14.7500 Du        
    529 ****        -8.2500 -27.7500 -14.5000 Du        
    530 ****        -8.2500 -27.7500 -14.2500 Du        
    531 ****        -8.2500 -27.7500 -14.0000 Du        
    532 ****        -8.2500 -27.7500 -13.7500 Du        
    533 ****        -8.2500 -27.5000 -15.2500 Du        
    534 ****        -8.2500 -27.5000 -15.0000 Du        
    535 ****        -8.2500 -27.5000 -14.7500 Du        
    536 ****        -8.2500 -27.5000 -14.5000 Du        
    537 ****        -8.2500 -27.5000 -14.2500 Du        
    538 ****        -8.2500 -27.5000 -14.0000 Du        
    539 ****        -8.2500 -27.5000 -13.7500 Du        
    540 ****        -8.2500 -27.2500 -15.2500 Du        
    541 ****        -8.2500 -27.2500 -15.0000 Du        
    542 ****        -8.2500 -27.2500 -14.7500 Du        
    543 ****        -8.2500 -27.2500 -14.5000 Du        
    544 ****        -8.2500 -27.2500 -14.2500 Du        
    545 ****        -8.2500 -27.2500 -14.0000 Du        
    546 ****        -8.2500 -27.2500 -13.7500 Du        
    547 ****        -8.2500 -27.0000 -15.0000 Du        
    548 ****        -8.2500 -27.0000 -14.7500 Du        
    549 ****        -8.2500 -27.0000 -14.5000 Du        
    550 ****        -8.2500 -21.7500 -15.7500 Du        
    551 ****        -8.2500 -21.7500 -15.5000 Du        
    552 ****        -8.2500 -21.5000 -16.0000 Du        
    553 ****        -8.2500 -21.5000 -15.7500 Du        
    554 ****        -8.2500 -21.5000 -15.5000 Du        
    555 ****        -8.2500 -21.5000 -15.2500 Du        
    556 ****        -8.2500 -21.2500 -16.5000 Du        
    557 ****        -8.2500 -21.2500 -16.2500 Du        
    558 ****        -8.2500 -21.2500 -16.0000 Du        
    559 ****        -8.2500 -21.2500 -15.7500 Du        
    560 ****        -8.2500 -21.2500 -15.5000 Du        
    561 ****        -8.2500 -21.2500 -15.2500 Du        
    562 ****        -8.2500 -21.0000 -16.7500 Du        
    563 ****        -8.2500 -21.0000 -16.5000 Du        
    564 ****        -8.2500 -21.0000 -16.2500 Du        
    565 ****        -8.2500 -21.0000 -16.0000 Du        
    566 ****        -8.2500 -21.0000 -15.7500 Du        
    567 ****        -8.2500 -21.0000 -15.5000 Du        
    568 ****        -8.2500 -21.0000 -15.2500 Du        
    569 ****        -8.2500 -21.0000 -15.0000 Du        
    570 ****        -8.2500 -20.7500 -16.7500 Du        
    571 ****        -8.2500 -20.7500 -16.5000 Du        
    572 ****        -8.2500 -20.7500 -16.2500 Du        
    573 ****        -8.2500 -20.7500 -16.0000 Du        
    574 ****        -8.2500 -20.7500 -15.7500 Du        
    575 ****        -8.2500 -20.7500 -15.5000 Du        
    576 ****        -8.2500 -20.7500 -15.2500 Du        
    577 ****        -8.2500 -20.7500 -15.0000 Du        
    578 ****        -8.2500 -20.5000 -16.7500 Du        
    579 ****        -8.2500 -20.5000 -16.5000 Du        
    580 ****        -8.2500 -20.5000 -16.2500 Du        
    581 ****        -8.2500 -20.5000 -16.0000 Du        
    582 ****        -8.2500 -20.5000 -15.7500 Du        
    583 ****        -8.2500 -20.5000 -15.5000 Du        
    584 ****        -8.2500 -20.5000 -15.2500 Du        
    585 ****        -8.2500 -20.2500 -16.7500 Du        
    586 ****        -8.2500 -20.2500 -16.5000 Du        
    587 ****        -8.2500 -20.2500 -16.2500 Du        
    588 ****        -8.2500 -20.2500 -16.0000 Du        
    589 ****        -8.2500 -20.2500 -15.7500 Du        
    590 ****        -8.2500 -20.2500 -15.5000 Du        
    591 ****        -8.2500 -20.2500 -15.2500 Du        
    592 ****        -8.2500 -20.0000 -16.7500 Du        
    593 ****        -8.2500 -20.0000 -16.5000 Du        
    594 ****        -8.2500 -20.0000 -16.2500 Du        
    595 ****        -8.2500 -20.0000 -16.0000 Du        
    596 ****        -8.2500 -20.0000 -15.7500 Du        
    597 ****        -8.2500 -20.0000 -15.5000 Du        
    598 ****        -8.2500 -20.0000 -15.2500 Du        
    599 ****        -8.2500 -19.7500 -16.7500 Du        
    600 ****        -8.2500 -19.7500 -16.5000 Du        
    601 ****        -8.2500 -19.7500 -16.2500 Du        
    602 ****        -8.2500 -19.7500 -16.0000 Du        
    603 ****        -8.2500 -19.7500 -15.7500 Du        
    604 ****        -8.2500 -19.7500 -15.5000 Du        
    605 ****        -8.2500 -19.7500 -15.2500 Du        
    606 ****        -8.2500 -19.5000 -16.7500 Du        
    607 ****        -8.2500 -19.5000 -16.5000 Du        
    608 ****        -8.2500 -19.5000 -16.2500 Du        
    609 ****        -8.2500 -19.5000 -16.0000 Du        
    610 ****        -8.2500 -19.5000 -15.7500 Du        
    611 ****        -8.2500 -19.5000 -15.5000 Du        
    612 ****        -8.2500 -19.5000 -15.2500 Du        
    613 ****        -8.2500 -19.2500 -16.7500 Du        
    614 ****        -8.2500 -19.2500 -16.5000 Du        
    615 ****        -8.2500 -19.2500 -16.2500 Du        
    616 ****        -8.2500 -19.2500 -16.0000 Du        
    617 ****        -8.2500 -19.2500 -15.7500 Du        
    618 ****        -8.2500 -19.2500 -15.5000 Du        
    619 ****        -8.2500 -19.2500 -15.2500 Du        
    620 ****        -8.2500 -19.0000 -17.0000 Du        
    621 ****        -8.2500 -19.0000 -16.7500 Du        
    622 ****        -8.2500 -19.0000 -16.5000 Du        
    623 ****        -8.2500 -19.0000 -16.2500 Du        
    624 ****        -8.2500 -19.0000 -16.0000 Du        
    625 ****        -8.2500 -19.0000 -15.7500 Du        
    626 ****        -8.2500 -19.0000 -15.5000 Du        
    627 ****        -8.2500 -19.0000 -15.2500 Du        
    628 ****        -8.2500 -18.7500 -17.0000 Du        
    629 ****        -8.2500 -18.7500 -16.7500 Du        
    630 ****        -8.2500 -18.7500 -16.5000 Du        
    631 ****        -8.2500 -18.7500 -16.2500 Du        
    632 ****        -8.2500 -18.7500 -16.0000 Du        
    633 ****        -8.2500 -18.7500 -15.7500 Du        
    634 ****        -8.2500 -18.7500 -15.5000 Du        
    635 ****        -8.2500 -18.7500 -15.2500 Du        
    636 ****        -8.2500 -18.5000 -17.0000 Du        
    637 ****        -8.2500 -18.5000 -16.7500 Du        
    638 ****        -8.2500 -18.5000 -16.5000 Du        
    639 ****        -8.2500 -18.5000 -16.2500 Du        
    640 ****        -8.2500 -18.5000 -16.0000 Du        
    641 ****        -8.2500 -18.5000 -15.7500 Du        
    642 ****        -8.2500 -18.5000 -15.5000 Du        
    643 ****        -8.2500 -18.5000 -15.2500 Du        
    644 ****        -8.2500 -18.2500 -17.0000 Du        
    645 ****        -8.2500 -18.2500 -16.7500 Du        
    646 ****        -8.2500 -18.2500 -16.5000 Du        
    647 ****        -8.2500 -18.2500 -16.2500 Du        
    648 ****        -8.2500 -18.2500 -16.0000 Du        
    649 ****        -8.2500 -18.2500 -15.7500 Du        
    650 ****        -8.2500 -18.2500 -15.5000 Du        
    651 ****        -8.2500 -18.2500 -15.2500 Du        
    652 ****        -8.2500 -18.0000 -17.0000 Du        
    653 ****        -8.2500 -18.0000 -16.7500 Du        
    654 ****        -8.2500 -18.0000 -16.5000 Du        
    655 ****        -8.2500 -18.0000 -16.2500 Du        
    656 ****        -8.2500 -18.0000 -16.0000 Du        
    657 ****        -8.2500 -18.0000 -15.7500 Du        
    658 ****        -8.2500 -18.0000 -15.5000 Du        
    659 ****        -8.2500 -18.0000 -15.2500 Du        
    660 ****        -8.2500 -17.7500 -17.0000 Du        
    661 ****        -8.2500 -17.7500 -16.7500 Du        
    662 ****        -8.2500 -17.7500 -16.5000 Du        
    663 ****        -8.2500 -17.7500 -16.2500 Du        
    664 ****        -8.2500 -17.7500 -16.0000 Du        
    665 ****        -8.2500 -17.7500 -15.7500 Du        
    666 ****        -8.2500 -17.7500 -15.5000 Du        
    667 ****        -8.2500 -17.5000 -17.0000 Du        
    668 ****        -8.2500 -17.5000 -16.7500 Du        
    669 ****        -8.2500 -17.5000 -16.5000 Du        
    670 ****        -8.2500 -17.5000 -16.2500 Du        
    671 ****        -8.2500 -17.5000 -16.0000 Du        
    672 ****        -8.2500 -17.5000 -15.7500 Du        
    673 ****        -8.2500 -17.5000 -15.5000 Du        
    674 ****        -8.2500 -17.2500 -17.2500 Du        
    675 ****        -8.2500 -17.2500 -17.0000 Du        
    676 ****        -8.2500 -17.2500 -16.7500 Du        
    677 ****        -8.2500 -17.2500 -16.5000 Du        
    678 ****        -8.2500 -17.2500 -16.2500 Du        
    679 ****        -8.2500 -17.2500 -16.0000 Du        
    680 ****        -8.2500 -17.2500 -15.7500 Du        
    681 ****        -8.2500 -17.0000 -17.2500 Du        
    682 ****        -8.2500 -17.0000 -17.0000 Du        
    683 ****        -8.2500 -17.0000 -16.7500 Du        
    684 ****        -8.2500 -17.0000 -16.5000 Du        
    685 ****        -8.2500 -17.0000 -16.2500 Du        
    686 ****        -8.2500 -17.0000 -16.0000 Du        
    687 ****        -8.2500 -17.0000 -15.7500 Du        
    688 ****        -8.2500 -16.7500 -17.2500 Du        
    689 ****        -8.2500 -16.7500 -17.0000 Du        
    690 ****        -8.2500 -16.7500 -16.7500 Du        
    691 ****        -8.2500 -16.7500 -16.5000 Du        
    692 ****        -8.2500 -16.7500 -16.2500 Du        
    693 ****        -8.2500 -16.7500 -16.0000 Du        
    694 ****        -8.2500 -16.7500 -15.7500 Du        
    695 ****        -8.2500 -16.5000 -17.2500 Du        
    696 ****        -8.2500 -16.5000 -17.0000 Du        
    697 ****        -8.2500 -16.5000 -16.7500 Du        
    698 ****        -8.2500 -16.5000 -16.5000 Du        
    699 ****        -8.2500 -16.5000 -16.2500 Du        
    700 ****        -8.2500 -16.5000 -16.0000 Du        
    701 ****        -8.2500 -16.2500 -17.2500 Du        
    702 ****        -8.2500 -16.2500 -17.0000 Du        
    703 ****        -8.2500 -16.2500 -16.7500 Du        
    704 ****        -8.2500 -16.2500 -16.5000 Du        
    705 ****        -8.2500 -16.2500 -16.2500 Du        
    706 ****        -8.2500 -16.2500 -16.0000 Du        
    707 ****        -8.2500 -16.0000 -17.5000 Du        
    708 ****        -8.2500 -16.0000 -17.2500 Du        
    709 ****        -8.2500 -16.0000 -17.0000 Du        
    710 ****        -8.2500 -16.0000 -16.7500 Du        
    711 ****        -8.2500 -16.0000 -16.5000 Du        
    712 ****        -8.2500 -16.0000 -16.2500 Du        
    713 ****        -8.2500 -15.7500 -17.2500 Du        
    714 ****        -8.2500 -15.7500 -17.0000 Du        
    715 ****        -8.2500 -15.7500 -16.7500 Du        
    716 ****        -8.0000 -28.2500 -15.0000 Du        
    717 ****        -8.0000 -28.2500 -14.7500 Du        
    718 ****        -8.0000 -28.2500 -14.5000 Du        
    719 ****        -8.0000 -28.2500 -14.2500 Du        
    720 ****        -8.0000 -28.0000 -15.5000 Du        
    721 ****        -8.0000 -28.0000 -15.2500 Du        
    722 ****        -8.0000 -28.0000 -15.0000 Du        
    723 ****        -8.0000 -28.0000 -14.7500 Du        
    724 ****        -8.0000 -28.0000 -14.5000 Du        
    725 ****        -8.0000 -28.0000 -14.2500 Du        
    726 ****        -8.0000 -28.0000 -14.0000 Du        
    727 ****        -8.0000 -28.0000 -13.7500 Du        
    728 ****        -8.0000 -27.7500 -15.5000 Du        
    729 ****        -8.0000 -27.7500 -15.2500 Du        
    730 ****        -8.0000 -27.7500 -15.0000 Du        
    731 ****        -8.0000 -27.7500 -14.7500 Du        
    732 ****        -8.0000 -27.7500 -14.5000 Du        
    733 ****        -8.0000 -27.7500 -14.2500 Du        
    734 ****        -8.0000 -27.7500 -14.0000 Du        
    735 ****        -8.0000 -27.7500 -13.7500 Du        
    736 ****        -8.0000 -27.5000 -15.5000 Du        
    737 ****        -8.0000 -27.5000 -15.2500 Du        
    738 ****        -8.0000 -27.5000 -15.0000 Du        
    739 ****        -8.0000 -27.5000 -14.7500 Du        
    740 ****        -8.0000 -27.5000 -14.5000 Du        
    741 ****        -8.0000 -27.5000 -14.2500 Du        
    742 ****        -8.0000 -27.5000 -14.0000 Du        
    743 ****        -8.0000 -27.5000 -13.7500 Du        
    744 ****        -8.0000 -27.2500 -15.2500 Du        
    745 ****        -8.0000 -27.2500 -15.0000 Du        
    746 ****        -8.0000 -27.2500 -14.7500 Du        
    747 ****        -8.0000 -27.2500 -14.5000 Du        
    748 ****        -8.0000 -27.2500 -14.2500 Du        
    749 ****        -8.0000 -27.2500 -14.0000 Du        
    750 ****        -8.0000 -27.2500 -13.7500 Du        
    751 ****        -8.0000 -27.0000 -15.0000 Du        
    752 ****        -8.0000 -27.0000 -14.7500 Du        
    753 ****        -8.0000 -27.0000 -14.5000 Du        
    754 ****        -8.0000 -27.0000 -14.2500 Du        
    755 ****        -8.0000 -27.0000 -14.0000 Du        
    756 ****        -8.0000 -22.0000 -15.7500 Du        
    757 ****        -8.0000 -22.0000 -15.5000 Du        
    758 ****        -8.0000 -21.7500 -16.0000 Du        
    759 ****        -8.0000 -21.7500 -15.7500 Du        
    760 ****        -8.0000 -21.7500 -15.5000 Du        
    761 ****        -8.0000 -21.7500 -15.2500 Du        
    762 ****        -8.0000 -21.5000 -16.2500 Du        
    763 ****        -8.0000 -21.5000 -16.0000 Du        
    764 ****        -8.0000 -21.5000 -15.7500 Du        
    765 ****        -8.0000 -21.5000 -15.5000 Du        
    766 ****        -8.0000 -21.5000 -15.2500 Du        
    767 ****        -8.0000 -21.2500 -16.5000 Du        
    768 ****        -8.0000 -21.2500 -16.2500 Du        
    769 ****        -8.0000 -21.2500 -16.0000 Du        
    770 ****        -8.0000 -21.2500 -15.7500 Du        
    771 ****        -8.0000 -21.2500 -15.5000 Du        
    772 ****        -8.0000 -21.2500 -15.2500 Du        
    773 ****        -8.0000 -21.2500 -15.0000 Du        
    774 ****        -8.0000 -21.0000 -16.5000 Du        
    775 ****        -8.0000 -21.0000 -16.2500 Du        
    776 ****        -8.0000 -21.0000 -16.0000 Du        
    777 ****        -8.0000 -21.0000 -15.7500 Du        
    778 ****        -8.0000 -21.0000 -15.5000 Du        
    779 ****        -8.0000 -21.0000 -15.2500 Du        
    780 ****        -8.0000 -21.0000 -15.0000 Du        
    781 ****        -8.0000 -20.7500 -16.7500 Du        
    782 ****        -8.0000 -20.7500 -16.5000 Du        
    783 ****        -8.0000 -20.7500 -16.2500 Du        
    784 ****        -8.0000 -20.7500 -16.0000 Du        
    785 ****        -8.0000 -20.7500 -15.7500 Du        
    786 ****        -8.0000 -20.7500 -15.5000 Du        
    787 ****        -8.0000 -20.7500 -15.2500 Du        
    788 ****        -8.0000 -20.7500 -15.0000 Du        
    789 ****        -8.0000 -20.5000 -16.7500 Du        
    790 ****        -8.0000 -20.5000 -16.5000 Du        
    791 ****        -8.0000 -20.5000 -16.2500 Du        
    792 ****        -8.0000 -20.5000 -16.0000 Du        
    793 ****        -8.0000 -20.5000 -15.7500 Du        
    794 ****        -8.0000 -20.5000 -15.5000 Du        
    795 ****        -8.0000 -20.5000 -15.2500 Du        
    796 ****        -8.0000 -20.2500 -16.7500 Du        
    797 ****        -8.0000 -20.2500 -16.5000 Du        
    798 ****        -8.0000 -20.2500 -16.2500 Du        
    799 ****        -8.0000 -20.2500 -16.0000 Du        
    800 ****        -8.0000 -20.2500 -15.7500 Du        
    801 ****        -8.0000 -20.2500 -15.5000 Du        
    802 ****        -8.0000 -20.2500 -15.2500 Du        
    803 ****        -8.0000 -20.0000 -16.7500 Du        
    804 ****        -8.0000 -20.0000 -16.5000 Du        
    805 ****        -8.0000 -20.0000 -16.2500 Du        
    806 ****        -8.0000 -20.0000 -16.0000 Du        
    807 ****        -8.0000 -20.0000 -15.7500 Du        
    808 ****        -8.0000 -20.0000 -15.5000 Du        
    809 ****        -8.0000 -20.0000 -15.2500 Du        
    810 ****        -8.0000 -19.7500 -16.7500 Du        
    811 ****        -8.0000 -19.7500 -16.5000 Du        
    812 ****        -8.0000 -19.7500 -16.2500 Du        
    813 ****        -8.0000 -19.7500 -16.0000 Du        
    814 ****        -8.0000 -19.7500 -15.7500 Du        
    815 ****        -8.0000 -19.7500 -15.5000 Du        
    816 ****        -8.0000 -19.7500 -15.2500 Du        
    817 ****        -8.0000 -19.5000 -16.7500 Du        
    818 ****        -8.0000 -19.5000 -16.5000 Du        
    819 ****        -8.0000 -19.5000 -16.2500 Du        
    820 ****        -8.0000 -19.5000 -16.0000 Du        
    821 ****        -8.0000 -19.5000 -15.7500 Du        
    822 ****        -8.0000 -19.5000 -15.5000 Du        
    823 ****        -8.0000 -19.5000 -15.2500 Du        
    824 ****        -8.0000 -19.2500 -16.7500 Du        
    825 ****        -8.0000 -19.2500 -16.5000 Du        
    826 ****        -8.0000 -19.2500 -16.2500 Du        
    827 ****        -8.0000 -19.2500 -16.0000 Du        
    828 ****        -8.0000 -19.2500 -15.7500 Du        
    829 ****        -8.0000 -19.2500 -15.5000 Du        
    830 ****        -8.0000 -19.2500 -15.2500 Du        
    831 ****        -8.0000 -19.0000 -16.7500 Du        
    832 ****        -8.0000 -19.0000 -16.5000 Du        
    833 ****        -8.0000 -19.0000 -16.2500 Du        
    834 ****        -8.0000 -19.0000 -16.0000 Du        
    835 ****        -8.0000 -19.0000 -15.7500 Du        
    836 ****        -8.0000 -19.0000 -15.5000 Du        
    837 ****        -8.0000 -19.0000 -15.2500 Du        
    838 ****        -8.0000 -18.7500 -17.0000 Du        
    839 ****        -8.0000 -18.7500 -16.7500 Du        
    840 ****        -8.0000 -18.7500 -16.5000 Du        
    841 ****        -8.0000 -18.7500 -16.2500 Du        
    842 ****        -8.0000 -18.7500 -16.0000 Du        
    843 ****        -8.0000 -18.7500 -15.7500 Du        
    844 ****        -8.0000 -18.7500 -15.5000 Du        
    845 ****        -8.0000 -18.7500 -15.2500 Du        
    846 ****        -8.0000 -18.5000 -17.0000 Du        
    847 ****        -8.0000 -18.5000 -16.7500 Du        
    848 ****        -8.0000 -18.5000 -16.5000 Du        
    849 ****        -8.0000 -18.5000 -16.2500 Du        
    850 ****        -8.0000 -18.5000 -16.0000 Du        
    851 ****        -8.0000 -18.5000 -15.7500 Du        
    852 ****        -8.0000 -18.5000 -15.5000 Du        
    853 ****        -8.0000 -18.5000 -15.2500 Du        
    854 ****        -8.0000 -18.2500 -17.2500 Du        
    855 ****        -8.0000 -18.2500 -17.0000 Du        
    856 ****        -8.0000 -18.2500 -16.7500 Du        
    857 ****        -8.0000 -18.2500 -16.5000 Du        
    858 ****        -8.0000 -18.2500 -16.2500 Du        
    859 ****        -8.0000 -18.2500 -16.0000 Du        
    860 ****        -8.0000 -18.2500 -15.7500 Du        
    861 ****        -8.0000 -18.2500 -15.5000 Du        
    862 ****        -8.0000 -18.2500 -15.2500 Du        
    863 ****        -8.0000 -18.0000 -17.2500 Du        
    864 ****        -8.0000 -18.0000 -17.0000 Du        
    865 ****        -8.0000 -18.0000 -16.7500 Du        
    866 ****        -8.0000 -18.0000 -16.5000 Du        
    867 ****        -8.0000 -18.0000 -16.2500 Du        
    868 ****        -8.0000 -18.0000 -16.0000 Du        
    869 ****        -8.0000 -18.0000 -15.7500 Du        
    870 ****        -8.0000 -18.0000 -15.5000 Du        
    871 ****        -8.0000 -18.0000 -15.2500 Du        
    872 ****        -8.0000 -17.7500 -17.2500 Du        
    873 ****        -8.0000 -17.7500 -17.0000 Du        
    874 ****        -8.0000 -17.7500 -16.7500 Du        
    875 ****        -8.0000 -17.7500 -16.5000 Du        
    876 ****        -8.0000 -17.7500 -16.2500 Du        
    877 ****        -8.0000 -17.7500 -16.0000 Du        
    878 ****        -8.0000 -17.7500 -15.7500 Du        
    879 ****        -8.0000 -17.7500 -15.5000 Du        
    880 ****        -8.0000 -17.5000 -17.5000 Du        
    881 ****        -8.0000 -17.5000 -17.2500 Du        
    882 ****        -8.0000 -17.5000 -17.0000 Du        
    883 ****        -8.0000 -17.5000 -16.7500 Du        
    884 ****        -8.0000 -17.5000 -16.5000 Du        
    885 ****        -8.0000 -17.5000 -16.2500 Du        
    886 ****        -8.0000 -17.5000 -16.0000 Du        
    887 ****        -8.0000 -17.5000 -15.7500 Du        
    888 ****        -8.0000 -17.2500 -17.5000 Du        
    889 ****        -8.0000 -17.2500 -17.2500 Du        
    890 ****        -8.0000 -17.2500 -17.0000 Du        
    891 ****        -8.0000 -17.2500 -16.7500 Du        
    892 ****        -8.0000 -17.2500 -16.5000 Du        
    893 ****        -8.0000 -17.2500 -16.2500 Du        
    894 ****        -8.0000 -17.2500 -16.0000 Du        
    895 ****        -8.0000 -17.0000 -17.5000 Du        
    896 ****        -8.0000 -17.0000 -17.2500 Du        
    897 ****        -8.0000 -17.0000 -17.0000 Du        
    898 ****        -8.0000 -17.0000 -16.7500 Du        
    899 ****        -8.0000 -17.0000 -16.5000 Du        
    900 ****        -8.0000 -17.0000 -16.2500 Du        
    901 ****        -8.0000 -17.0000 -16.0000 Du        
    902 ****        -8.0000 -16.7500 -17.7500 Du        
    903 ****        -8.0000 -16.7500 -17.5000 Du        
    904 ****        -8.0000 -16.7500 -17.2500 Du        
    905 ****        -8.0000 -16.7500 -17.0000 Du        
    906 ****        -8.0000 -16.7500 -16.7500 Du        
    907 ****        -8.0000 -16.7500 -16.5000 Du        
    908 ****        -8.0000 -16.7500 -16.2500 Du        
    909 ****        -8.0000 -16.5000 -17.7500 Du        
    910 ****        -8.0000 -16.5000 -17.5000 Du        
    911 ****        -8.0000 -16.5000 -17.2500 Du        
    912 ****        -8.0000 -16.5000 -17.0000 Du        
    913 ****        -8.0000 -16.5000 -16.7500 Du        
    914 ****        -8.0000 -16.5000 -16.5000 Du        
    915 ****        -8.0000 -16.5000 -16.2500 Du        
    916 ****        -8.0000 -16.2500 -17.7500 Du        
    917 ****        -8.0000 -16.2500 -17.5000 Du        
    918 ****        -8.0000 -16.2500 -17.2500 Du        
    919 ****        -8.0000 -16.2500 -17.0000 Du        
    920 ****        -8.0000 -16.2500 -16.7500 Du        
    921 ****        -8.0000 -16.2500 -16.5000 Du        
    922 ****        -8.0000 -16.0000 -18.0000 Du        
    923 ****        -8.0000 -16.0000 -17.7500 Du        
    924 ****        -8.0000 -16.0000 -17.5000 Du        
    925 ****        -8.0000 -16.0000 -17.2500 Du        
    926 ****        -8.0000 -16.0000 -17.0000 Du        
    927 ****        -8.0000 -16.0000 -16.7500 Du        
    928 ****        -8.0000 -15.7500 -17.2500 Du        
    929 ****        -8.0000 -15.7500 -17.0000 Du        
    930 ****        -8.0000 -15.7500 -16.7500 Du        
    931 ****        -7.7500 -28.5000 -15.0000 Du        
    932 ****        -7.7500 -28.5000 -14.7500 Du        
    933 ****        -7.7500 -28.5000 -14.5000 Du        
    934 ****        -7.7500 -28.2500 -15.7500 Du        
    935 ****        -7.7500 -28.2500 -15.5000 Du        
    936 ****        -7.7500 -28.2500 -15.2500 Du        
    937 ****        -7.7500 -28.2500 -15.0000 Du        
    938 ****        -7.7500 -28.2500 -14.7500 Du        
    939 ****        -7.7500 -28.2500 -14.5000 Du        
    940 ****        -7.7500 -28.2500 -14.2500 Du        
    941 ****        -7.7500 -28.2500 -14.0000 Du        
    942 ****        -7.7500 -28.2500 -13.7500 Du        
    943 ****        -7.7500 -28.0000 -15.7500 Du        
    944 ****        -7.7500 -28.0000 -15.5000 Du        
    945 ****        -7.7500 -28.0000 -15.2500 Du        
    946 ****        -7.7500 -28.0000 -15.0000 Du        
    947 ****        -7.7500 -28.0000 -14.7500 Du        
    948 ****        -7.7500 -28.0000 -14.5000 Du        
    949 ****        -7.7500 -28.0000 -14.2500 Du        
    950 ****        -7.7500 -28.0000 -14.0000 Du        
    951 ****        -7.7500 -28.0000 -13.7500 Du        
    952 ****        -7.7500 -27.7500 -15.7500 Du        
    953 ****        -7.7500 -27.7500 -15.5000 Du        
    954 ****        -7.7500 -27.7500 -15.2500 Du        
    955 ****        -7.7500 -27.7500 -15.0000 Du        
    956 ****        -7.7500 -27.7500 -14.7500 Du        
    957 ****        -7.7500 -27.7500 -14.5000 Du        
    958 ****        -7.7500 -27.7500 -14.2500 Du        
    959 ****        -7.7500 -27.7500 -14.0000 Du        
    960 ****        -7.7500 -27.7500 -13.7500 Du        
    961 ****        -7.7500 -27.5000 -15.5000 Du        
    962 ****        -7.7500 -27.5000 -15.2500 Du        
    963 ****        -7.7500 -27.5000 -15.0000 Du        
    964 ****        -7.7500 -27.5000 -14.7500 Du        
    965 ****        -7.7500 -27.5000 -14.5000 Du        
    966 ****        -7.7500 -27.5000 -14.2500 Du        
    967 ****        -7.7500 -27.5000 -14.0000 Du        
    968 ****        -7.7500 -27.5000 -13.7500 Du        
    969 ****        -7.7500 -27.2500 -15.2500 Du        
    970 ****        -7.7500 -27.2500 -15.0000 Du        
    971 ****        -7.7500 -27.2500 -14.7500 Du        
    972 ****        -7.7500 -27.2500 -14.5000 Du        
    973 ****        -7.7500 -27.2500 -14.2500 Du        
    974 ****        -7.7500 -27.2500 -14.0000 Du        
    975 ****        -7.7500 -27.2500 -13.7500 Du        
    976 ****        -7.7500 -27.2500  -9.7500 Du        
    977 ****        -7.7500 -27.0000 -15.0000 Du        
    978 ****        -7.7500 -27.0000 -14.7500 Du        
    979 ****        -7.7500 -27.0000 -14.5000 Du        
    980 ****        -7.7500 -27.0000 -14.2500 Du        
    981 ****        -7.7500 -27.0000 -14.0000 Du        
    982 ****        -7.7500 -27.0000 -13.7500 Du        
    983 ****        -7.7500 -26.7500  -9.2500 Du        
    984 ****        -7.7500 -22.0000 -16.0000 Du        
    985 ****        -7.7500 -22.0000 -15.7500 Du        
    986 ****        -7.7500 -22.0000 -15.5000 Du        
    987 ****        -7.7500 -22.0000 -15.2500 Du        
    988 ****        -7.7500 -21.7500 -16.0000 Du        
    989 ****        -7.7500 -21.7500 -15.7500 Du        
    990 ****        -7.7500 -21.7500 -15.5000 Du        
    991 ****        -7.7500 -21.7500 -15.2500 Du        
    992 ****        -7.7500 -21.5000 -16.2500 Du        
    993 ****        -7.7500 -21.5000 -16.0000 Du        
    994 ****        -7.7500 -21.5000 -15.7500 Du        
    995 ****        -7.7500 -21.5000 -15.5000 Du        
    996 ****        -7.7500 -21.5000 -15.2500 Du        
    997 ****        -7.7500 -21.2500 -16.2500 Du        
    998 ****        -7.7500 -21.2500 -16.0000 Du        
    999 ****        -7.7500 -21.2500 -15.7500 Du        
   1000 ****        -7.7500 -21.2500 -15.5000 Du        
   1001 ****        -7.7500 -21.2500 -15.2500 Du        
   1002 ****        -7.7500 -21.0000 -16.5000 Du        
   1003 ****        -7.7500 -21.0000 -16.2500 Du        
   1004 ****        -7.7500 -21.0000 -16.0000 Du        
   1005 ****        -7.7500 -21.0000 -15.7500 Du        
   1006 ****        -7.7500 -21.0000 -15.5000 Du        
   1007 ****        -7.7500 -21.0000 -15.2500 Du        
   1008 ****        -7.7500 -20.7500 -16.5000 Du        
   1009 ****        -7.7500 -20.7500 -16.2500 Du        
   1010 ****        -7.7500 -20.7500 -16.0000 Du        
   1011 ****        -7.7500 -20.7500 -15.7500 Du        
   1012 ****        -7.7500 -20.7500 -15.5000 Du        
   1013 ****        -7.7500 -20.7500 -15.2500 Du        
   1014 ****        -7.7500 -20.5000 -16.5000 Du        
   1015 ****        -7.7500 -20.5000 -16.2500 Du        
   1016 ****        -7.7500 -20.5000 -16.0000 Du        
   1017 ****        -7.7500 -20.5000 -15.7500 Du        
   1018 ****        -7.7500 -20.5000 -15.5000 Du        
   1019 ****        -7.7500 -20.5000 -15.2500 Du        
   1020 ****        -7.7500 -20.2500 -16.5000 Du        
   1021 ****        -7.7500 -20.2500 -16.2500 Du        
   1022 ****        -7.7500 -20.2500 -16.0000 Du        
   1023 ****        -7.7500 -20.2500 -15.7500 Du        
   1024 ****        -7.7500 -20.2500 -15.5000 Du        
   1025 ****        -7.7500 -20.2500 -15.2500 Du        
   1026 ****        -7.7500 -20.0000 -16.5000 Du        
   1027 ****        -7.7500 -20.0000 -16.2500 Du        
   1028 ****        -7.7500 -20.0000 -16.0000 Du        
   1029 ****        -7.7500 -20.0000 -15.7500 Du        
   1030 ****        -7.7500 -20.0000 -15.5000 Du        
   1031 ****        -7.7500 -20.0000 -15.2500 Du        
   1032 ****        -7.7500 -19.7500 -16.5000 Du        
   1033 ****        -7.7500 -19.7500 -16.2500 Du        
   1034 ****        -7.7500 -19.7500 -16.0000 Du        
   1035 ****        -7.7500 -19.7500 -15.7500 Du        
   1036 ****        -7.7500 -19.7500 -15.5000 Du        
   1037 ****        -7.7500 -19.7500 -15.2500 Du        
   1038 ****        -7.7500 -19.5000 -16.7500 Du        
   1039 ****        -7.7500 -19.5000 -16.5000 Du        
   1040 ****        -7.7500 -19.5000 -16.2500 Du        
   1041 ****        -7.7500 -19.5000 -16.0000 Du        
   1042 ****        -7.7500 -19.5000 -15.7500 Du        
   1043 ****        -7.7500 -19.5000 -15.5000 Du        
   1044 ****        -7.7500 -19.5000 -15.2500 Du        
   1045 ****        -7.7500 -19.2500 -16.7500 Du        
   1046 ****        -7.7500 -19.2500 -16.5000 Du        
   1047 ****        -7.7500 -19.2500 -16.2500 Du        
   1048 ****        -7.7500 -19.2500 -16.0000 Du        
   1049 ****        -7.7500 -19.2500 -15.7500 Du        
   1050 ****        -7.7500 -19.2500 -15.5000 Du        
   1051 ****        -7.7500 -19.2500 -15.2500 Du        
   1052 ****        -7.7500 -19.0000 -16.7500 Du        
   1053 ****        -7.7500 -19.0000 -16.5000 Du        
   1054 ****        -7.7500 -19.0000 -16.2500 Du        
   1055 ****        -7.7500 -19.0000 -16.0000 Du        
   1056 ****        -7.7500 -19.0000 -15.7500 Du        
   1057 ****        -7.7500 -19.0000 -15.5000 Du        
   1058 ****        -7.7500 -19.0000 -15.2500 Du        
   1059 ****        -7.7500 -18.7500 -17.0000 Du        
   1060 ****        -7.7500 -18.7500 -16.7500 Du        
   1061 ****        -7.7500 -18.7500 -16.5000 Du        
   1062 ****        -7.7500 -18.7500 -16.2500 Du        
   1063 ****        -7.7500 -18.7500 -16.0000 Du        
   1064 ****        -7.7500 -18.7500 -15.7500 Du        
   1065 ****        -7.7500 -18.7500 -15.5000 Du        
   1066 ****        -7.7500 -18.7500 -15.2500 Du        
   1067 ****        -7.7500 -18.5000 -17.0000 Du        
   1068 ****        -7.7500 -18.5000 -16.7500 Du        
   1069 ****        -7.7500 -18.5000 -16.5000 Du        
   1070 ****        -7.7500 -18.5000 -16.2500 Du        
   1071 ****        -7.7500 -18.5000 -16.0000 Du        
   1072 ****        -7.7500 -18.5000 -15.7500 Du        
   1073 ****        -7.7500 -18.5000 -15.5000 Du        
   1074 ****        -7.7500 -18.5000 -15.2500 Du        
   1075 ****        -7.7500 -18.2500 -17.2500 Du        
   1076 ****        -7.7500 -18.2500 -17.0000 Du        
   1077 ****        -7.7500 -18.2500 -16.7500 Du        
   1078 ****        -7.7500 -18.2500 -16.5000 Du        
   1079 ****        -7.7500 -18.2500 -16.2500 Du        
   1080 ****        -7.7500 -18.2500 -16.0000 Du        
   1081 ****        -7.7500 -18.2500 -15.7500 Du        
   1082 ****        -7.7500 -18.2500 -15.5000 Du        
   1083 ****        -7.7500 -18.2500 -15.2500 Du        
   1084 ****        -7.7500 -18.0000 -17.2500 Du        
   1085 ****        -7.7500 -18.0000 -17.0000 Du        
   1086 ****        -7.7500 -18.0000 -16.7500 Du        
   1087 ****        -7.7500 -18.0000 -16.5000 Du        
   1088 ****        -7.7500 -18.0000 -16.2500 Du        
   1089 ****        -7.7500 -18.0000 -16.0000 Du        
   1090 ****        -7.7500 -18.0000 -15.7500 Du        
   1091 ****        -7.7500 -17.7500 -17.5000 Du        
   1092 ****        -7.7500 -17.7500 -17.2500 Du        
   1093 ****        -7.7500 -17.7500 -17.0000 Du        
   1094 ****        -7.7500 -17.7500 -16.7500 Du        
   1095 ****        -7.7500 -17.7500 -16.5000 Du        
   1096 ****        -7.7500 -17.7500 -16.2500 Du        
   1097 ****        -7.7500 -17.7500 -16.0000 Du        
   1098 ****        -7.7500 -17.7500 -15.7500 Du        
   1099 ****        -7.7500 -17.5000 -17.5000 Du        
   1100 ****        -7.7500 -17.5000 -17.2500 Du        
   1101 ****        -7.7500 -17.5000 -17.0000 Du        
   1102 ****        -7.7500 -17.5000 -16.7500 Du        
   1103 ****        -7.7500 -17.5000 -16.5000 Du        
   1104 ****        -7.7500 -17.5000 -16.2500 Du        
   1105 ****        -7.7500 -17.2500 -17.7500 Du        
   1106 ****        -7.7500 -17.2500 -17.5000 Du        
   1107 ****        -7.7500 -17.2500 -17.2500 Du        
   1108 ****        -7.7500 -17.2500 -17.0000 Du        
   1109 ****        -7.7500 -17.2500 -16.7500 Du        
   1110 ****        -7.7500 -17.2500 -16.5000 Du        
   1111 ****        -7.7500 -17.2500 -16.2500 Du        
   1112 ****        -7.7500 -17.0000 -18.0000 Du        
   1113 ****        -7.7500 -17.0000 -17.7500 Du        
   1114 ****        -7.7500 -17.0000 -17.5000 Du        
   1115 ****        -7.7500 -17.0000 -17.2500 Du        
   1116 ****        -7.7500 -17.0000 -17.0000 Du        
   1117 ****        -7.7500 -17.0000 -16.7500 Du        
   1118 ****        -7.7500 -17.0000 -16.5000 Du        
   1119 ****        -7.7500 -16.7500 -18.0000 Du        
   1120 ****        -7.7500 -16.7500 -17.7500 Du        
   1121 ****        -7.7500 -16.7500 -17.5000 Du        
   1122 ****        -7.7500 -16.7500 -17.2500 Du        
   1123 ****        -7.7500 -16.7500 -17.0000 Du        
   1124 ****        -7.7500 -16.7500 -16.7500 Du        
   1125 ****        -7.7500 -16.7500 -16.5000 Du        
   1126 ****        -7.7500 -16.5000 -18.0000 Du        
   1127 ****        -7.7500 -16.5000 -17.7500 Du        
   1128 ****        -7.7500 -16.5000 -17.5000 Du        
   1129 ****        -7.7500 -16.5000 -17.2500 Du        
   1130 ****        -7.7500 -16.5000 -17.0000 Du        
   1131 ****        -7.7500 -16.5000 -16.7500 Du        
   1132 ****        -7.7500 -16.2500 -18.0000 Du        
   1133 ****        -7.7500 -16.2500 -17.7500 Du        
   1134 ****        -7.7500 -16.2500 -17.5000 Du        
   1135 ****        -7.7500 -16.2500 -17.2500 Du        
   1136 ****        -7.7500 -16.2500 -17.0000 Du        
   1137 ****        -7.7500 -16.2500 -16.7500 Du        
   1138 ****        -7.7500 -16.0000 -17.7500 Du        
   1139 ****        -7.7500 -16.0000 -17.5000 Du        
   1140 ****        -7.7500 -16.0000 -17.2500 Du        
   1141 ****        -7.7500 -16.0000 -17.0000 Du        
   1142 ****        -7.7500 -16.0000 -16.7500 Du        
   1143 ****        -7.7500 -15.7500 -17.2500 Du        
   1144 ****        -7.7500 -15.7500 -17.0000 Du        
   1145 ****        -7.5000 -28.7500 -15.2500 Du        
   1146 ****        -7.5000 -28.7500 -15.0000 Du        
   1147 ****        -7.5000 -28.7500 -14.7500 Du        
   1148 ****        -7.5000 -28.7500 -14.5000 Du        
   1149 ****        -7.5000 -28.7500 -14.2500 Du        
   1150 ****        -7.5000 -28.5000 -15.7500 Du        
   1151 ****        -7.5000 -28.5000 -15.5000 Du        
   1152 ****        -7.5000 -28.5000 -15.2500 Du        
   1153 ****        -7.5000 -28.5000 -15.0000 Du        
   1154 ****        -7.5000 -28.5000 -14.7500 Du        
   1155 ****        -7.5000 -28.5000 -14.5000 Du        
   1156 ****        -7.5000 -28.5000 -14.2500 Du        
   1157 ****        -7.5000 -28.5000 -14.0000 Du        
   1158 ****        -7.5000 -28.2500 -15.7500 Du        
   1159 ****        -7.5000 -28.2500 -15.5000 Du        
   1160 ****        -7.5000 -28.2500 -15.2500 Du        
   1161 ****        -7.5000 -28.2500 -15.0000 Du        
   1162 ****        -7.5000 -28.2500 -14.7500 Du        
   1163 ****        -7.5000 -28.2500 -14.5000 Du        
   1164 ****        -7.5000 -28.2500 -14.2500 Du        
   1165 ****        -7.5000 -28.2500 -14.0000 Du        
   1166 ****        -7.5000 -28.2500 -13.7500 Du        
   1167 ****        -7.5000 -28.0000 -15.7500 Du        
   1168 ****        -7.5000 -28.0000 -15.5000 Du        
   1169 ****        -7.5000 -28.0000 -15.2500 Du        
   1170 ****        -7.5000 -28.0000 -15.0000 Du        
   1171 ****        -7.5000 -28.0000 -14.7500 Du        
   1172 ****        -7.5000 -28.0000 -14.5000 Du        
   1173 ****        -7.5000 -28.0000 -14.2500 Du        
   1174 ****        -7.5000 -28.0000 -14.0000 Du        
   1175 ****        -7.5000 -28.0000 -13.7500 Du        
   1176 ****        -7.5000 -27.7500 -15.7500 Du        
   1177 ****        -7.5000 -27.7500 -15.5000 Du        
   1178 ****        -7.5000 -27.7500 -15.2500 Du        
   1179 ****        -7.5000 -27.7500 -15.0000 Du        
   1180 ****        -7.5000 -27.7500 -14.7500 Du        
   1181 ****        -7.5000 -27.7500 -14.5000 Du        
   1182 ****        -7.5000 -27.7500 -14.2500 Du        
   1183 ****        -7.5000 -27.7500 -14.0000 Du        
   1184 ****        -7.5000 -27.7500 -13.7500 Du        
   1185 ****        -7.5000 -27.5000 -15.2500 Du        
   1186 ****        -7.5000 -27.5000 -15.0000 Du        
   1187 ****        -7.5000 -27.5000 -14.7500 Du        
   1188 ****        -7.5000 -27.5000 -14.5000 Du        
   1189 ****        -7.5000 -27.5000 -14.2500 Du        
   1190 ****        -7.5000 -27.5000 -14.0000 Du        
   1191 ****        -7.5000 -27.5000 -13.7500 Du        
   1192 ****        -7.5000 -27.5000 -10.0000 Du        
   1193 ****        -7.5000 -27.5000  -9.7500 Du        
   1194 ****        -7.5000 -27.5000  -9.5000 Du        
   1195 ****        -7.5000 -27.5000  -9.2500 Du        
   1196 ****        -7.5000 -27.2500 -15.0000 Du        
   1197 ****        -7.5000 -27.2500 -14.7500 Du        
   1198 ****        -7.5000 -27.2500 -14.5000 Du        
   1199 ****        -7.5000 -27.2500 -14.2500 Du        
   1200 ****        -7.5000 -27.2500 -14.0000 Du        
   1201 ****        -7.5000 -27.2500 -13.7500 Du        
   1202 ****        -7.5000 -27.2500 -10.0000 Du        
   1203 ****        -7.5000 -27.2500  -9.7500 Du        
   1204 ****        -7.5000 -27.2500  -9.5000 Du        
   1205 ****        -7.5000 -27.2500  -9.2500 Du        
   1206 ****        -7.5000 -27.2500  -9.0000 Du        
   1207 ****        -7.5000 -27.2500  -8.7500 Du        
   1208 ****        -7.5000 -27.0000 -14.7500 Du        
   1209 ****        -7.5000 -27.0000 -14.5000 Du        
   1210 ****        -7.5000 -27.0000 -14.2500 Du        
   1211 ****        -7.5000 -27.0000 -14.0000 Du        
   1212 ****        -7.5000 -27.0000 -13.7500 Du        
   1213 ****        -7.5000 -27.0000  -9.7500 Du        
   1214 ****        -7.5000 -27.0000  -9.5000 Du        
   1215 ****        -7.5000 -27.0000  -9.2500 Du        
   1216 ****        -7.5000 -27.0000  -9.0000 Du        
   1217 ****        -7.5000 -27.0000  -8.7500 Du        
   1218 ****        -7.5000 -26.7500 -14.5000 Du        
   1219 ****        -7.5000 -26.7500 -14.2500 Du        
   1220 ****        -7.5000 -26.7500 -14.0000 Du        
   1221 ****        -7.5000 -26.7500  -9.5000 Du        
   1222 ****        -7.5000 -26.7500  -9.2500 Du        
   1223 ****        -7.5000 -26.7500  -9.0000 Du        
   1224 ****        -7.5000 -26.7500  -8.7500 Du        
   1225 ****        -7.5000 -26.7500  -8.5000 Du        
   1226 ****        -7.5000 -26.7500  -8.2500 Du        
   1227 ****        -7.5000 -26.5000  -9.2500 Du        
   1228 ****        -7.5000 -26.5000  -9.0000 Du        
   1229 ****        -7.5000 -26.5000  -8.7500 Du        
   1230 ****        -7.5000 -26.5000  -8.5000 Du        
   1231 ****        -7.5000 -26.5000  -8.2500 Du        
   1232 ****        -7.5000 -26.2500  -9.0000 Du        
   1233 ****        -7.5000 -26.2500  -8.7500 Du        
   1234 ****        -7.5000 -26.2500  -8.5000 Du        
   1235 ****        -7.5000 -22.0000 -15.7500 Du        
   1236 ****        -7.5000 -22.0000 -15.5000 Du        
   1237 ****        -7.5000 -22.0000 -15.2500 Du        
   1238 ****        -7.5000 -21.7500 -16.0000 Du        
   1239 ****        -7.5000 -21.7500 -15.7500 Du        
   1240 ****        -7.5000 -21.7500 -15.5000 Du        
   1241 ****        -7.5000 -21.7500 -15.2500 Du        
   1242 ****        -7.5000 -21.5000 -16.0000 Du        
   1243 ****        -7.5000 -21.5000 -15.7500 Du        
   1244 ****        -7.5000 -21.5000 -15.5000 Du        
   1245 ****        -7.5000 -21.5000 -15.2500 Du        
   1246 ****        -7.5000 -21.2500 -16.0000 Du        
   1247 ****        -7.5000 -21.2500 -15.7500 Du        
   1248 ****        -7.5000 -21.2500 -15.5000 Du        
   1249 ****        -7.5000 -21.0000 -16.2500 Du        
   1250 ****        -7.5000 -21.0000 -16.0000 Du        
   1251 ****        -7.5000 -21.0000 -15.7500 Du        
   1252 ****        -7.5000 -21.0000 -15.5000 Du        
   1253 ****        -7.5000 -20.7500 -16.2500 Du        
   1254 ****        -7.5000 -20.7500 -16.0000 Du        
   1255 ****        -7.5000 -20.7500 -15.7500 Du        
   1256 ****        -7.5000 -20.7500 -15.5000 Du        
   1257 ****        -7.5000 -20.5000 -16.2500 Du        
   1258 ****        -7.5000 -20.5000 -16.0000 Du        
   1259 ****        -7.5000 -20.5000 -15.7500 Du        
   1260 ****        -7.5000 -20.5000 -15.5000 Du        
   1261 ****        -7.5000 -20.2500 -16.2500 Du        
   1262 ****        -7.5000 -20.2500 -16.0000 Du        
   1263 ****        -7.5000 -20.2500 -15.7500 Du        
   1264 ****        -7.5000 -20.2500 -15.5000 Du        
   1265 ****        -7.5000 -20.0000 -16.5000 Du        
   1266 ****        -7.5000 -20.0000 -16.2500 Du        
   1267 ****        -7.5000 -20.0000 -16.0000 Du        
   1268 ****        -7.5000 -20.0000 -15.7500 Du        
   1269 ****        -7.5000 -20.0000 -15.5000 Du        
   1270 ****        -7.5000 -19.7500 -16.5000 Du        
   1271 ****        -7.5000 -19.7500 -16.2500 Du        
   1272 ****        -7.5000 -19.7500 -16.0000 Du        
   1273 ****        -7.5000 -19.7500 -15.7500 Du        
   1274 ****        -7.5000 -19.7500 -15.5000 Du        
   1275 ****        -7.5000 -19.5000 -16.5000 Du        
   1276 ****        -7.5000 -19.5000 -16.2500 Du        
   1277 ****        -7.5000 -19.5000 -16.0000 Du        
   1278 ****        -7.5000 -19.5000 -15.7500 Du        
   1279 ****        -7.5000 -19.5000 -15.5000 Du        
   1280 ****        -7.5000 -19.2500 -16.5000 Du        
   1281 ****        -7.5000 -19.2500 -16.2500 Du        
   1282 ****        -7.5000 -19.2500 -16.0000 Du        
   1283 ****        -7.5000 -19.2500 -15.7500 Du        
   1284 ****        -7.5000 -19.2500 -15.5000 Du        
   1285 ****        -7.5000 -19.0000 -16.7500 Du        
   1286 ****        -7.5000 -19.0000 -16.5000 Du        
   1287 ****        -7.5000 -19.0000 -16.2500 Du        
   1288 ****        -7.5000 -19.0000 -16.0000 Du        
   1289 ****        -7.5000 -19.0000 -15.7500 Du        
   1290 ****        -7.5000 -19.0000 -15.5000 Du        
   1291 ****        -7.5000 -19.0000 -15.2500 Du        
   1292 ****        -7.5000 -18.7500 -16.7500 Du        
   1293 ****        -7.5000 -18.7500 -16.5000 Du        
   1294 ****        -7.5000 -18.7500 -16.2500 Du        
   1295 ****        -7.5000 -18.7500 -16.0000 Du        
   1296 ****        -7.5000 -18.7500 -15.7500 Du        
   1297 ****        -7.5000 -18.7500 -15.5000 Du        
   1298 ****        -7.5000 -18.7500 -15.2500 Du        
   1299 ****        -7.5000 -18.5000 -17.0000 Du        
   1300 ****        -7.5000 -18.5000 -16.7500 Du        
   1301 ****        -7.5000 -18.5000 -16.5000 Du        
   1302 ****        -7.5000 -18.5000 -16.2500 Du        
   1303 ****        -7.5000 -18.5000 -16.0000 Du        
   1304 ****        -7.5000 -18.5000 -15.7500 Du        
   1305 ****        -7.5000 -18.5000 -15.5000 Du        
   1306 ****        -7.5000 -18.2500 -17.0000 Du        
   1307 ****        -7.5000 -18.2500 -16.7500 Du        
   1308 ****        -7.5000 -18.2500 -16.5000 Du        
   1309 ****        -7.5000 -18.2500 -16.2500 Du        
   1310 ****        -7.5000 -18.2500 -16.0000 Du        
   1311 ****        -7.5000 -18.2500 -15.7500 Du        
   1312 ****        -7.5000 -18.0000 -17.2500 Du        
   1313 ****        -7.5000 -18.0000 -17.0000 Du        
   1314 ****        -7.5000 -18.0000 -16.7500 Du        
   1315 ****        -7.5000 -18.0000 -16.5000 Du        
   1316 ****        -7.5000 -18.0000 -16.2500 Du        
   1317 ****        -7.5000 -18.0000 -16.0000 Du        
   1318 ****        -7.5000 -17.7500 -17.5000 Du        
   1319 ****        -7.5000 -17.7500 -17.2500 Du        
   1320 ****        -7.5000 -17.7500 -17.0000 Du        
   1321 ****        -7.5000 -17.7500 -16.7500 Du        
   1322 ****        -7.5000 -17.7500 -16.5000 Du        
   1323 ****        -7.5000 -17.7500 -16.2500 Du        
   1324 ****        -7.5000 -17.5000 -17.5000 Du        
   1325 ****        -7.5000 -17.5000 -17.2500 Du        
   1326 ****        -7.5000 -17.5000 -17.0000 Du        
   1327 ****        -7.5000 -17.5000 -16.7500 Du        
   1328 ****        -7.5000 -17.5000 -16.5000 Du        
   1329 ****        -7.5000 -17.2500 -18.0000 Du        
   1330 ****        -7.5000 -17.2500 -17.7500 Du        
   1331 ****        -7.5000 -17.2500 -17.5000 Du        
   1332 ****        -7.5000 -17.2500 -17.2500 Du        
   1333 ****        -7.5000 -17.2500 -17.0000 Du        
   1334 ****        -7.5000 -17.2500 -16.7500 Du        
   1335 ****        -7.5000 -17.2500 -16.5000 Du        
   1336 ****        -7.5000 -17.0000 -18.2500 Du        
   1337 ****        -7.5000 -17.0000 -18.0000 Du        
   1338 ****        -7.5000 -17.0000 -17.7500 Du        
   1339 ****        -7.5000 -17.0000 -17.5000 Du        
   1340 ****        -7.5000 -17.0000 -17.2500 Du        
   1341 ****        -7.5000 -17.0000 -17.0000 Du        
   1342 ****        -7.5000 -17.0000 -16.7500 Du        
   1343 ****        -7.5000 -16.7500 -18.5000 Du        
   1344 ****        -7.5000 -16.7500 -18.2500 Du        
   1345 ****        -7.5000 -16.7500 -18.0000 Du        
   1346 ****        -7.5000 -16.7500 -17.7500 Du        
   1347 ****        -7.5000 -16.7500 -17.5000 Du        
   1348 ****        -7.5000 -16.7500 -17.2500 Du        
   1349 ****        -7.5000 -16.7500 -17.0000 Du        
   1350 ****        -7.5000 -16.7500 -16.7500 Du        
   1351 ****        -7.5000 -16.5000 -18.5000 Du        
   1352 ****        -7.5000 -16.5000 -18.2500 Du        
   1353 ****        -7.5000 -16.5000 -18.0000 Du        
   1354 ****        -7.5000 -16.5000 -17.7500 Du        
   1355 ****        -7.5000 -16.5000 -17.5000 Du        
   1356 ****        -7.5000 -16.5000 -17.2500 Du        
   1357 ****        -7.5000 -16.5000 -17.0000 Du        
   1358 ****        -7.5000 -16.2500 -18.5000 Du        
   1359 ****        -7.5000 -16.2500 -18.2500 Du        
   1360 ****        -7.5000 -16.2500 -18.0000 Du        
   1361 ****        -7.5000 -16.2500 -17.7500 Du        
   1362 ****        -7.5000 -16.2500 -17.5000 Du        
   1363 ****        -7.5000 -16.2500 -17.2500 Du        
   1364 ****        -7.5000 -16.2500 -17.0000 Du        
   1365 ****        -7.5000 -16.0000 -17.2500 Du        
   1366 ****        -7.5000 -16.0000 -17.0000 Du        
   1367 ****        -7.2500 -29.0000 -15.7500 Du        
   1368 ****        -7.2500 -29.0000 -15.5000 Du        
   1369 ****        -7.2500 -29.0000 -15.2500 Du        
   1370 ****        -7.2500 -29.0000 -15.0000 Du        
   1371 ****        -7.2500 -29.0000 -14.7500 Du        
   1372 ****        -7.2500 -29.0000 -14.5000 Du        
   1373 ****        -7.2500 -29.0000 -14.2500 Du        
   1374 ****        -7.2500 -28.7500 -15.7500 Du        
   1375 ****        -7.2500 -28.7500 -15.5000 Du        
   1376 ****        -7.2500 -28.7500 -15.2500 Du        
   1377 ****        -7.2500 -28.7500 -15.0000 Du        
   1378 ****        -7.2500 -28.7500 -14.7500 Du        
   1379 ****        -7.2500 -28.7500 -14.5000 Du        
   1380 ****        -7.2500 -28.7500 -14.2500 Du        
   1381 ****        -7.2500 -28.7500 -14.0000 Du        
   1382 ****        -7.2500 -28.5000 -15.7500 Du        
   1383 ****        -7.2500 -28.5000 -15.5000 Du        
   1384 ****        -7.2500 -28.5000 -15.2500 Du        
   1385 ****        -7.2500 -28.5000 -15.0000 Du        
   1386 ****        -7.2500 -28.5000 -14.7500 Du        
   1387 ****        -7.2500 -28.5000 -14.5000 Du        
   1388 ****        -7.2500 -28.5000 -14.2500 Du        
   1389 ****        -7.2500 -28.5000 -14.0000 Du        
   1390 ****        -7.2500 -28.2500 -15.7500 Du        
   1391 ****        -7.2500 -28.2500 -15.5000 Du        
   1392 ****        -7.2500 -28.2500 -15.2500 Du        
   1393 ****        -7.2500 -28.2500 -15.0000 Du        
   1394 ****        -7.2500 -28.2500 -14.7500 Du        
   1395 ****        -7.2500 -28.2500 -14.5000 Du        
   1396 ****        -7.2500 -28.2500 -14.2500 Du        
   1397 ****        -7.2500 -28.2500 -14.0000 Du        
   1398 ****        -7.2500 -28.0000 -15.7500 Du        
   1399 ****        -7.2500 -28.0000 -15.5000 Du        
   1400 ****        -7.2500 -28.0000 -15.2500 Du        
   1401 ****        -7.2500 -28.0000 -15.0000 Du        
   1402 ****        -7.2500 -28.0000 -14.7500 Du        
   1403 ****        -7.2500 -28.0000 -14.5000 Du        
   1404 ****        -7.2500 -28.0000 -14.2500 Du        
   1405 ****        -7.2500 -28.0000 -14.0000 Du        
   1406 ****        -7.2500 -28.0000 -13.7500 Du        
   1407 ****        -7.2500 -27.7500 -15.5000 Du        
   1408 ****        -7.2500 -27.7500 -15.2500 Du        
   1409 ****        -7.2500 -27.7500 -15.0000 Du        
   1410 ****        -7.2500 -27.7500 -14.7500 Du        
   1411 ****        -7.2500 -27.7500 -14.5000 Du        
   1412 ****        -7.2500 -27.7500 -14.2500 Du        
   1413 ****        -7.2500 -27.7500 -14.0000 Du        
   1414 ****        -7.2500 -27.7500 -13.7500 Du        
   1415 ****        -7.2500 -27.7500  -9.2500 Du        
   1416 ****        -7.2500 -27.5000 -15.2500 Du        
   1417 ****        -7.2500 -27.5000 -15.0000 Du        
   1418 ****        -7.2500 -27.5000 -14.7500 Du        
   1419 ****        -7.2500 -27.5000 -14.5000 Du        
   1420 ****        -7.2500 -27.5000 -14.2500 Du        
   1421 ****        -7.2500 -27.5000 -14.0000 Du        
   1422 ****        -7.2500 -27.5000 -13.7500 Du        
   1423 ****        -7.2500 -27.5000 -10.0000 Du        
   1424 ****        -7.2500 -27.5000  -9.7500 Du        
   1425 ****        -7.2500 -27.5000  -9.5000 Du        
   1426 ****        -7.2500 -27.5000  -9.2500 Du        
   1427 ****        -7.2500 -27.2500 -15.0000 Du        
   1428 ****        -7.2500 -27.2500 -14.7500 Du        
   1429 ****        -7.2500 -27.2500 -14.5000 Du        
   1430 ****        -7.2500 -27.2500 -14.2500 Du        
   1431 ****        -7.2500 -27.2500 -14.0000 Du        
   1432 ****        -7.2500 -27.2500 -13.7500 Du        
   1433 ****        -7.2500 -27.2500 -13.0000 Du        
   1434 ****        -7.2500 -27.2500 -10.2500 Du        
   1435 ****        -7.2500 -27.2500 -10.0000 Du        
   1436 ****        -7.2500 -27.2500  -9.7500 Du        
   1437 ****        -7.2500 -27.2500  -9.5000 Du        
   1438 ****        -7.2500 -27.2500  -9.2500 Du        
   1439 ****        -7.2500 -27.2500  -9.0000 Du        
   1440 ****        -7.2500 -27.2500  -8.7500 Du        
   1441 ****        -7.2500 -27.0000 -14.7500 Du        
   1442 ****        -7.2500 -27.0000 -14.5000 Du        
   1443 ****        -7.2500 -27.0000 -14.2500 Du        
   1444 ****        -7.2500 -27.0000 -14.0000 Du        
   1445 ****        -7.2500 -27.0000 -13.7500 Du        
   1446 ****        -7.2500 -27.0000 -10.0000 Du        
   1447 ****        -7.2500 -27.0000  -9.7500 Du        
   1448 ****        -7.2500 -27.0000  -9.5000 Du        
   1449 ****        -7.2500 -27.0000  -9.2500 Du        
   1450 ****        -7.2500 -27.0000  -9.0000 Du        
   1451 ****        -7.2500 -27.0000  -8.7500 Du        
   1452 ****        -7.2500 -26.7500 -14.5000 Du        
   1453 ****        -7.2500 -26.7500 -14.2500 Du        
   1454 ****        -7.2500 -26.7500 -14.0000 Du        
   1455 ****        -7.2500 -26.7500 -13.7500 Du        
   1456 ****        -7.2500 -26.7500  -9.7500 Du        
   1457 ****        -7.2500 -26.7500  -9.5000 Du        
   1458 ****        -7.2500 -26.7500  -9.2500 Du        
   1459 ****        -7.2500 -26.7500  -9.0000 Du        
   1460 ****        -7.2500 -26.7500  -8.7500 Du        
   1461 ****        -7.2500 -26.7500  -8.5000 Du        
   1462 ****        -7.2500 -26.7500  -8.2500 Du        
   1463 ****        -7.2500 -26.5000  -9.5000 Du        
   1464 ****        -7.2500 -26.5000  -9.2500 Du        
   1465 ****        -7.2500 -26.5000  -9.0000 Du        
   1466 ****        -7.2500 -26.5000  -8.7500 Du        
   1467 ****        -7.2500 -26.5000  -8.5000 Du        
   1468 ****        -7.2500 -26.5000  -8.2500 Du        
   1469 ****        -7.2500 -26.2500  -9.2500 Du        
   1470 ****        -7.2500 -26.2500  -9.0000 Du        
   1471 ****        -7.2500 -26.2500  -8.7500 Du        
   1472 ****        -7.2500 -26.2500  -8.5000 Du        
   1473 ****        -7.2500 -26.2500  -8.2500 Du        
   1474 ****        -7.2500 -26.0000  -9.0000 Du        
   1475 ****        -7.2500 -26.0000  -8.7500 Du        
   1476 ****        -7.2500 -20.0000 -16.2500 Du        
   1477 ****        -7.2500 -20.0000 -16.0000 Du        
   1478 ****        -7.2500 -19.7500 -16.2500 Du        
   1479 ****        -7.2500 -19.7500 -16.0000 Du        
   1480 ****        -7.2500 -19.7500 -15.7500 Du        
   1481 ****        -7.2500 -19.5000 -16.5000 Du        
   1482 ****        -7.2500 -19.5000 -16.2500 Du        
   1483 ****        -7.2500 -19.5000 -16.0000 Du        
   1484 ****        -7.2500 -19.5000 -15.7500 Du        
   1485 ****        -7.2500 -19.2500 -16.5000 Du        
   1486 ****        -7.2500 -19.2500 -16.2500 Du        
   1487 ****        -7.2500 -19.2500 -16.0000 Du        
   1488 ****        -7.2500 -19.2500 -15.7500 Du        
   1489 ****        -7.2500 -19.0000 -16.5000 Du        
   1490 ****        -7.2500 -19.0000 -16.2500 Du        
   1491 ****        -7.2500 -19.0000 -16.0000 Du        
   1492 ****        -7.2500 -19.0000 -15.7500 Du        
   1493 ****        -7.2500 -19.0000 -15.5000 Du        
   1494 ****        -7.2500 -18.7500 -16.7500 Du        
   1495 ****        -7.2500 -18.7500 -16.5000 Du        
   1496 ****        -7.2500 -18.7500 -16.2500 Du        
   1497 ****        -7.2500 -18.7500 -16.0000 Du        
   1498 ****        -7.2500 -18.7500 -15.7500 Du        
   1499 ****        -7.2500 -18.7500 -15.5000 Du        
   1500 ****        -7.2500 -18.5000 -16.7500 Du        
   1501 ****        -7.2500 -18.5000 -16.5000 Du        
   1502 ****        -7.2500 -18.5000 -16.2500 Du        
   1503 ****        -7.2500 -18.5000 -16.0000 Du        
   1504 ****        -7.2500 -18.5000 -15.7500 Du        
   1505 ****        -7.2500 -18.2500 -17.0000 Du        
   1506 ****        -7.2500 -18.2500 -16.7500 Du        
   1507 ****        -7.2500 -18.2500 -16.5000 Du        
   1508 ****        -7.2500 -18.2500 -16.2500 Du        
   1509 ****        -7.2500 -18.2500 -16.0000 Du        
   1510 ****        -7.2500 -18.0000 -17.2500 Du        
   1511 ****        -7.2500 -18.0000 -17.0000 Du        
   1512 ****        -7.2500 -18.0000 -16.7500 Du        
   1513 ****        -7.2500 -18.0000 -16.5000 Du        
   1514 ****        -7.2500 -18.0000 -16.2500 Du        
   1515 ****        -7.2500 -17.7500 -17.5000 Du        
   1516 ****        -7.2500 -17.7500 -17.2500 Du        
   1517 ****        -7.2500 -17.7500 -17.0000 Du        
   1518 ****        -7.2500 -17.7500 -16.7500 Du        
   1519 ****        -7.2500 -17.7500 -16.5000 Du        
   1520 ****        -7.2500 -17.5000 -17.7500 Du        
   1521 ****        -7.2500 -17.5000 -17.5000 Du        
   1522 ****        -7.2500 -17.5000 -17.2500 Du        
   1523 ****        -7.2500 -17.5000 -17.0000 Du        
   1524 ****        -7.2500 -17.5000 -16.7500 Du        
   1525 ****        -7.2500 -17.2500 -18.0000 Du        
   1526 ****        -7.2500 -17.2500 -17.7500 Du        
   1527 ****        -7.2500 -17.2500 -17.5000 Du        
   1528 ****        -7.2500 -17.2500 -17.2500 Du        
   1529 ****        -7.2500 -17.2500 -17.0000 Du        
   1530 ****        -7.2500 -17.2500 -16.7500 Du        
   1531 ****        -7.2500 -17.0000 -18.5000 Du        
   1532 ****        -7.2500 -17.0000 -18.2500 Du        
   1533 ****        -7.2500 -17.0000 -18.0000 Du        
   1534 ****        -7.2500 -17.0000 -17.7500 Du        
   1535 ****        -7.2500 -17.0000 -17.5000 Du        
   1536 ****        -7.2500 -17.0000 -17.2500 Du        
   1537 ****        -7.2500 -17.0000 -17.0000 Du        
   1538 ****        -7.2500 -17.0000 -16.7500 Du        
   1539 ****        -7.2500 -16.7500 -18.5000 Du        
   1540 ****        -7.2500 -16.7500 -18.2500 Du        
   1541 ****        -7.2500 -16.7500 -18.0000 Du        
   1542 ****        -7.2500 -16.7500 -17.7500 Du        
   1543 ****        -7.2500 -16.7500 -17.5000 Du        
   1544 ****        -7.2500 -16.7500 -17.2500 Du        
   1545 ****        -7.2500 -16.7500 -17.0000 Du        
   1546 ****        -7.2500 -16.5000 -18.5000 Du        
   1547 ****        -7.2500 -16.5000 -18.2500 Du        
   1548 ****        -7.2500 -16.5000 -18.0000 Du        
   1549 ****        -7.2500 -16.5000 -17.7500 Du        
   1550 ****        -7.2500 -16.5000 -17.5000 Du        
   1551 ****        -7.2500 -16.5000 -17.2500 Du        
   1552 ****        -7.2500 -16.5000 -17.0000 Du        
   1553 ****        -7.2500 -16.2500 -18.5000 Du        
   1554 ****        -7.2500 -16.2500 -18.2500 Du        
   1555 ****        -7.2500 -16.2500 -18.0000 Du        
   1556 ****        -7.2500 -16.2500 -17.7500 Du        
   1557 ****        -7.2500 -16.2500 -17.5000 Du        
   1558 ****        -7.2500 -16.2500 -17.2500 Du        
   1559 ****        -7.2500 -16.2500 -17.0000 Du        
   1560 ****        -7.0000 -29.2500 -15.7500 Du        
   1561 ****        -7.0000 -29.2500 -15.5000 Du        
   1562 ****        -7.0000 -29.2500 -15.2500 Du        
   1563 ****        -7.0000 -29.2500 -15.0000 Du        
   1564 ****        -7.0000 -29.2500 -14.7500 Du        
   1565 ****        -7.0000 -29.0000 -16.0000 Du        
   1566 ****        -7.0000 -29.0000 -15.7500 Du        
   1567 ****        -7.0000 -29.0000 -15.5000 Du        
   1568 ****        -7.0000 -29.0000 -15.2500 Du        
   1569 ****        -7.0000 -29.0000 -15.0000 Du        
   1570 ****        -7.0000 -29.0000 -14.7500 Du        
   1571 ****        -7.0000 -29.0000 -14.5000 Du        
   1572 ****        -7.0000 -29.0000 -14.2500 Du        
   1573 ****        -7.0000 -29.0000 -14.0000 Du        
   1574 ****        -7.0000 -28.7500 -15.7500 Du        
   1575 ****        -7.0000 -28.7500 -15.5000 Du        
   1576 ****        -7.0000 -28.7500 -15.2500 Du        
   1577 ****        -7.0000 -28.7500 -15.0000 Du        
   1578 ****        -7.0000 -28.7500 -14.7500 Du        
   1579 ****        -7.0000 -28.7500 -14.5000 Du        
   1580 ****        -7.0000 -28.7500 -14.2500 Du        
   1581 ****        -7.0000 -28.7500 -14.0000 Du        
   1582 ****        -7.0000 -28.5000 -15.7500 Du        
   1583 ****        -7.0000 -28.5000 -15.5000 Du        
   1584 ****        -7.0000 -28.5000 -15.2500 Du        
   1585 ****        -7.0000 -28.5000 -15.0000 Du        
   1586 ****        -7.0000 -28.5000 -14.7500 Du        
   1587 ****        -7.0000 -28.5000 -14.5000 Du        
   1588 ****        -7.0000 -28.5000 -14.2500 Du        
   1589 ****        -7.0000 -28.5000 -14.0000 Du        
   1590 ****        -7.0000 -28.2500 -15.7500 Du        
   1591 ****        -7.0000 -28.2500 -15.5000 Du        
   1592 ****        -7.0000 -28.2500 -15.2500 Du        
   1593 ****        -7.0000 -28.2500 -15.0000 Du        
   1594 ****        -7.0000 -28.2500 -14.7500 Du        
   1595 ****        -7.0000 -28.2500 -14.5000 Du        
   1596 ****        -7.0000 -28.2500 -14.2500 Du        
   1597 ****        -7.0000 -28.2500 -14.0000 Du        
   1598 ****        -7.0000 -28.0000 -15.5000 Du        
   1599 ****        -7.0000 -28.0000 -15.2500 Du        
   1600 ****        -7.0000 -28.0000 -15.0000 Du        
   1601 ****        -7.0000 -28.0000 -14.7500 Du        
   1602 ****        -7.0000 -28.0000 -14.5000 Du        
   1603 ****        -7.0000 -28.0000 -14.2500 Du        
   1604 ****        -7.0000 -28.0000 -14.0000 Du        
   1605 ****        -7.0000 -28.0000 -13.7500 Du        
   1606 ****        -7.0000 -28.0000  -9.0000 Du        
   1607 ****        -7.0000 -28.0000  -8.7500 Du        
   1608 ****        -7.0000 -27.7500 -15.2500 Du        
   1609 ****        -7.0000 -27.7500 -15.0000 Du        
   1610 ****        -7.0000 -27.7500 -14.7500 Du        
   1611 ****        -7.0000 -27.7500 -14.5000 Du        
   1612 ****        -7.0000 -27.7500 -14.2500 Du        
   1613 ****        -7.0000 -27.7500 -14.0000 Du        
   1614 ****        -7.0000 -27.7500 -13.7500 Du        
   1615 ****        -7.0000 -27.7500  -9.5000 Du        
   1616 ****        -7.0000 -27.7500  -9.2500 Du        
   1617 ****        -7.0000 -27.7500  -9.0000 Du        
   1618 ****        -7.0000 -27.7500  -8.7500 Du        
   1619 ****        -7.0000 -27.7500  -8.5000 Du        
   1620 ****        -7.0000 -27.7500  -8.2500 Du        
   1621 ****        -7.0000 -27.5000 -15.2500 Du        
   1622 ****        -7.0000 -27.5000 -15.0000 Du        
   1623 ****        -7.0000 -27.5000 -14.7500 Du        
   1624 ****        -7.0000 -27.5000 -14.5000 Du        
   1625 ****        -7.0000 -27.5000 -14.2500 Du        
   1626 ****        -7.0000 -27.5000 -14.0000 Du        
   1627 ****        -7.0000 -27.5000 -13.7500 Du        
   1628 ****        -7.0000 -27.5000 -10.0000 Du        
   1629 ****        -7.0000 -27.5000  -9.7500 Du        
   1630 ****        -7.0000 -27.5000  -9.5000 Du        
   1631 ****        -7.0000 -27.5000  -9.2500 Du        
   1632 ****        -7.0000 -27.5000  -9.0000 Du        
   1633 ****        -7.0000 -27.5000  -8.7500 Du        
   1634 ****        -7.0000 -27.5000  -8.5000 Du        
   1635 ****        -7.0000 -27.5000  -8.2500 Du        
   1636 ****        -7.0000 -27.2500 -15.0000 Du        
   1637 ****        -7.0000 -27.2500 -14.7500 Du        
   1638 ****        -7.0000 -27.2500 -14.5000 Du        
   1639 ****        -7.0000 -27.2500 -14.2500 Du        
   1640 ****        -7.0000 -27.2500 -14.0000 Du        
   1641 ****        -7.0000 -27.2500 -13.7500 Du        
   1642 ****        -7.0000 -27.2500 -13.5000 Du        
   1643 ****        -7.0000 -27.2500 -13.2500 Du        
   1644 ****        -7.0000 -27.2500 -13.0000 Du        
   1645 ****        -7.0000 -27.2500 -10.2500 Du        
   1646 ****        -7.0000 -27.2500 -10.0000 Du        
   1647 ****        -7.0000 -27.2500  -9.7500 Du        
   1648 ****        -7.0000 -27.2500  -9.5000 Du        
   1649 ****        -7.0000 -27.2500  -9.2500 Du        
   1650 ****        -7.0000 -27.2500  -9.0000 Du        
   1651 ****        -7.0000 -27.2500  -8.7500 Du        
   1652 ****        -7.0000 -27.2500  -8.5000 Du        
   1653 ****        -7.0000 -27.2500  -8.2500 Du        
   1654 ****        -7.0000 -27.0000 -14.7500 Du        
   1655 ****        -7.0000 -27.0000 -14.5000 Du        
   1656 ****        -7.0000 -27.0000 -14.2500 Du        
   1657 ****        -7.0000 -27.0000 -14.0000 Du        
   1658 ****        -7.0000 -27.0000 -13.7500 Du        
   1659 ****        -7.0000 -27.0000 -13.2500 Du        
   1660 ****        -7.0000 -27.0000 -10.2500 Du        
   1661 ****        -7.0000 -27.0000 -10.0000 Du        
   1662 ****        -7.0000 -27.0000  -9.7500 Du        
   1663 ****        -7.0000 -27.0000  -9.5000 Du        
   1664 ****        -7.0000 -27.0000  -9.2500 Du        
   1665 ****        -7.0000 -27.0000  -9.0000 Du        
   1666 ****        -7.0000 -27.0000  -8.7500 Du        
   1667 ****        -7.0000 -27.0000  -8.5000 Du        
   1668 ****        -7.0000 -27.0000  -8.2500 Du        
   1669 ****        -7.0000 -26.7500 -14.5000 Du        
   1670 ****        -7.0000 -26.7500 -14.2500 Du        
   1671 ****        -7.0000 -26.7500 -14.0000 Du        
   1672 ****        -7.0000 -26.7500 -13.7500 Du        
   1673 ****        -7.0000 -26.7500 -10.0000 Du        
   1674 ****        -7.0000 -26.7500  -9.7500 Du        
   1675 ****        -7.0000 -26.7500  -9.5000 Du        
   1676 ****        -7.0000 -26.7500  -9.2500 Du        
   1677 ****        -7.0000 -26.7500  -9.0000 Du        
   1678 ****        -7.0000 -26.7500  -8.7500 Du        
   1679 ****        -7.0000 -26.7500  -8.5000 Du        
   1680 ****        -7.0000 -26.7500  -8.2500 Du        
   1681 ****        -7.0000 -26.7500  -8.0000 Du        
   1682 ****        -7.0000 -26.7500  -7.7500 Du        
   1683 ****        -7.0000 -26.5000  -9.7500 Du        
   1684 ****        -7.0000 -26.5000  -9.5000 Du        
   1685 ****        -7.0000 -26.5000  -9.2500 Du        
   1686 ****        -7.0000 -26.5000  -9.0000 Du        
   1687 ****        -7.0000 -26.5000  -8.7500 Du        
   1688 ****        -7.0000 -26.5000  -8.5000 Du        
   1689 ****        -7.0000 -26.5000  -8.2500 Du        
   1690 ****        -7.0000 -26.5000  -8.0000 Du        
   1691 ****        -7.0000 -26.2500  -9.5000 Du        
   1692 ****        -7.0000 -26.2500  -9.2500 Du        
   1693 ****        -7.0000 -26.2500  -9.0000 Du        
   1694 ****        -7.0000 -26.2500  -8.7500 Du        
   1695 ****        -7.0000 -26.2500  -8.5000 Du        
   1696 ****        -7.0000 -26.2500  -8.2500 Du        
   1697 ****        -7.0000 -26.0000  -9.2500 Du        
   1698 ****        -7.0000 -26.0000  -9.0000 Du        
   1699 ****        -7.0000 -26.0000  -8.7500 Du        
   1700 ****        -7.0000 -26.0000  -8.5000 Du        
   1701 ****        -7.0000 -19.5000 -16.0000 Du        
   1702 ****        -7.0000 -19.2500 -16.2500 Du        
   1703 ****        -7.0000 -19.2500 -16.0000 Du        
   1704 ****        -7.0000 -19.2500 -15.7500 Du        
   1705 ****        -7.0000 -19.0000 -16.5000 Du        
   1706 ****        -7.0000 -19.0000 -16.2500 Du        
   1707 ****        -7.0000 -19.0000 -16.0000 Du        
   1708 ****        -7.0000 -19.0000 -15.7500 Du        
   1709 ****        -7.0000 -18.7500 -16.5000 Du        
   1710 ****        -7.0000 -18.7500 -16.2500 Du        
   1711 ****        -7.0000 -18.7500 -16.0000 Du        
   1712 ****        -7.0000 -18.7500 -15.7500 Du        
   1713 ****        -7.0000 -18.5000 -16.7500 Du        
   1714 ****        -7.0000 -18.5000 -16.5000 Du        
   1715 ****        -7.0000 -18.5000 -16.2500 Du        
   1716 ****        -7.0000 -18.5000 -16.0000 Du        
   1717 ****        -7.0000 -18.2500 -17.0000 Du        
   1718 ****        -7.0000 -18.2500 -16.7500 Du        
   1719 ****        -7.0000 -18.2500 -16.5000 Du        
   1720 ****        -7.0000 -18.2500 -16.2500 Du        
   1721 ****        -7.0000 -18.0000 -17.2500 Du        
   1722 ****        -7.0000 -18.0000 -17.0000 Du        
   1723 ****        -7.0000 -18.0000 -16.7500 Du        
   1724 ****        -7.0000 -18.0000 -16.5000 Du        
   1725 ****        -7.0000 -17.7500 -17.5000 Du        
   1726 ****        -7.0000 -17.7500 -17.2500 Du        
   1727 ****        -7.0000 -17.7500 -17.0000 Du        
   1728 ****        -7.0000 -17.7500 -16.7500 Du        
   1729 ****        -7.0000 -17.7500 -16.5000 Du        
   1730 ****        -7.0000 -17.5000 -17.5000 Du        
   1731 ****        -7.0000 -17.5000 -17.2500 Du        
   1732 ****        -7.0000 -17.5000 -17.0000 Du        
   1733 ****        -7.0000 -17.5000 -16.7500 Du        
   1734 ****        -7.0000 -17.2500 -18.0000 Du        
   1735 ****        -7.0000 -17.2500 -17.7500 Du        
   1736 ****        -7.0000 -17.2500 -17.5000 Du        
   1737 ****        -7.0000 -17.2500 -17.2500 Du        
   1738 ****        -7.0000 -17.2500 -17.0000 Du        
   1739 ****        -7.0000 -17.0000 -18.5000 Du        
   1740 ****        -7.0000 -17.0000 -18.2500 Du        
   1741 ****        -7.0000 -17.0000 -18.0000 Du        
   1742 ****        -7.0000 -17.0000 -17.7500 Du        
   1743 ****        -7.0000 -17.0000 -17.5000 Du        
   1744 ****        -7.0000 -17.0000 -17.2500 Du        
   1745 ****        -7.0000 -17.0000 -17.0000 Du        
   1746 ****        -7.0000 -16.7500 -19.0000 Du        
   1747 ****        -7.0000 -16.7500 -18.7500 Du        
   1748 ****        -7.0000 -16.7500 -18.5000 Du        
   1749 ****        -7.0000 -16.7500 -18.2500 Du        
   1750 ****        -7.0000 -16.7500 -18.0000 Du        
   1751 ****        -7.0000 -16.7500 -17.7500 Du        
   1752 ****        -7.0000 -16.7500 -17.5000 Du        
   1753 ****        -7.0000 -16.7500 -17.2500 Du        
   1754 ****        -7.0000 -16.7500 -17.0000 Du        
   1755 ****        -7.0000 -16.5000 -18.5000 Du        
   1756 ****        -7.0000 -16.5000 -18.2500 Du        
   1757 ****        -7.0000 -16.5000 -18.0000 Du        
   1758 ****        -7.0000 -16.5000 -17.7500 Du        
   1759 ****        -7.0000 -16.5000 -17.5000 Du        
   1760 ****        -7.0000 -16.2500 -17.2500 Du        
   1761 ****        -6.7500 -29.7500 -16.0000 Du        
   1762 ****        -6.7500 -29.7500 -15.7500 Du        
   1763 ****        -6.7500 -29.7500 -15.5000 Du        
   1764 ****        -6.7500 -29.7500 -15.2500 Du        
   1765 ****        -6.7500 -29.7500 -15.0000 Du        
   1766 ****        -6.7500 -29.5000 -16.0000 Du        
   1767 ****        -6.7500 -29.5000 -15.7500 Du        
   1768 ****        -6.7500 -29.5000 -15.5000 Du        
   1769 ****        -6.7500 -29.5000 -15.2500 Du        
   1770 ****        -6.7500 -29.5000 -15.0000 Du        
   1771 ****        -6.7500 -29.5000 -14.7500 Du        
   1772 ****        -6.7500 -29.2500 -15.7500 Du        
   1773 ****        -6.7500 -29.2500 -15.5000 Du        
   1774 ****        -6.7500 -29.2500 -15.2500 Du        
   1775 ****        -6.7500 -29.2500 -15.0000 Du        
   1776 ****        -6.7500 -29.2500 -14.7500 Du        
   1777 ****        -6.7500 -29.2500 -14.5000 Du        
   1778 ****        -6.7500 -29.0000 -15.7500 Du        
   1779 ****        -6.7500 -29.0000 -15.5000 Du        
   1780 ****        -6.7500 -29.0000 -15.2500 Du        
   1781 ****        -6.7500 -29.0000 -15.0000 Du        
   1782 ****        -6.7500 -29.0000 -14.7500 Du        
   1783 ****        -6.7500 -29.0000 -14.5000 Du        
   1784 ****        -6.7500 -29.0000 -14.2500 Du        
   1785 ****        -6.7500 -28.7500 -15.7500 Du        
   1786 ****        -6.7500 -28.7500 -15.5000 Du        
   1787 ****        -6.7500 -28.7500 -15.2500 Du        
   1788 ****        -6.7500 -28.7500 -15.0000 Du        
   1789 ****        -6.7500 -28.7500 -14.7500 Du        
   1790 ****        -6.7500 -28.7500 -14.5000 Du        
   1791 ****        -6.7500 -28.7500 -14.2500 Du        
   1792 ****        -6.7500 -28.5000 -15.5000 Du        
   1793 ****        -6.7500 -28.5000 -15.2500 Du        
   1794 ****        -6.7500 -28.5000 -15.0000 Du        
   1795 ****        -6.7500 -28.5000 -14.7500 Du        
   1796 ****        -6.7500 -28.5000 -14.5000 Du        
   1797 ****        -6.7500 -28.5000 -14.2500 Du        
   1798 ****        -6.7500 -28.5000 -14.0000 Du        
   1799 ****        -6.7500 -28.2500 -15.5000 Du        
   1800 ****        -6.7500 -28.2500 -15.2500 Du        
   1801 ****        -6.7500 -28.2500 -15.0000 Du        
   1802 ****        -6.7500 -28.2500 -14.7500 Du        
   1803 ****        -6.7500 -28.2500 -14.5000 Du        
   1804 ****        -6.7500 -28.2500 -14.2500 Du        
   1805 ****        -6.7500 -28.2500 -14.0000 Du        
   1806 ****        -6.7500 -28.0000 -15.2500 Du        
   1807 ****        -6.7500 -28.0000 -15.0000 Du        
   1808 ****        -6.7500 -28.0000 -14.7500 Du        
   1809 ****        -6.7500 -28.0000 -14.5000 Du        
   1810 ****        -6.7500 -28.0000 -14.2500 Du        
   1811 ****        -6.7500 -28.0000 -14.0000 Du        
   1812 ****        -6.7500 -27.7500 -15.2500 Du        
   1813 ****        -6.7500 -27.7500 -15.0000 Du        
   1814 ****        -6.7500 -27.7500 -14.7500 Du        
   1815 ****        -6.7500 -27.7500 -14.5000 Du        
   1816 ****        -6.7500 -27.7500 -14.2500 Du        
   1817 ****        -6.7500 -27.7500 -14.0000 Du        
   1818 ****        -6.7500 -27.5000 -15.0000 Du        
   1819 ****        -6.7500 -27.5000 -14.7500 Du        
   1820 ****        -6.7500 -27.5000 -14.5000 Du        
   1821 ****        -6.7500 -27.5000 -14.2500 Du        
   1822 ****        -6.7500 -27.5000 -14.0000 Du        
   1823 ****        -6.7500 -27.5000 -13.7500 Du        
   1824 ****        -6.7500 -27.5000  -8.5000 Du        
   1825 ****        -6.7500 -27.5000  -8.2500 Du        
   1826 ****        -6.7500 -27.2500 -14.7500 Du        
   1827 ****        -6.7500 -27.2500 -14.5000 Du        
   1828 ****        -6.7500 -27.2500 -14.2500 Du        
   1829 ****        -6.7500 -27.2500 -14.0000 Du        
   1830 ****        -6.7500 -27.2500 -13.7500 Du        
   1831 ****        -6.7500 -27.2500 -13.5000 Du        
   1832 ****        -6.7500 -27.2500 -13.2500 Du        
   1833 ****        -6.7500 -27.2500 -10.0000 Du        
   1834 ****        -6.7500 -27.2500  -9.7500 Du        
   1835 ****        -6.7500 -27.2500  -9.5000 Du        
   1836 ****        -6.7500 -27.2500  -9.2500 Du        
   1837 ****        -6.7500 -27.2500  -9.0000 Du        
   1838 ****        -6.7500 -27.2500  -8.7500 Du        
   1839 ****        -6.7500 -27.2500  -8.5000 Du        
   1840 ****        -6.7500 -27.2500  -8.2500 Du        
   1841 ****        -6.7500 -27.0000 -14.7500 Du        
   1842 ****        -6.7500 -27.0000 -14.5000 Du        
   1843 ****        -6.7500 -27.0000 -14.2500 Du        
   1844 ****        -6.7500 -27.0000 -14.0000 Du        
   1845 ****        -6.7500 -27.0000 -13.7500 Du        
   1846 ****        -6.7500 -27.0000 -13.5000 Du        
   1847 ****        -6.7500 -27.0000 -13.0000 Du        
   1848 ****        -6.7500 -27.0000 -10.0000 Du        
   1849 ****        -6.7500 -27.0000  -9.7500 Du        
   1850 ****        -6.7500 -27.0000  -9.5000 Du        
   1851 ****        -6.7500 -27.0000  -9.2500 Du        
   1852 ****        -6.7500 -27.0000  -9.0000 Du        
   1853 ****        -6.7500 -27.0000  -8.7500 Du        
   1854 ****        -6.7500 -27.0000  -8.5000 Du        
   1855 ****        -6.7500 -27.0000  -8.2500 Du        
   1856 ****        -6.7500 -26.7500 -14.5000 Du        
   1857 ****        -6.7500 -26.7500 -14.2500 Du        
   1858 ****        -6.7500 -26.7500 -14.0000 Du        
   1859 ****        -6.7500 -26.7500 -13.7500 Du        
   1860 ****        -6.7500 -26.7500 -13.5000 Du        
   1861 ****        -6.7500 -26.7500 -13.2500 Du        
   1862 ****        -6.7500 -26.7500  -9.7500 Du        
   1863 ****        -6.7500 -26.7500  -9.5000 Du        
   1864 ****        -6.7500 -26.7500  -9.2500 Du        
   1865 ****        -6.7500 -26.7500  -9.0000 Du        
   1866 ****        -6.7500 -26.7500  -8.7500 Du        
   1867 ****        -6.7500 -26.7500  -8.5000 Du        
   1868 ****        -6.7500 -26.7500  -8.2500 Du        
   1869 ****        -6.7500 -26.7500  -8.0000 Du        
   1870 ****        -6.7500 -26.5000 -14.2500 Du        
   1871 ****        -6.7500 -26.5000 -14.0000 Du        
   1872 ****        -6.7500 -26.5000  -9.7500 Du        
   1873 ****        -6.7500 -26.5000  -9.5000 Du        
   1874 ****        -6.7500 -26.5000  -9.2500 Du        
   1875 ****        -6.7500 -26.5000  -9.0000 Du        
   1876 ****        -6.7500 -26.5000  -8.7500 Du        
   1877 ****        -6.7500 -26.5000  -8.5000 Du        
   1878 ****        -6.7500 -26.5000  -8.2500 Du        
   1879 ****        -6.7500 -26.5000  -8.0000 Du        
   1880 ****        -6.7500 -26.2500  -9.5000 Du        
   1881 ****        -6.7500 -26.2500  -9.2500 Du        
   1882 ****        -6.7500 -26.2500  -9.0000 Du        
   1883 ****        -6.7500 -26.2500  -8.7500 Du        
   1884 ****        -6.7500 -26.2500  -8.5000 Du        
   1885 ****        -6.7500 -26.2500  -8.2500 Du        
   1886 ****        -6.7500 -26.0000  -9.2500 Du        
   1887 ****        -6.7500 -26.0000  -9.0000 Du        
   1888 ****        -6.7500 -26.0000  -8.7500 Du        
   1889 ****        -6.7500 -26.0000  -8.5000 Du        
   1890 ****        -6.7500 -26.0000  -8.2500 Du        
   1891 ****        -6.7500 -25.7500  -9.0000 Du        
   1892 ****        -6.7500 -25.7500  -8.7500 Du        
   1893 ****        -6.7500 -18.7500 -16.2500 Du        
   1894 ****        -6.7500 -18.7500 -16.0000 Du        
   1895 ****        -6.7500 -18.5000 -16.5000 Du        
   1896 ****        -6.7500 -18.5000 -16.2500 Du        
   1897 ****        -6.7500 -18.2500 -16.7500 Du        
   1898 ****        -6.7500 -18.2500 -16.5000 Du        
   1899 ****        -6.7500 -18.0000 -17.0000 Du        
   1900 ****        -6.7500 -18.0000 -16.7500 Du        
   1901 ****        -6.7500 -17.7500 -17.2500 Du        
   1902 ****        -6.7500 -17.7500 -17.0000 Du        
   1903 ****        -6.7500 -17.7500 -16.7500 Du        
   1904 ****        -6.7500 -17.5000 -17.5000 Du        
   1905 ****        -6.7500 -17.5000 -17.2500 Du        
   1906 ****        -6.7500 -17.5000 -17.0000 Du        
   1907 ****        -6.7500 -17.2500 -18.0000 Du        
   1908 ****        -6.7500 -17.2500 -17.7500 Du        
   1909 ****        -6.7500 -17.2500 -17.5000 Du        
   1910 ****        -6.7500 -17.2500 -17.2500 Du        
   1911 ****        -6.7500 -17.2500 -17.0000 Du        
   1912 ****        -6.7500 -17.0000 -18.5000 Du        
   1913 ****        -6.7500 -17.0000 -18.2500 Du        
   1914 ****        -6.7500 -17.0000 -18.0000 Du        
   1915 ****        -6.7500 -17.0000 -17.7500 Du        
   1916 ****        -6.7500 -17.0000 -17.5000 Du        
   1917 ****        -6.7500 -17.0000 -17.2500 Du        
   1918 ****        -6.7500 -17.0000 -17.0000 Du        
   1919 ****        -6.7500 -16.7500 -18.5000 Du        
   1920 ****        -6.7500 -16.7500 -18.2500 Du        
   1921 ****        -6.7500 -16.7500 -18.0000 Du        
   1922 ****        -6.7500 -16.7500 -17.7500 Du        
   1923 ****        -6.7500 -16.7500 -17.5000 Du        
   1924 ****        -6.7500 -16.7500 -17.2500 Du        
   1925 ****        -6.5000 -30.2500 -15.7500 Du        
   1926 ****        -6.5000 -30.0000 -16.0000 Du        
   1927 ****        -6.5000 -30.0000 -15.7500 Du        
   1928 ****        -6.5000 -30.0000 -15.5000 Du        
   1929 ****        -6.5000 -30.0000 -15.2500 Du        
   1930 ****        -6.5000 -30.0000 -15.0000 Du        
   1931 ****        -6.5000 -30.0000 -14.7500 Du        
   1932 ****        -6.5000 -29.7500 -16.0000 Du        
   1933 ****        -6.5000 -29.7500 -15.7500 Du        
   1934 ****        -6.5000 -29.7500 -15.5000 Du        
   1935 ****        -6.5000 -29.7500 -15.2500 Du        
   1936 ****        -6.5000 -29.7500 -15.0000 Du        
   1937 ****        -6.5000 -29.7500 -14.7500 Du        
   1938 ****        -6.5000 -29.5000 -16.0000 Du        
   1939 ****        -6.5000 -29.5000 -15.7500 Du        
   1940 ****        -6.5000 -29.5000 -15.5000 Du        
   1941 ****        -6.5000 -29.5000 -15.2500 Du        
   1942 ****        -6.5000 -29.5000 -15.0000 Du        
   1943 ****        -6.5000 -29.5000 -14.7500 Du        
   1944 ****        -6.5000 -29.2500 -15.7500 Du        
   1945 ****        -6.5000 -29.2500 -15.5000 Du        
   1946 ****        -6.5000 -29.2500 -15.2500 Du        
   1947 ****        -6.5000 -29.2500 -15.0000 Du        
   1948 ****        -6.5000 -29.2500 -14.7500 Du        
   1949 ****        -6.5000 -29.0000 -15.5000 Du        
   1950 ****        -6.5000 -29.0000 -15.2500 Du        
   1951 ****        -6.5000 -29.0000 -15.0000 Du        
   1952 ****        -6.5000 -29.0000 -14.7500 Du        
   1953 ****        -6.5000 -28.7500 -15.5000 Du        
   1954 ****        -6.5000 -28.7500 -15.2500 Du        
   1955 ****        -6.5000 -28.7500 -15.0000 Du        
   1956 ****        -6.5000 -28.7500 -14.7500 Du        
   1957 ****        -6.5000 -28.7500 -14.5000 Du        
   1958 ****        -6.5000 -28.5000 -15.2500 Du        
   1959 ****        -6.5000 -28.5000 -15.0000 Du        
   1960 ****        -6.5000 -28.5000 -14.7500 Du        
   1961 ****        -6.5000 -28.5000 -14.5000 Du        
   1962 ****        -6.5000 -28.2500 -15.2500 Du        
   1963 ****        -6.5000 -28.2500 -15.0000 Du        
   1964 ****        -6.5000 -28.2500 -14.7500 Du        
   1965 ****        -6.5000 -28.2500 -14.5000 Du        
   1966 ****        -6.5000 -28.0000 -15.2500 Du        
   1967 ****        -6.5000 -28.0000 -15.0000 Du        
   1968 ****        -6.5000 -28.0000 -14.7500 Du        
   1969 ****        -6.5000 -28.0000 -14.5000 Du        
   1970 ****        -6.5000 -28.0000 -14.2500 Du        
   1971 ****        -6.5000 -28.0000 -14.0000 Du        
   1972 ****        -6.5000 -28.0000 -13.7500 Du        
   1973 ****        -6.5000 -27.7500 -15.2500 Du        
   1974 ****        -6.5000 -27.7500 -15.0000 Du        
   1975 ****        -6.5000 -27.7500 -14.7500 Du        
   1976 ****        -6.5000 -27.7500 -14.5000 Du        
   1977 ****        -6.5000 -27.7500 -14.2500 Du        
   1978 ****        -6.5000 -27.7500 -14.0000 Du        
   1979 ****        -6.5000 -27.7500 -13.7500 Du        
   1980 ****        -6.5000 -27.5000 -15.0000 Du        
   1981 ****        -6.5000 -27.5000 -14.7500 Du        
   1982 ****        -6.5000 -27.5000 -14.5000 Du        
   1983 ****        -6.5000 -27.5000 -14.2500 Du        
   1984 ****        -6.5000 -27.5000 -14.0000 Du        
   1985 ****        -6.5000 -27.2500 -14.7500 Du        
   1986 ****        -6.5000 -27.2500 -14.5000 Du        
   1987 ****        -6.5000 -27.2500 -14.2500 Du        
   1988 ****        -6.5000 -27.2500 -14.0000 Du        
   1989 ****        -6.5000 -27.2500 -13.7500 Du        
   1990 ****        -6.5000 -27.0000 -14.7500 Du        
   1991 ****        -6.5000 -27.0000 -14.5000 Du        
   1992 ****        -6.5000 -27.0000 -14.2500 Du        
   1993 ****        -6.5000 -27.0000 -14.0000 Du        
   1994 ****        -6.5000 -27.0000 -13.7500 Du        
   1995 ****        -6.5000 -26.7500 -14.2500 Du        
   1996 ****        -6.5000 -26.7500 -14.0000 Du        
   1997 ****        -6.5000 -26.7500 -13.7500 Du        
   1998 ****        -6.5000 -26.5000 -14.0000 Du        
   1999 ****        -6.5000 -26.5000 -13.7500 Du        
   2000 ****        -6.5000 -26.5000  -9.2500 Du        
   2001 ****        -6.5000 -26.5000  -9.0000 Du        
   2002 ****        -6.5000 -26.5000  -8.7500 Du        
   2003 ****        -6.5000 -26.5000  -8.5000 Du        
   2004 ****        -6.5000 -26.2500  -9.2500 Du        
   2005 ****        -6.5000 -26.2500  -9.0000 Du        
   2006 ****        -6.5000 -26.2500  -8.7500 Du        
   2007 ****        -6.5000 -26.2500  -8.5000 Du        
   2008 ****        -6.5000 -26.2500  -8.2500 Du        
   2009 ****        -6.5000 -26.0000  -9.2500 Du        
   2010 ****        -6.5000 -26.0000  -9.0000 Du        
   2011 ****        -6.5000 -26.0000  -8.7500 Du        
   2012 ****        -6.5000 -26.0000  -8.5000 Du        
   2013 ****        -6.5000 -26.0000  -8.2500 Du        
   2014 ****        -6.5000 -25.7500  -9.0000 Du        
   2015 ****        -6.5000 -25.7500  -8.7500 Du        
   2016 ****        -6.5000 -25.7500  -8.5000 Du        
   2017 ****        -6.5000 -17.2500 -17.7500 Du        
   2018 ****        -6.5000 -17.0000 -18.2500 Du        
   2019 ****        -6.5000 -17.0000 -18.0000 Du        
   2020 ****        -6.5000 -17.0000 -17.7500 Du        
   2021 ****        -6.5000 -16.7500 -18.2500 Du        
   2022 ****        -6.5000 -16.7500 -18.0000 Du        
   2023 ****        -6.5000 -16.7500 -17.7500 Du        
   2024 ****        -6.2500 -30.5000 -15.7500 Du        
   2025 ****        -6.2500 -30.5000 -15.5000 Du        
   2026 ****        -6.2500 -30.5000 -15.2500 Du        
   2027 ****        -6.2500 -30.5000 -15.0000 Du        
   2028 ****        -6.2500 -30.2500 -16.0000 Du        
   2029 ****        -6.2500 -30.2500 -15.7500 Du        
   2030 ****        -6.2500 -30.2500 -15.5000 Du        
   2031 ****        -6.2500 -30.2500 -15.2500 Du        
   2032 ****        -6.2500 -30.2500 -15.0000 Du        
   2033 ****        -6.2500 -30.2500 -14.7500 Du        
   2034 ****        -6.2500 -30.0000 -16.0000 Du        
   2035 ****        -6.2500 -30.0000 -15.7500 Du        
   2036 ****        -6.2500 -30.0000 -15.5000 Du        
   2037 ****        -6.2500 -30.0000 -15.2500 Du        
   2038 ****        -6.2500 -30.0000 -15.0000 Du        
   2039 ****        -6.2500 -30.0000 -14.7500 Du        
   2040 ****        -6.2500 -29.7500 -16.0000 Du        
   2041 ****        -6.2500 -29.7500 -15.7500 Du        
   2042 ****        -6.2500 -29.7500 -15.5000 Du        
   2043 ****        -6.2500 -29.7500 -15.2500 Du        
   2044 ****        -6.2500 -29.7500 -15.0000 Du        
   2045 ****        -6.2500 -29.7500 -14.7500 Du        
   2046 ****        -6.2500 -29.5000 -15.7500 Du        
   2047 ****        -6.2500 -29.5000 -15.5000 Du        
   2048 ****        -6.2500 -29.5000 -15.2500 Du        
   2049 ****        -6.2500 -29.5000 -15.0000 Du        
   2050 ****        -6.2500 -29.5000 -14.7500 Du        
   2051 ****        -6.2500 -29.2500 -15.7500 Du        
   2052 ****        -6.2500 -29.2500 -15.5000 Du        
   2053 ****        -6.2500 -29.2500 -15.2500 Du        
   2054 ****        -6.2500 -29.2500 -15.0000 Du        
   2055 ****        -6.2500 -29.2500 -14.7500 Du        
   2056 ****        -6.2500 -29.0000 -15.5000 Du        
   2057 ****        -6.2500 -29.0000 -15.2500 Du        
   2058 ****        -6.2500 -29.0000 -15.0000 Du        
   2059 ****        -6.2500 -29.0000 -14.7500 Du        
   2060 ****        -6.2500 -28.7500 -15.2500 Du        
   2061 ****        -6.2500 -28.7500 -15.0000 Du        
   2062 ****        -6.2500 -28.7500 -14.7500 Du        
   2063 ****        -6.2500 -28.5000 -15.2500 Du        
   2064 ****        -6.2500 -28.5000 -15.0000 Du        
   2065 ****        -6.2500 -28.5000 -14.7500 Du        
   2066 ****        -6.2500 -28.2500 -15.2500 Du        
   2067 ****        -6.2500 -28.2500 -15.0000 Du        
   2068 ****        -6.2500 -28.2500 -14.7500 Du        
   2069 ****        -6.2500 -28.0000 -15.0000 Du        
   2070 ****        -6.2500 -28.0000 -14.7500 Du        
   2071 ****        -6.2500 -28.0000 -14.5000 Du        
   2072 ****        -6.2500 -28.0000 -14.2500 Du        
   2073 ****        -6.2500 -28.0000 -14.0000 Du        
   2074 ****        -6.2500 -28.0000 -13.7500 Du        
   2075 ****        -6.2500 -27.7500 -15.0000 Du        
   2076 ****        -6.2500 -27.7500 -14.7500 Du        
   2077 ****        -6.2500 -27.7500 -14.5000 Du        
   2078 ****        -6.2500 -27.7500 -14.2500 Du        
   2079 ****        -6.2500 -27.7500 -14.0000 Du        
   2080 ****        -6.2500 -27.7500 -13.7500 Du        
   2081 ****        -6.2500 -27.5000 -14.7500 Du        
   2082 ****        -6.2500 -27.5000 -14.5000 Du        
   2083 ****        -6.2500 -27.5000 -14.2500 Du        
   2084 ****        -6.2500 -27.5000 -14.0000 Du        
   2085 ****        -6.2500 -27.5000 -13.7500 Du        
   2086 ****        -6.2500 -27.2500 -14.7500 Du        
   2087 ****        -6.2500 -27.2500 -14.5000 Du        
   2088 ****        -6.2500 -27.2500 -14.2500 Du        
   2089 ****        -6.2500 -27.2500 -14.0000 Du        
   2090 ****        -6.2500 -27.2500 -13.7500 Du        
   2091 ****        -6.2500 -27.0000 -14.7500 Du        
   2092 ****        -6.2500 -27.0000 -14.5000 Du        
   2093 ****        -6.2500 -27.0000 -14.2500 Du        
   2094 ****        -6.2500 -27.0000 -14.0000 Du        
   2095 ****        -6.2500 -27.0000 -13.7500 Du        
   2096 ****        -6.2500 -26.7500 -14.2500 Du        
   2097 ****        -6.2500 -26.7500 -14.0000 Du        
   2098 ****        -6.2500 -26.7500 -13.7500 Du        
   2099 ****        -6.2500 -26.7500 -13.5000 Du        
   2100 ****        -6.2500 -26.7500 -13.2500 Du        
   2101 ****        -6.2500 -26.5000 -14.0000 Du        
   2102 ****        -6.2500 -26.5000 -13.7500 Du        
   2103 ****        -6.2500 -26.5000 -13.5000 Du        
   2104 ****        -6.2500 -26.5000 -13.2500 Du        
   2105 ****        -6.2500 -26.5000 -13.0000 Du        
   2106 ****        -6.2500 -26.2500 -14.0000 Du        
   2107 ****        -6.2500 -26.2500 -13.7500 Du        
   2108 ****        -6.2500 -26.2500 -13.5000 Du        
   2109 ****        -6.2500 -17.0000 -18.0000 Du        
   2110 ****        -6.2500 -17.0000 -17.7500 Du        
   2111 ****        -6.2500 -16.7500 -18.2500 Du        
   2112 ****        -6.2500 -16.7500 -18.0000 Du        
   2113 ****        -6.2500 -16.7500 -17.7500 Du        
   2114 ****        -6.0000 -30.7500 -15.2500 Du        
   2115 ****        -6.0000 -30.7500 -15.0000 Du        
   2116 ****        -6.0000 -30.5000 -15.7500 Du        
   2117 ****        -6.0000 -30.5000 -15.5000 Du        
   2118 ****        -6.0000 -30.5000 -15.2500 Du        
   2119 ****        -6.0000 -30.5000 -15.0000 Du        
   2120 ****        -6.0000 -30.5000 -14.7500 Du        
   2121 ****        -6.0000 -30.2500 -15.7500 Du        
   2122 ****        -6.0000 -30.2500 -15.5000 Du        
   2123 ****        -6.0000 -30.2500 -15.2500 Du        
   2124 ****        -6.0000 -30.2500 -15.0000 Du        
   2125 ****        -6.0000 -30.2500 -14.7500 Du        
   2126 ****        -6.0000 -30.0000 -16.0000 Du        
   2127 ****        -6.0000 -30.0000 -15.7500 Du        
   2128 ****        -6.0000 -30.0000 -15.5000 Du        
   2129 ****        -6.0000 -30.0000 -15.2500 Du        
   2130 ****        -6.0000 -30.0000 -15.0000 Du        
   2131 ****        -6.0000 -30.0000 -14.7500 Du        
   2132 ****        -6.0000 -29.7500 -15.7500 Du        
   2133 ****        -6.0000 -29.7500 -15.5000 Du        
   2134 ****        -6.0000 -29.7500 -15.2500 Du        
   2135 ****        -6.0000 -29.7500 -15.0000 Du        
   2136 ****        -6.0000 -29.7500 -14.7500 Du        
   2137 ****        -6.0000 -29.5000 -15.7500 Du        
   2138 ****        -6.0000 -29.5000 -15.5000 Du        
   2139 ****        -6.0000 -29.5000 -15.2500 Du        
   2140 ****        -6.0000 -29.5000 -15.0000 Du        
   2141 ****        -6.0000 -29.5000 -14.7500 Du        
   2142 ****        -6.0000 -29.2500 -15.5000 Du        
   2143 ****        -6.0000 -29.2500 -15.2500 Du        
   2144 ****        -6.0000 -29.2500 -15.0000 Du        
   2145 ****        -6.0000 -29.2500 -14.7500 Du        
   2146 ****        -6.0000 -29.0000 -15.2500 Du        
   2147 ****        -6.0000 -29.0000 -15.0000 Du        
   2148 ****        -6.0000 -29.0000 -14.7500 Du        
   2149 ****        -6.0000 -28.7500 -15.2500 Du        
   2150 ****        -6.0000 -28.7500 -15.0000 Du        
   2151 ****        -6.0000 -28.7500 -14.7500 Du        
   2152 ****        -6.0000 -28.5000 -15.0000 Du        
   2153 ****        -6.0000 -28.5000 -14.7500 Du        
   2154 ****        -6.0000 -28.2500 -15.0000 Du        
   2155 ****        -6.0000 -28.2500 -14.7500 Du        
   2156 ****        -6.0000 -28.0000 -15.0000 Du        
   2157 ****        -6.0000 -28.0000 -14.7500 Du        
   2158 ****        -6.0000 -28.0000 -14.2500 Du        
   2159 ****        -6.0000 -28.0000 -14.0000 Du        
   2160 ****        -6.0000 -27.7500 -15.0000 Du        
   2161 ****        -6.0000 -27.7500 -14.7500 Du        
   2162 ****        -6.0000 -27.7500 -14.5000 Du        
   2163 ****        -6.0000 -27.7500 -14.2500 Du        
   2164 ****        -6.0000 -27.7500 -14.0000 Du        
   2165 ****        -6.0000 -27.5000 -14.7500 Du        
   2166 ****        -6.0000 -27.5000 -14.5000 Du        
   2167 ****        -6.0000 -27.5000 -14.2500 Du        
   2168 ****        -6.0000 -27.5000 -14.0000 Du        
   2169 ****        -6.0000 -27.2500 -14.7500 Du        
   2170 ****        -6.0000 -27.2500 -14.5000 Du        
   2171 ****        -6.0000 -27.2500 -14.2500 Du        
   2172 ****        -6.0000 -27.2500 -14.0000 Du        
   2173 ****        -6.0000 -27.0000 -14.7500 Du        
   2174 ****        -6.0000 -27.0000 -14.5000 Du        
   2175 ****        -6.0000 -27.0000 -14.2500 Du        
   2176 ****        -6.0000 -27.0000 -14.0000 Du        
   2177 ****        -6.0000 -27.0000 -13.7500 Du        
   2178 ****        -6.0000 -26.7500 -14.5000 Du        
   2179 ****        -6.0000 -26.7500 -14.2500 Du        
   2180 ****        -6.0000 -26.7500 -14.0000 Du        
   2181 ****        -6.0000 -26.7500 -13.7500 Du        
   2182 ****        -6.0000 -26.7500 -13.5000 Du        
   2183 ****        -6.0000 -26.5000 -14.2500 Du        
   2184 ****        -6.0000 -26.5000 -14.0000 Du        
   2185 ****        -6.0000 -26.5000 -13.7500 Du        
   2186 ****        -6.0000 -26.5000 -13.5000 Du        
   2187 ****        -6.0000 -26.5000 -13.2500 Du        
   2188 ****        -6.0000 -26.2500 -14.2500 Du        
   2189 ****        -6.0000 -26.2500 -14.0000 Du        
   2190 ****        -6.0000 -26.2500 -13.7500 Du        
   2191 ****        -6.0000 -26.2500 -13.5000 Du        
   2192 ****        -6.0000 -26.2500 -13.2500 Du        
   2193 ****        -6.0000 -26.0000 -14.2500 Du        
   2194 ****        -6.0000 -26.0000 -14.0000 Du        
   2195 ****        -6.0000 -26.0000 -13.7500 Du        
   2196 ****        -6.0000 -26.0000 -13.5000 Du        
   2197 ****        -6.0000 -16.7500 -18.2500 Du        
   2198 ****        -6.0000 -16.7500 -18.0000 Du        
   2199 ****        -5.7500 -31.0000 -15.2500 Du        
   2200 ****        -5.7500 -30.7500 -15.2500 Du        
   2201 ****        -5.7500 -30.7500 -15.0000 Du        
   2202 ****        -5.7500 -30.5000 -15.7500 Du        
   2203 ****        -5.7500 -30.5000 -15.5000 Du        
   2204 ****        -5.7500 -30.5000 -15.2500 Du        
   2205 ****        -5.7500 -30.5000 -15.0000 Du        
   2206 ****        -5.7500 -30.2500 -15.7500 Du        
   2207 ****        -5.7500 -30.2500 -15.5000 Du        
   2208 ****        -5.7500 -30.2500 -15.2500 Du        
   2209 ****        -5.7500 -30.2500 -15.0000 Du        
   2210 ****        -5.7500 -30.2500 -14.7500 Du        
   2211 ****        -5.7500 -30.0000 -15.7500 Du        
   2212 ****        -5.7500 -30.0000 -15.5000 Du        
   2213 ****        -5.7500 -30.0000 -15.2500 Du        
   2214 ****        -5.7500 -30.0000 -15.0000 Du        
   2215 ****        -5.7500 -30.0000 -14.7500 Du        
   2216 ****        -5.7500 -29.7500 -15.7500 Du        
   2217 ****        -5.7500 -29.7500 -15.5000 Du        
   2218 ****        -5.7500 -29.7500 -15.2500 Du        
   2219 ****        -5.7500 -29.7500 -15.0000 Du        
   2220 ****        -5.7500 -29.7500 -14.7500 Du        
   2221 ****        -5.7500 -29.5000 -15.5000 Du        
   2222 ****        -5.7500 -29.5000 -15.2500 Du        
   2223 ****        -5.7500 -29.5000 -15.0000 Du        
   2224 ****        -5.7500 -29.5000 -14.7500 Du        
   2225 ****        -5.7500 -29.2500 -15.2500 Du        
   2226 ****        -5.7500 -29.2500 -15.0000 Du        
   2227 ****        -5.7500 -29.2500 -14.7500 Du        
   2228 ****        -5.7500 -29.0000 -15.2500 Du        
   2229 ****        -5.7500 -29.0000 -15.0000 Du        
   2230 ****        -5.7500 -29.0000 -14.7500 Du        
   2231 ****        -5.7500 -28.7500 -15.0000 Du        
   2232 ****        -5.7500 -28.0000 -14.7500 Du        
   2233 ****        -5.7500 -28.0000 -14.2500 Du        
   2234 ****        -5.7500 -27.7500 -14.7500 Du        
   2235 ****        -5.7500 -27.7500 -14.5000 Du        
   2236 ****        -5.7500 -27.7500 -14.2500 Du        
   2237 ****        -5.7500 -27.7500 -14.0000 Du        
   2238 ****        -5.7500 -27.5000 -14.7500 Du        
   2239 ****        -5.7500 -27.5000 -14.2500 Du        
   2240 ****        -5.7500 -27.2500 -14.7500 Du        
   2241 ****        -5.7500 -27.2500 -14.5000 Du        
   2242 ****        -5.7500 -27.2500 -14.2500 Du        
   2243 ****        -5.7500 -27.2500 -14.0000 Du        
   2244 ****        -5.7500 -27.0000 -14.5000 Du        
   2245 ****        -5.7500 -27.0000 -14.2500 Du        
   2246 ****        -5.7500 -27.0000 -14.0000 Du        
   2247 ****        -5.7500 -27.0000 -13.7500 Du        
   2248 ****        -5.7500 -26.7500 -14.5000 Du        
   2249 ****        -5.7500 -26.7500 -14.2500 Du        
   2250 ****        -5.7500 -26.7500 -14.0000 Du        
   2251 ****        -5.7500 -26.7500 -13.7500 Du        
   2252 ****        -5.7500 -26.5000 -14.2500 Du        
   2253 ****        -5.7500 -26.5000 -14.0000 Du        
   2254 ****        -5.7500 -26.5000 -13.7500 Du        
   2255 ****        -5.7500 -26.5000 -13.5000 Du        
   2256 ****        -5.7500 -26.2500 -14.2500 Du        
   2257 ****        -5.7500 -26.2500 -14.0000 Du        
   2258 ****        -5.7500 -26.2500 -13.7500 Du        
   2259 ****        -5.7500 -26.2500 -13.5000 Du        
   2260 ****        -5.7500 -26.2500 -13.2500 Du        
   2261 ****        -5.7500 -26.0000 -14.2500 Du        
   2262 ****        -5.7500 -26.0000 -14.0000 Du        
   2263 ****        -5.7500 -26.0000 -13.7500 Du        
   2264 ****        -5.7500 -26.0000 -13.5000 Du        
   2265 ****        -5.7500 -25.7500 -14.2500 Du        
   2266 ****        -5.7500 -25.7500 -14.0000 Du        
   2267 ****        -5.7500 -25.7500 -13.7500 Du        
   2268 ****        -5.7500 -25.7500 -13.5000 Du        
   2269 ****        -5.7500 -25.5000 -14.2500 Du        
   2270 ****        -5.7500 -25.5000 -14.0000 Du        
   2271 ****        -5.7500 -25.5000 -13.7500 Du        
   2272 ****        -5.7500 -25.2500 -14.2500 Du        
   2273 ****        -5.7500 -25.2500 -14.0000 Du        
   2274 ****        -5.5000 -30.5000 -15.2500 Du        
   2275 ****        -5.5000 -30.5000 -15.0000 Du        
   2276 ****        -5.5000 -30.2500 -15.5000 Du        
   2277 ****        -5.5000 -30.2500 -15.2500 Du        
   2278 ****        -5.5000 -30.2500 -15.0000 Du        
   2279 ****        -5.5000 -30.0000 -15.5000 Du        
   2280 ****        -5.5000 -30.0000 -15.2500 Du        
   2281 ****        -5.5000 -30.0000 -15.0000 Du        
   2282 ****        -5.5000 -30.0000 -14.7500 Du        
   2283 ****        -5.5000 -29.7500 -15.5000 Du        
   2284 ****        -5.5000 -29.7500 -15.2500 Du        
   2285 ****        -5.5000 -29.7500 -15.0000 Du        
   2286 ****        -5.5000 -29.7500 -14.7500 Du        
   2287 ****        -5.5000 -29.5000 -15.2500 Du        
   2288 ****        -5.5000 -29.5000 -15.0000 Du        
   2289 ****        -5.5000 -29.2500 -15.2500 Du        
   2290 ****        -5.5000 -29.2500 -15.0000 Du        
   2291 ****        -5.5000 -26.7500 -14.2500 Du        
   2292 ****        -5.5000 -26.7500 -14.0000 Du        
   2293 ****        -5.5000 -26.5000 -14.2500 Du        
   2294 ****        -5.5000 -26.5000 -14.0000 Du        
   2295 ****        -5.5000 -26.5000 -13.7500 Du        
   2296 ****        -5.5000 -26.5000 -13.5000 Du        
   2297 ****        -5.5000 -26.2500 -14.2500 Du        
   2298 ****        -5.5000 -26.2500 -14.0000 Du        
   2299 ****        -5.5000 -26.2500 -13.7500 Du        
   2300 ****        -5.5000 -26.2500 -13.5000 Du        
   2301 ****        -5.5000 -26.0000 -14.2500 Du        
   2302 ****        -5.5000 -26.0000 -14.0000 Du        
   2303 ****        -5.5000 -26.0000 -13.7500 Du        
   2304 ****        -5.5000 -26.0000 -13.5000 Du        
   2305 ****        -5.5000 -25.7500 -14.2500 Du        
   2306 ****        -5.5000 -25.7500 -14.0000 Du        
   2307 ****        -5.5000 -25.7500 -13.7500 Du        
   2308 ****        -5.5000 -25.7500 -13.5000 Du        
   2309 ****        -5.5000 -25.5000 -14.2500 Du        
   2310 ****        -5.5000 -25.5000 -14.0000 Du        
   2311 ****        -5.5000 -25.5000 -13.7500 Du        
   2312 ****        -5.5000 -25.2500 -14.2500 Du        
   2313 ****        -5.5000 -25.2500 -14.0000 Du        
   2314 ****        -5.5000 -25.2500 -13.7500 Du        
   2315 ****        -5.5000 -25.0000 -14.2500 Du        
   2316 ****        -5.5000 -25.0000 -14.0000 Du        
   2317 ****        -5.5000 -24.7500 -14.2500 Du        
   2318 ****        -5.5000 -24.5000 -14.2500 Du        
   2319 ****        -5.2500 -30.5000 -15.2500 Du        
   2320 ****        -5.2500 -30.2500 -15.2500 Du        
   2321 ****        -5.2500 -30.2500 -15.0000 Du        
   2322 ****        -5.2500 -30.0000 -15.2500 Du        
   2323 ****        -5.2500 -30.0000 -15.0000 Du        
   2324 ****        -5.2500 -29.7500 -15.2500 Du        
   2325 ****        -5.2500 -29.7500 -15.0000 Du        
   2326 ****        -5.2500 -29.5000 -15.2500 Du        
   2327 ****        -5.2500 -27.0000 -14.0000 Du        
   2328 ****        -5.2500 -26.7500 -14.2500 Du        
   2329 ****        -5.2500 -26.7500 -14.0000 Du        
   2330 ****        -5.2500 -26.5000 -14.5000 Du        
   2331 ****        -5.2500 -26.5000 -14.2500 Du        
   2332 ****        -5.2500 -26.5000 -14.0000 Du        
   2333 ****        -5.2500 -26.5000 -13.7500 Du        
   2334 ****        -5.2500 -26.2500 -14.5000 Du        
   2335 ****        -5.2500 -26.2500 -14.2500 Du        
   2336 ****        -5.2500 -26.2500 -14.0000 Du        
   2337 ****        -5.2500 -26.2500 -13.7500 Du        
   2338 ****        -5.2500 -26.0000 -14.5000 Du        
   2339 ****        -5.2500 -26.0000 -14.2500 Du        
   2340 ****        -5.2500 -26.0000 -14.0000 Du        
   2341 ****        -5.2500 -26.0000 -13.7500 Du        
   2342 ****        -5.2500 -25.7500 -14.5000 Du        
   2343 ****        -5.2500 -25.7500 -14.2500 Du        
   2344 ****        -5.2500 -25.7500 -14.0000 Du        
   2345 ****        -5.2500 -25.7500 -13.7500 Du        
   2346 ****        -5.2500 -25.5000 -14.5000 Du        
   2347 ****        -5.2500 -25.5000 -14.2500 Du        
   2348 ****        -5.2500 -25.5000 -14.0000 Du        
   2349 ****        -5.2500 -25.5000 -13.7500 Du        
   2350 ****        -5.2500 -25.2500 -14.5000 Du        
   2351 ****        -5.2500 -25.2500 -14.2500 Du        
   2352 ****        -5.2500 -25.2500 -14.0000 Du        
   2353 ****        -5.2500 -25.2500 -13.7500 Du        
   2354 ****        -5.2500 -25.0000 -14.5000 Du        
   2355 ****        -5.2500 -25.0000 -14.2500 Du        
   2356 ****        -5.2500 -25.0000 -14.0000 Du        
   2357 ****        -5.2500 -24.7500 -14.5000 Du        
   2358 ****        -5.2500 -24.7500 -14.2500 Du        
   2359 ****        -5.2500 -24.7500 -14.0000 Du        
   2360 ****        -5.2500 -24.5000 -14.5000 Du        
   2361 ****        -5.2500 -24.5000 -14.2500 Du        
   2362 ****        -5.0000 -26.7500 -14.5000 Du        
   2363 ****        -5.0000 -26.7500 -14.2500 Du        
   2364 ****        -5.0000 -26.5000 -14.7500 Du        
   2365 ****        -5.0000 -26.5000 -14.5000 Du        
   2366 ****        -5.0000 -26.5000 -14.2500 Du        
   2367 ****        -5.0000 -26.5000 -14.0000 Du        
   2368 ****        -5.0000 -26.2500 -14.7500 Du        
   2369 ****        -5.0000 -26.2500 -14.5000 Du        
   2370 ****        -5.0000 -26.2500 -14.2500 Du        
   2371 ****        -5.0000 -26.2500 -14.0000 Du        
   2372 ****        -5.0000 -26.0000 -14.7500 Du        
   2373 ****        -5.0000 -26.0000 -14.5000 Du        
   2374 ****        -5.0000 -26.0000 -14.2500 Du        
   2375 ****        -5.0000 -26.0000 -14.0000 Du        
   2376 ****        -5.0000 -26.0000 -13.7500 Du        
   2377 ****        -5.0000 -25.7500 -14.5000 Du        
   2378 ****        -5.0000 -25.7500 -14.2500 Du        
   2379 ****        -5.0000 -25.7500 -14.0000 Du        
   2380 ****        -5.0000 -25.7500 -13.7500 Du        
   2381 ****        -5.0000 -25.5000 -14.7500 Du        
   2382 ****        -5.0000 -25.5000 -14.5000 Du        
   2383 ****        -5.0000 -25.5000 -14.2500 Du        
   2384 ****        -5.0000 -25.5000 -14.0000 Du        
   2385 ****        -5.0000 -25.5000 -13.7500 Du        
   2386 ****        -5.0000 -25.2500 -14.5000 Du        
   2387 ****        -5.0000 -25.2500 -14.2500 Du        
   2388 ****        -5.0000 -25.2500 -14.0000 Du        
   2389 ****        -5.0000 -25.0000 -14.5000 Du        
   2390 ****        -5.0000 -25.0000 -14.2500 Du        
   2391 ****        -5.0000 -25.0000 -14.0000 Du        
   2392 ****        -5.0000 -24.7500 -14.5000 Du        
   2393 ****        -5.0000 -24.7500 -14.2500 Du        
   2394 ****        -5.0000 -24.5000 -14.5000 Du        
   2395 ****        -5.0000 -24.5000 -14.2500 Du        
   2396 ****        -5.0000 -19.0000 -23.5000 Du        
   2397 ****        -5.0000 -19.0000 -23.2500 Du        
   2398 ****        -5.0000 -18.7500 -23.5000 Du        
   2399 ****        -5.0000 -18.7500 -23.2500 Du        
   2400 ****        -5.0000 -18.5000 -23.2500 Du        
   2401 ****        -4.7500 -26.7500 -14.5000 Du        
   2402 ****        -4.7500 -26.7500 -14.2500 Du        
   2403 ****        -4.7500 -26.5000 -14.7500 Du        
   2404 ****        -4.7500 -26.5000 -14.5000 Du        
   2405 ****        -4.7500 -26.5000 -14.2500 Du        
   2406 ****        -4.7500 -26.2500 -14.7500 Du        
   2407 ****        -4.7500 -26.2500 -14.5000 Du        
   2408 ****        -4.7500 -26.2500 -14.2500 Du        
   2409 ****        -4.7500 -26.2500 -14.0000 Du        
   2410 ****        -4.7500 -26.0000 -14.7500 Du        
   2411 ****        -4.7500 -26.0000 -14.5000 Du        
   2412 ****        -4.7500 -26.0000 -14.2500 Du        
   2413 ****        -4.7500 -26.0000 -14.0000 Du        
   2414 ****        -4.7500 -25.7500 -14.7500 Du        
   2415 ****        -4.7500 -25.7500 -14.5000 Du        
   2416 ****        -4.7500 -25.7500 -14.2500 Du        
   2417 ****        -4.7500 -25.7500 -14.0000 Du        
   2418 ****        -4.7500 -25.5000 -14.7500 Du        
   2419 ****        -4.7500 -25.5000 -14.5000 Du        
   2420 ****        -4.7500 -25.5000 -14.2500 Du        
   2421 ****        -4.7500 -25.5000 -14.0000 Du        
   2422 ****        -4.7500 -25.2500 -14.7500 Du        
   2423 ****        -4.7500 -25.2500 -14.5000 Du        
   2424 ****        -4.7500 -25.2500 -14.2500 Du        
   2425 ****        -4.7500 -25.2500 -14.0000 Du        
   2426 ****        -4.7500 -25.0000 -14.7500 Du        
   2427 ****        -4.7500 -25.0000 -14.5000 Du        
   2428 ****        -4.7500 -25.0000 -14.2500 Du        
   2429 ****        -4.7500 -24.7500 -14.5000 Du        
   2430 ****        -4.7500 -24.7500 -14.2500 Du        
   2431 ****        -4.7500 -19.2500 -23.2500 Du        
   2432 ****        -4.7500 -19.0000 -23.5000 Du        
   2433 ****        -4.7500 -19.0000 -23.2500 Du        
   2434 ****        -4.7500 -19.0000 -23.0000 Du        
   2435 ****        -4.7500 -18.7500 -23.5000 Du        
   2436 ****        -4.7500 -18.7500 -23.2500 Du        
   2437 ****        -4.7500 -18.7500 -23.0000 Du        
   2438 ****        -4.7500 -18.5000 -23.2500 Du        
   2439 ****        -4.7500 -18.5000 -23.0000 Du        
   2440 ****        -4.7500 -18.2500 -23.2500 Du        
   2441 ****        -4.7500 -18.2500 -23.0000 Du        
   2442 ****        -4.5000 -26.2500 -14.7500 Du        
   2443 ****        -4.5000 -26.0000 -14.7500 Du        
   2444 ****        -4.5000 -26.0000 -14.5000 Du        
   2445 ****        -4.5000 -26.0000 -14.2500 Du        
   2446 ****        -4.5000 -25.7500 -14.7500 Du        
   2447 ****        -4.5000 -25.7500 -14.5000 Du        
   2448 ****        -4.5000 -25.7500 -14.2500 Du        
   2449 ****        -4.5000 -25.5000 -14.7500 Du        
   2450 ****        -4.5000 -25.5000 -14.5000 Du        
   2451 ****        -4.5000 -25.5000 -14.2500 Du        
   2452 ****        -4.5000 -25.5000 -14.0000 Du        
   2453 ****        -4.5000 -25.2500 -14.7500 Du        
   2454 ****        -4.5000 -25.2500 -14.5000 Du        
   2455 ****        -4.5000 -25.2500 -14.2500 Du        
   2456 ****        -4.5000 -25.0000 -14.7500 Du        
   2457 ****        -4.5000 -25.0000 -14.5000 Du        
   2458 ****        -4.5000 -25.0000 -14.2500 Du        
   2459 ****        -4.5000 -24.7500 -14.5000 Du        
   2460 ****        -4.5000 -19.7500 -23.2500 Du        
   2461 ****        -4.5000 -19.7500 -23.0000 Du        
   2462 ****        -4.5000 -19.5000 -23.2500 Du        
   2463 ****        -4.5000 -19.5000 -23.0000 Du        
   2464 ****        -4.5000 -19.2500 -23.2500 Du        
   2465 ****        -4.5000 -19.2500 -23.0000 Du        
   2466 ****        -4.5000 -19.2500 -22.7500 Du        
   2467 ****        -4.5000 -19.0000 -23.2500 Du        
   2468 ****        -4.5000 -19.0000 -23.0000 Du        
   2469 ****        -4.5000 -19.0000 -22.7500 Du        
   2470 ****        -4.5000 -18.7500 -23.2500 Du        
   2471 ****        -4.5000 -18.7500 -23.0000 Du        
   2472 ****        -4.5000 -18.7500 -22.7500 Du        
   2473 ****        -4.5000 -18.5000 -23.2500 Du        
   2474 ****        -4.5000 -18.5000 -23.0000 Du        
   2475 ****        -4.5000 -18.5000 -22.7500 Du        
   2476 ****        -4.5000 -18.2500 -23.0000 Du        
   2477 ****        -4.5000 -18.2500 -22.7500 Du        
   2478 ****        -4.5000 -18.2500 -22.5000 Du        
   2479 ****        -4.5000 -18.0000 -22.5000 Du        
   2480 ****        -4.2500 -26.5000 -14.7500 Du        
   2481 ****        -4.2500 -26.2500 -15.0000 Du        
   2482 ****        -4.2500 -26.2500 -14.7500 Du        
   2483 ****        -4.2500 -26.0000 -15.0000 Du        
   2484 ****        -4.2500 -26.0000 -14.7500 Du        
   2485 ****        -4.2500 -26.0000 -14.5000 Du        
   2486 ****        -4.2500 -26.0000 -14.2500 Du        
   2487 ****        -4.2500 -25.7500 -15.0000 Du        
   2488 ****        -4.2500 -25.7500 -14.7500 Du        
   2489 ****        -4.2500 -25.7500 -14.5000 Du        
   2490 ****        -4.2500 -25.7500 -14.2500 Du        
   2491 ****        -4.2500 -25.5000 -15.0000 Du        
   2492 ****        -4.2500 -25.5000 -14.7500 Du        
   2493 ****        -4.2500 -25.5000 -14.5000 Du        
   2494 ****        -4.2500 -25.5000 -14.2500 Du        
   2495 ****        -4.2500 -25.2500 -15.0000 Du        
   2496 ****        -4.2500 -25.2500 -14.7500 Du        
   2497 ****        -4.2500 -25.2500 -14.5000 Du        
   2498 ****        -4.2500 -25.2500 -14.2500 Du        
   2499 ****        -4.2500 -25.0000 -14.7500 Du        
   2500 ****        -4.2500 -25.0000 -14.5000 Du        
   2501 ****        -4.2500 -25.0000 -14.2500 Du        
   2502 ****        -4.2500 -20.2500 -23.0000 Du        
   2503 ****        -4.2500 -20.2500 -22.7500 Du        
   2504 ****        -4.2500 -20.0000 -23.0000 Du        
   2505 ****        -4.2500 -20.0000 -22.7500 Du        
   2506 ****        -4.2500 -19.7500 -23.2500 Du        
   2507 ****        -4.2500 -19.7500 -23.0000 Du        
   2508 ****        -4.2500 -19.7500 -22.7500 Du        
   2509 ****        -4.2500 -19.5000 -23.2500 Du        
   2510 ****        -4.2500 -19.5000 -23.0000 Du        
   2511 ****        -4.2500 -19.5000 -22.7500 Du        
   2512 ****        -4.2500 -19.2500 -23.2500 Du        
   2513 ****        -4.2500 -19.2500 -23.0000 Du        
   2514 ****        -4.2500 -19.2500 -22.7500 Du        
   2515 ****        -4.2500 -19.2500 -22.5000 Du        
   2516 ****        -4.2500 -19.0000 -23.2500 Du        
   2517 ****        -4.2500 -19.0000 -23.0000 Du        
   2518 ****        -4.2500 -19.0000 -22.7500 Du        
   2519 ****        -4.2500 -19.0000 -22.5000 Du        
   2520 ****        -4.2500 -18.7500 -23.2500 Du        
   2521 ****        -4.2500 -18.7500 -23.0000 Du        
   2522 ****        -4.2500 -18.7500 -22.7500 Du        
   2523 ****        -4.2500 -18.7500 -22.5000 Du        
   2524 ****        -4.2500 -18.5000 -23.2500 Du        
   2525 ****        -4.2500 -18.5000 -23.0000 Du        
   2526 ****        -4.2500 -18.5000 -22.7500 Du        
   2527 ****        -4.2500 -18.5000 -22.5000 Du        
   2528 ****        -4.2500 -18.2500 -23.0000 Du        
   2529 ****        -4.2500 -18.2500 -22.7500 Du        
   2530 ****        -4.2500 -18.2500 -22.5000 Du        
   2531 ****        -4.2500 -18.2500 -22.2500 Du        
   2532 ****        -4.2500 -18.0000 -22.7500 Du        
   2533 ****        -4.2500 -18.0000 -22.5000 Du        
   2534 ****        -4.2500 -18.0000 -22.2500 Du        
   2535 ****        -4.0000 -26.5000 -14.7500 Du        
   2536 ****        -4.0000 -26.2500 -15.0000 Du        
   2537 ****        -4.0000 -26.2500 -14.7500 Du        
   2538 ****        -4.0000 -26.0000 -15.2500 Du        
   2539 ****        -4.0000 -26.0000 -15.0000 Du        
   2540 ****        -4.0000 -26.0000 -14.7500 Du        
   2541 ****        -4.0000 -26.0000 -14.5000 Du        
   2542 ****        -4.0000 -25.7500 -15.0000 Du        
   2543 ****        -4.0000 -25.7500 -14.7500 Du        
   2544 ****        -4.0000 -25.7500 -14.5000 Du        
   2545 ****        -4.0000 -25.5000 -15.0000 Du        
   2546 ****        -4.0000 -25.5000 -14.7500 Du        
   2547 ****        -4.0000 -25.5000 -14.5000 Du        
   2548 ****        -4.0000 -25.2500 -15.0000 Du        
   2549 ****        -4.0000 -25.2500 -14.7500 Du        
   2550 ****        -4.0000 -25.2500 -14.5000 Du        
   2551 ****        -4.0000 -25.2500 -14.2500 Du        
   2552 ****        -4.0000 -25.0000 -14.7500 Du        
   2553 ****        -4.0000 -25.0000 -14.5000 Du        
   2554 ****        -4.0000 -20.7500 -22.7500 Du        
   2555 ****        -4.0000 -20.7500 -22.5000 Du        
   2556 ****        -4.0000 -20.5000 -22.7500 Du        
   2557 ****        -4.0000 -20.5000 -22.5000 Du        
   2558 ****        -4.0000 -20.2500 -23.0000 Du        
   2559 ****        -4.0000 -20.2500 -22.7500 Du        
   2560 ****        -4.0000 -20.2500 -22.5000 Du        
   2561 ****        -4.0000 -20.0000 -23.0000 Du        
   2562 ****        -4.0000 -20.0000 -22.7500 Du        
   2563 ****        -4.0000 -20.0000 -22.5000 Du        
   2564 ****        -4.0000 -19.7500 -23.0000 Du        
   2565 ****        -4.0000 -19.7500 -22.7500 Du        
   2566 ****        -4.0000 -19.7500 -22.5000 Du        
   2567 ****        -4.0000 -19.5000 -23.0000 Du        
   2568 ****        -4.0000 -19.5000 -22.7500 Du        
   2569 ****        -4.0000 -19.5000 -22.5000 Du        
   2570 ****        -4.0000 -19.2500 -23.0000 Du        
   2571 ****        -4.0000 -19.2500 -22.7500 Du        
   2572 ****        -4.0000 -19.2500 -22.5000 Du        
   2573 ****        -4.0000 -19.0000 -23.0000 Du        
   2574 ****        -4.0000 -19.0000 -22.7500 Du        
   2575 ****        -4.0000 -19.0000 -22.5000 Du        
   2576 ****        -4.0000 -19.0000 -22.2500 Du        
   2577 ****        -4.0000 -18.7500 -23.0000 Du        
   2578 ****        -4.0000 -18.7500 -22.7500 Du        
   2579 ****        -4.0000 -18.7500 -22.5000 Du        
   2580 ****        -4.0000 -18.7500 -22.2500 Du        
   2581 ****        -4.0000 -18.5000 -23.0000 Du        
   2582 ****        -4.0000 -18.5000 -22.7500 Du        
   2583 ****        -4.0000 -18.5000 -22.5000 Du        
   2584 ****        -4.0000 -18.5000 -22.2500 Du        
   2585 ****        -4.0000 -18.2500 -23.0000 Du        
   2586 ****        -4.0000 -18.2500 -22.7500 Du        
   2587 ****        -4.0000 -18.2500 -22.5000 Du        
   2588 ****        -4.0000 -18.2500 -22.2500 Du        
   2589 ****        -4.0000 -18.0000 -22.7500 Du        
   2590 ****        -4.0000 -18.0000 -22.5000 Du        
   2591 ****        -4.0000 -18.0000 -22.2500 Du        
   2592 ****        -4.0000 -18.0000 -22.0000 Du        
   2593 ****        -3.7500 -26.2500 -15.0000 Du        
   2594 ****        -3.7500 -26.2500 -14.7500 Du        
   2595 ****        -3.7500 -26.0000 -15.2500 Du        
   2596 ****        -3.7500 -26.0000 -15.0000 Du        
   2597 ****        -3.7500 -26.0000 -14.7500 Du        
   2598 ****        -3.7500 -25.7500 -15.2500 Du        
   2599 ****        -3.7500 -25.7500 -15.0000 Du        
   2600 ****        -3.7500 -25.7500 -14.7500 Du        
   2601 ****        -3.7500 -25.7500 -14.5000 Du        
   2602 ****        -3.7500 -25.5000 -15.2500 Du        
   2603 ****        -3.7500 -25.5000 -15.0000 Du        
   2604 ****        -3.7500 -25.5000 -14.7500 Du        
   2605 ****        -3.7500 -25.5000 -14.5000 Du        
   2606 ****        -3.7500 -25.2500 -15.0000 Du        
   2607 ****        -3.7500 -25.2500 -14.7500 Du        
   2608 ****        -3.7500 -25.2500 -14.5000 Du        
   2609 ****        -3.7500 -25.0000 -14.7500 Du        
   2610 ****        -3.7500 -25.0000 -14.5000 Du        
   2611 ****        -3.7500 -24.7500 -21.0000 Du        
   2612 ****        -3.7500 -24.5000 -21.0000 Du        
   2613 ****        -3.7500 -24.5000 -20.7500 Du        
   2614 ****        -3.7500 -24.2500 -21.0000 Du        
   2615 ****        -3.7500 -24.2500 -20.7500 Du        
   2616 ****        -3.7500 -21.0000 -22.5000 Du        
   2617 ****        -3.7500 -20.7500 -22.7500 Du        
   2618 ****        -3.7500 -20.7500 -22.5000 Du        
   2619 ****        -3.7500 -20.7500 -22.2500 Du        
   2620 ****        -3.7500 -20.5000 -22.7500 Du        
   2621 ****        -3.7500 -20.5000 -22.5000 Du        
   2622 ****        -3.7500 -20.5000 -22.2500 Du        
   2623 ****        -3.7500 -20.2500 -22.7500 Du        
   2624 ****        -3.7500 -20.2500 -22.5000 Du        
   2625 ****        -3.7500 -20.2500 -22.2500 Du        
   2626 ****        -3.7500 -20.0000 -23.0000 Du        
   2627 ****        -3.7500 -20.0000 -22.7500 Du        
   2628 ****        -3.7500 -20.0000 -22.5000 Du        
   2629 ****        -3.7500 -19.7500 -22.7500 Du        
   2630 ****        -3.7500 -19.7500 -22.5000 Du        
   2631 ****        -3.7500 -19.7500 -22.2500 Du        
   2632 ****        -3.7500 -19.5000 -22.7500 Du        
   2633 ****        -3.7500 -19.5000 -22.5000 Du        
   2634 ****        -3.7500 -19.2500 -22.7500 Du        
   2635 ****        -3.7500 -19.2500 -22.5000 Du        
   2636 ****        -3.7500 -19.2500 -22.2500 Du        
   2637 ****        -3.7500 -19.0000 -22.7500 Du        
   2638 ****        -3.7500 -19.0000 -22.5000 Du        
   2639 ****        -3.7500 -19.0000 -22.2500 Du        
   2640 ****        -3.7500 -18.7500 -22.7500 Du        
   2641 ****        -3.7500 -18.7500 -22.5000 Du        
   2642 ****        -3.7500 -18.7500 -22.2500 Du        
   2643 ****        -3.7500 -18.5000 -22.7500 Du        
   2644 ****        -3.7500 -18.5000 -22.5000 Du        
   2645 ****        -3.7500 -18.5000 -22.2500 Du        
   2646 ****        -3.7500 -18.2500 -22.7500 Du        
   2647 ****        -3.7500 -18.2500 -22.5000 Du        
   2648 ****        -3.7500 -18.2500 -22.2500 Du        
   2649 ****        -3.7500 -18.2500 -22.0000 Du        
   2650 ****        -3.7500 -18.0000 -22.7500 Du        
   2651 ****        -3.7500 -18.0000 -22.5000 Du        
   2652 ****        -3.7500 -18.0000 -22.2500 Du        
   2653 ****        -3.7500 -18.0000 -22.0000 Du        
   2654 ****        -3.7500 -16.2500 -17.2500 Du        
   2655 ****        -3.5000 -26.2500 -15.2500 Du        
   2656 ****        -3.5000 -26.0000 -15.5000 Du        
   2657 ****        -3.5000 -26.0000 -15.2500 Du        
   2658 ****        -3.5000 -26.0000 -15.0000 Du        
   2659 ****        -3.5000 -26.0000 -14.7500 Du        
   2660 ****        -3.5000 -25.7500 -15.5000 Du        
   2661 ****        -3.5000 -25.7500 -15.2500 Du        
   2662 ****        -3.5000 -25.7500 -15.0000 Du        
   2663 ****        -3.5000 -25.7500 -14.7500 Du        
   2664 ****        -3.5000 -25.5000 -15.2500 Du        
   2665 ****        -3.5000 -25.5000 -15.0000 Du        
   2666 ****        -3.5000 -25.5000 -14.7500 Du        
   2667 ****        -3.5000 -25.5000 -14.5000 Du        
   2668 ****        -3.5000 -25.2500 -21.2500 Du        
   2669 ****        -3.5000 -25.2500 -21.0000 Du        
   2670 ****        -3.5000 -25.2500 -20.7500 Du        
   2671 ****        -3.5000 -25.2500 -15.2500 Du        
   2672 ****        -3.5000 -25.2500 -15.0000 Du        
   2673 ****        -3.5000 -25.2500 -14.7500 Du        
   2674 ****        -3.5000 -25.2500 -14.5000 Du        
   2675 ****        -3.5000 -25.0000 -21.5000 Du        
   2676 ****        -3.5000 -25.0000 -21.2500 Du        
   2677 ****        -3.5000 -25.0000 -21.0000 Du        
   2678 ****        -3.5000 -25.0000 -20.7500 Du        
   2679 ****        -3.5000 -25.0000 -15.0000 Du        
   2680 ****        -3.5000 -25.0000 -14.7500 Du        
   2681 ****        -3.5000 -25.0000 -14.5000 Du        
   2682 ****        -3.5000 -24.7500 -21.5000 Du        
   2683 ****        -3.5000 -24.7500 -21.2500 Du        
   2684 ****        -3.5000 -24.7500 -21.0000 Du        
   2685 ****        -3.5000 -24.7500 -20.7500 Du        
   2686 ****        -3.5000 -24.7500 -20.5000 Du        
   2687 ****        -3.5000 -24.5000 -21.5000 Du        
   2688 ****        -3.5000 -24.5000 -21.2500 Du        
   2689 ****        -3.5000 -24.5000 -21.0000 Du        
   2690 ****        -3.5000 -24.5000 -20.7500 Du        
   2691 ****        -3.5000 -24.5000 -20.5000 Du        
   2692 ****        -3.5000 -24.2500 -21.5000 Du        
   2693 ****        -3.5000 -24.2500 -21.2500 Du        
   2694 ****        -3.5000 -24.2500 -21.0000 Du        
   2695 ****        -3.5000 -24.2500 -20.7500 Du        
   2696 ****        -3.5000 -24.2500 -20.5000 Du        
   2697 ****        -3.5000 -24.0000 -21.5000 Du        
   2698 ****        -3.5000 -24.0000 -21.2500 Du        
   2699 ****        -3.5000 -24.0000 -21.0000 Du        
   2700 ****        -3.5000 -24.0000 -20.7500 Du        
   2701 ****        -3.5000 -23.7500 -21.2500 Du        
   2702 ****        -3.5000 -23.7500 -21.0000 Du        
   2703 ****        -3.5000 -21.5000 -22.2500 Du        
   2704 ****        -3.5000 -21.2500 -22.5000 Du        
   2705 ****        -3.5000 -21.2500 -22.2500 Du        
   2706 ****        -3.5000 -21.0000 -22.7500 Du        
   2707 ****        -3.5000 -21.0000 -22.5000 Du        
   2708 ****        -3.5000 -21.0000 -22.2500 Du        
   2709 ****        -3.5000 -20.7500 -22.7500 Du        
   2710 ****        -3.5000 -20.7500 -22.5000 Du        
   2711 ****        -3.5000 -20.7500 -22.2500 Du        
   2712 ****        -3.5000 -20.5000 -22.7500 Du        
   2713 ****        -3.5000 -20.5000 -22.5000 Du        
   2714 ****        -3.5000 -20.5000 -22.2500 Du        
   2715 ****        -3.5000 -20.2500 -22.7500 Du        
   2716 ****        -3.5000 -20.2500 -22.5000 Du        
   2717 ****        -3.5000 -20.2500 -22.2500 Du        
   2718 ****        -3.5000 -20.0000 -22.7500 Du        
   2719 ****        -3.5000 -20.0000 -22.5000 Du        
   2720 ****        -3.5000 -20.0000 -22.2500 Du        
   2721 ****        -3.5000 -19.7500 -22.7500 Du        
   2722 ****        -3.5000 -19.7500 -22.5000 Du        
   2723 ****        -3.5000 -19.7500 -22.2500 Du        
   2724 ****        -3.5000 -19.5000 -22.7500 Du        
   2725 ****        -3.5000 -19.5000 -22.5000 Du        
   2726 ****        -3.5000 -19.5000 -22.2500 Du        
   2727 ****        -3.5000 -19.2500 -22.7500 Du        
   2728 ****        -3.5000 -19.2500 -22.5000 Du        
   2729 ****        -3.5000 -19.2500 -22.2500 Du        
   2730 ****        -3.5000 -19.0000 -22.7500 Du        
   2731 ****        -3.5000 -19.0000 -22.5000 Du        
   2732 ****        -3.5000 -19.0000 -22.2500 Du        
   2733 ****        -3.5000 -18.7500 -22.7500 Du        
   2734 ****        -3.5000 -18.7500 -22.5000 Du        
   2735 ****        -3.5000 -18.7500 -22.2500 Du        
   2736 ****        -3.5000 -18.7500 -22.0000 Du        
   2737 ****        -3.5000 -18.5000 -22.5000 Du        
   2738 ****        -3.5000 -18.5000 -22.2500 Du        
   2739 ****        -3.5000 -18.5000 -22.0000 Du        
   2740 ****        -3.5000 -18.2500 -22.5000 Du        
   2741 ****        -3.5000 -18.2500 -22.2500 Du        
   2742 ****        -3.5000 -18.2500 -22.0000 Du        
   2743 ****        -3.5000 -18.0000 -22.5000 Du        
   2744 ****        -3.5000 -18.0000 -22.2500 Du        
   2745 ****        -3.5000 -18.0000 -22.0000 Du        
   2746 ****        -3.2500 -26.5000 -15.2500 Du        
   2747 ****        -3.2500 -26.2500 -15.7500 Du        
   2748 ****        -3.2500 -26.2500 -15.5000 Du        
   2749 ****        -3.2500 -26.2500 -15.2500 Du        
   2750 ****        -3.2500 -26.2500 -15.0000 Du        
   2751 ****        -3.2500 -26.0000 -15.7500 Du        
   2752 ****        -3.2500 -26.0000 -15.5000 Du        
   2753 ****        -3.2500 -26.0000 -15.2500 Du        
   2754 ****        -3.2500 -26.0000 -15.0000 Du        
   2755 ****        -3.2500 -26.0000 -14.7500 Du        
   2756 ****        -3.2500 -25.7500 -15.5000 Du        
   2757 ****        -3.2500 -25.7500 -15.2500 Du        
   2758 ****        -3.2500 -25.7500 -15.0000 Du        
   2759 ****        -3.2500 -25.7500 -14.7500 Du        
   2760 ****        -3.2500 -25.5000 -21.5000 Du        
   2761 ****        -3.2500 -25.5000 -21.2500 Du        
   2762 ****        -3.2500 -25.5000 -21.0000 Du        
   2763 ****        -3.2500 -25.5000 -20.7500 Du        
   2764 ****        -3.2500 -25.5000 -15.5000 Du        
   2765 ****        -3.2500 -25.5000 -15.2500 Du        
   2766 ****        -3.2500 -25.5000 -15.0000 Du        
   2767 ****        -3.2500 -25.5000 -14.7500 Du        
   2768 ****        -3.2500 -25.2500 -21.7500 Du        
   2769 ****        -3.2500 -25.2500 -21.5000 Du        
   2770 ****        -3.2500 -25.2500 -21.2500 Du        
   2771 ****        -3.2500 -25.2500 -21.0000 Du        
   2772 ****        -3.2500 -25.2500 -20.7500 Du        
   2773 ****        -3.2500 -25.2500 -20.5000 Du        
   2774 ****        -3.2500 -25.2500 -15.5000 Du        
   2775 ****        -3.2500 -25.2500 -15.2500 Du        
   2776 ****        -3.2500 -25.2500 -15.0000 Du        
   2777 ****        -3.2500 -25.2500 -14.7500 Du        
   2778 ****        -3.2500 -25.2500 -14.5000 Du        
   2779 ****        -3.2500 -25.0000 -21.7500 Du        
   2780 ****        -3.2500 -25.0000 -21.5000 Du        
   2781 ****        -3.2500 -25.0000 -21.2500 Du        
   2782 ****        -3.2500 -25.0000 -21.0000 Du        
   2783 ****        -3.2500 -25.0000 -20.7500 Du        
   2784 ****        -3.2500 -25.0000 -20.5000 Du        
   2785 ****        -3.2500 -25.0000 -20.2500 Du        
   2786 ****        -3.2500 -25.0000 -15.2500 Du        
   2787 ****        -3.2500 -25.0000 -15.0000 Du        
   2788 ****        -3.2500 -25.0000 -14.7500 Du        
   2789 ****        -3.2500 -25.0000 -14.5000 Du        
   2790 ****        -3.2500 -24.7500 -21.7500 Du        
   2791 ****        -3.2500 -24.7500 -21.5000 Du        
   2792 ****        -3.2500 -24.7500 -21.2500 Du        
   2793 ****        -3.2500 -24.7500 -21.0000 Du        
   2794 ****        -3.2500 -24.7500 -20.7500 Du        
   2795 ****        -3.2500 -24.7500 -20.5000 Du        
   2796 ****        -3.2500 -24.7500 -20.2500 Du        
   2797 ****        -3.2500 -24.5000 -22.0000 Du        
   2798 ****        -3.2500 -24.5000 -21.7500 Du        
   2799 ****        -3.2500 -24.5000 -21.5000 Du        
   2800 ****        -3.2500 -24.5000 -21.2500 Du        
   2801 ****        -3.2500 -24.5000 -21.0000 Du        
   2802 ****        -3.2500 -24.5000 -20.7500 Du        
   2803 ****        -3.2500 -24.5000 -20.5000 Du        
   2804 ****        -3.2500 -24.2500 -21.7500 Du        
   2805 ****        -3.2500 -24.2500 -21.5000 Du        
   2806 ****        -3.2500 -24.2500 -21.2500 Du        
   2807 ****        -3.2500 -24.2500 -21.0000 Du        
   2808 ****        -3.2500 -24.2500 -20.7500 Du        
   2809 ****        -3.2500 -24.2500 -20.5000 Du        
   2810 ****        -3.2500 -24.0000 -21.7500 Du        
   2811 ****        -3.2500 -24.0000 -21.5000 Du        
   2812 ****        -3.2500 -24.0000 -21.2500 Du        
   2813 ****        -3.2500 -24.0000 -21.0000 Du        
   2814 ****        -3.2500 -24.0000 -20.7500 Du        
   2815 ****        -3.2500 -23.7500 -21.7500 Du        
   2816 ****        -3.2500 -23.7500 -21.5000 Du        
   2817 ****        -3.2500 -23.7500 -21.2500 Du        
   2818 ****        -3.2500 -23.7500 -21.0000 Du        
   2819 ****        -3.2500 -23.5000 -21.7500 Du        
   2820 ****        -3.2500 -23.5000 -21.5000 Du        
   2821 ****        -3.2500 -23.5000 -21.2500 Du        
   2822 ****        -3.2500 -23.5000 -21.0000 Du        
   2823 ****        -3.2500 -23.2500 -21.7500 Du        
   2824 ****        -3.2500 -23.2500 -21.5000 Du        
   2825 ****        -3.2500 -23.2500 -21.2500 Du        
   2826 ****        -3.2500 -23.0000 -21.7500 Du        
   2827 ****        -3.2500 -23.0000 -21.5000 Du        
   2828 ****        -3.2500 -22.7500 -21.7500 Du        
   2829 ****        -3.2500 -22.2500 -22.0000 Du        
   2830 ****        -3.2500 -22.0000 -22.2500 Du        
   2831 ****        -3.2500 -22.0000 -22.0000 Du        
   2832 ****        -3.2500 -21.7500 -22.2500 Du        
   2833 ****        -3.2500 -21.7500 -22.0000 Du        
   2834 ****        -3.2500 -21.5000 -22.5000 Du        
   2835 ****        -3.2500 -21.5000 -22.2500 Du        
   2836 ****        -3.2500 -21.5000 -22.0000 Du        
   2837 ****        -3.2500 -21.2500 -22.5000 Du        
   2838 ****        -3.2500 -21.2500 -22.2500 Du        
   2839 ****        -3.2500 -21.2500 -22.0000 Du        
   2840 ****        -3.2500 -21.0000 -22.5000 Du        
   2841 ****        -3.2500 -21.0000 -22.2500 Du        
   2842 ****        -3.2500 -21.0000 -22.0000 Du        
   2843 ****        -3.2500 -20.7500 -22.5000 Du        
   2844 ****        -3.2500 -20.7500 -22.2500 Du        
   2845 ****        -3.2500 -20.7500 -22.0000 Du        
   2846 ****        -3.2500 -20.5000 -22.5000 Du        
   2847 ****        -3.2500 -20.5000 -22.2500 Du        
   2848 ****        -3.2500 -20.2500 -22.5000 Du        
   2849 ****        -3.2500 -20.2500 -22.2500 Du        
   2850 ****        -3.2500 -20.0000 -22.5000 Du        
   2851 ****        -3.2500 -20.0000 -22.2500 Du        
   2852 ****        -3.2500 -19.7500 -22.5000 Du        
   2853 ****        -3.2500 -19.7500 -22.2500 Du        
   2854 ****        -3.2500 -19.5000 -22.5000 Du        
   2855 ****        -3.2500 -19.5000 -22.2500 Du        
   2856 ****        -3.2500 -19.2500 -22.5000 Du        
   2857 ****        -3.2500 -19.2500 -22.2500 Du        
   2858 ****        -3.2500 -19.0000 -22.5000 Du        
   2859 ****        -3.2500 -19.0000 -22.2500 Du        
   2860 ****        -3.2500 -19.0000 -22.0000 Du        
   2861 ****        -3.2500 -18.7500 -22.2500 Du        
   2862 ****        -3.2500 -18.7500 -22.0000 Du        
   2863 ****        -3.2500 -18.5000 -22.2500 Du        
   2864 ****        -3.2500 -18.5000 -22.0000 Du        
   2865 ****        -3.2500 -18.2500 -22.2500 Du        
   2866 ****        -3.2500 -18.2500 -22.0000 Du        
   2867 ****        -3.2500 -18.0000 -22.2500 Du        
   2868 ****        -3.2500 -18.0000 -22.0000 Du        
   2869 ****        -3.2500 -18.0000 -21.7500 Du        
   2870 ****        -3.2500 -17.7500 -22.2500 Du        
   2871 ****        -3.2500 -17.7500 -22.0000 Du        
   2872 ****        -3.0000 -26.5000 -16.0000 Du        
   2873 ****        -3.0000 -26.5000 -15.7500 Du        
   2874 ****        -3.0000 -26.2500 -16.0000 Du        
   2875 ****        -3.0000 -26.2500 -15.7500 Du        
   2876 ****        -3.0000 -26.2500 -15.5000 Du        
   2877 ****        -3.0000 -26.2500 -15.2500 Du        
   2878 ****        -3.0000 -26.2500 -15.0000 Du        
   2879 ****        -3.0000 -26.0000 -16.0000 Du        
   2880 ****        -3.0000 -26.0000 -15.7500 Du        
   2881 ****        -3.0000 -26.0000 -15.5000 Du        
   2882 ****        -3.0000 -26.0000 -15.2500 Du        
   2883 ****        -3.0000 -26.0000 -15.0000 Du        
   2884 ****        -3.0000 -25.7500 -21.7500 Du        
   2885 ****        -3.0000 -25.7500 -21.5000 Du        
   2886 ****        -3.0000 -25.7500 -21.2500 Du        
   2887 ****        -3.0000 -25.7500 -21.0000 Du        
   2888 ****        -3.0000 -25.7500 -20.7500 Du        
   2889 ****        -3.0000 -25.7500 -16.0000 Du        
   2890 ****        -3.0000 -25.7500 -15.7500 Du        
   2891 ****        -3.0000 -25.7500 -15.5000 Du        
   2892 ****        -3.0000 -25.7500 -15.2500 Du        
   2893 ****        -3.0000 -25.7500 -15.0000 Du        
   2894 ****        -3.0000 -25.7500 -14.7500 Du        
   2895 ****        -3.0000 -25.5000 -22.0000 Du        
   2896 ****        -3.0000 -25.5000 -21.7500 Du        
   2897 ****        -3.0000 -25.5000 -21.5000 Du        
   2898 ****        -3.0000 -25.5000 -21.2500 Du        
   2899 ****        -3.0000 -25.5000 -21.0000 Du        
   2900 ****        -3.0000 -25.5000 -20.7500 Du        
   2901 ****        -3.0000 -25.5000 -20.5000 Du        
   2902 ****        -3.0000 -25.5000 -15.7500 Du        
   2903 ****        -3.0000 -25.5000 -15.5000 Du        
   2904 ****        -3.0000 -25.5000 -15.2500 Du        
   2905 ****        -3.0000 -25.5000 -15.0000 Du        
   2906 ****        -3.0000 -25.5000 -14.7500 Du        
   2907 ****        -3.0000 -25.2500 -22.0000 Du        
   2908 ****        -3.0000 -25.2500 -21.7500 Du        
   2909 ****        -3.0000 -25.2500 -21.5000 Du        
   2910 ****        -3.0000 -25.2500 -21.2500 Du        
   2911 ****        -3.0000 -25.2500 -21.0000 Du        
   2912 ****        -3.0000 -25.2500 -20.7500 Du        
   2913 ****        -3.0000 -25.2500 -20.5000 Du        
   2914 ****        -3.0000 -25.2500 -20.2500 Du        
   2915 ****        -3.0000 -25.2500 -15.7500 Du        
   2916 ****        -3.0000 -25.2500 -15.5000 Du        
   2917 ****        -3.0000 -25.2500 -15.2500 Du        
   2918 ****        -3.0000 -25.2500 -15.0000 Du        
   2919 ****        -3.0000 -25.2500 -14.7500 Du        
   2920 ****        -3.0000 -25.0000 -22.0000 Du        
   2921 ****        -3.0000 -25.0000 -21.7500 Du        
   2922 ****        -3.0000 -25.0000 -21.5000 Du        
   2923 ****        -3.0000 -25.0000 -21.2500 Du        
   2924 ****        -3.0000 -25.0000 -21.0000 Du        
   2925 ****        -3.0000 -25.0000 -20.7500 Du        
   2926 ****        -3.0000 -25.0000 -20.5000 Du        
   2927 ****        -3.0000 -25.0000 -20.2500 Du        
   2928 ****        -3.0000 -25.0000 -15.2500 Du        
   2929 ****        -3.0000 -25.0000 -15.0000 Du        
   2930 ****        -3.0000 -25.0000 -14.7500 Du        
   2931 ****        -3.0000 -24.7500 -22.2500 Du        
   2932 ****        -3.0000 -24.7500 -22.0000 Du        
   2933 ****        -3.0000 -24.7500 -21.7500 Du        
   2934 ****        -3.0000 -24.7500 -21.5000 Du        
   2935 ****        -3.0000 -24.7500 -21.2500 Du        
   2936 ****        -3.0000 -24.7500 -21.0000 Du        
   2937 ****        -3.0000 -24.7500 -20.7500 Du        
   2938 ****        -3.0000 -24.7500 -20.5000 Du        
   2939 ****        -3.0000 -24.7500 -20.2500 Du        
   2940 ****        -3.0000 -24.7500 -15.0000 Du        
   2941 ****        -3.0000 -24.5000 -22.2500 Du        
   2942 ****        -3.0000 -24.5000 -22.0000 Du        
   2943 ****        -3.0000 -24.5000 -21.7500 Du        
   2944 ****        -3.0000 -24.5000 -21.5000 Du        
   2945 ****        -3.0000 -24.5000 -21.2500 Du        
   2946 ****        -3.0000 -24.5000 -21.0000 Du        
   2947 ****        -3.0000 -24.5000 -20.7500 Du        
   2948 ****        -3.0000 -24.5000 -20.5000 Du        
   2949 ****        -3.0000 -24.2500 -22.2500 Du        
   2950 ****        -3.0000 -24.2500 -22.0000 Du        
   2951 ****        -3.0000 -24.2500 -21.7500 Du        
   2952 ****        -3.0000 -24.2500 -21.5000 Du        
   2953 ****        -3.0000 -24.2500 -21.2500 Du        
   2954 ****        -3.0000 -24.2500 -21.0000 Du        
   2955 ****        -3.0000 -24.2500 -20.7500 Du        
   2956 ****        -3.0000 -24.2500 -20.5000 Du        
   2957 ****        -3.0000 -24.0000 -22.2500 Du        
   2958 ****        -3.0000 -24.0000 -22.0000 Du        
   2959 ****        -3.0000 -24.0000 -21.7500 Du        
   2960 ****        -3.0000 -24.0000 -21.5000 Du        
   2961 ****        -3.0000 -24.0000 -21.2500 Du        
   2962 ****        -3.0000 -24.0000 -21.0000 Du        
   2963 ****        -3.0000 -24.0000 -20.7500 Du        
   2964 ****        -3.0000 -23.7500 -22.2500 Du        
   2965 ****        -3.0000 -23.7500 -22.0000 Du        
   2966 ****        -3.0000 -23.7500 -21.7500 Du        
   2967 ****        -3.0000 -23.7500 -21.5000 Du        
   2968 ****        -3.0000 -23.7500 -21.2500 Du        
   2969 ****        -3.0000 -23.7500 -21.0000 Du        
   2970 ****        -3.0000 -23.7500 -20.7500 Du        
   2971 ****        -3.0000 -23.5000 -22.2500 Du        
   2972 ****        -3.0000 -23.5000 -22.0000 Du        
   2973 ****        -3.0000 -23.5000 -21.7500 Du        
   2974 ****        -3.0000 -23.5000 -21.5000 Du        
   2975 ****        -3.0000 -23.5000 -21.2500 Du        
   2976 ****        -3.0000 -23.5000 -21.0000 Du        
   2977 ****        -3.0000 -23.2500 -22.2500 Du        
   2978 ****        -3.0000 -23.2500 -22.0000 Du        
   2979 ****        -3.0000 -23.2500 -21.7500 Du        
   2980 ****        -3.0000 -23.2500 -21.5000 Du        
   2981 ****        -3.0000 -23.2500 -21.2500 Du        
   2982 ****        -3.0000 -23.0000 -22.2500 Du        
   2983 ****        -3.0000 -23.0000 -22.0000 Du        
   2984 ****        -3.0000 -23.0000 -21.7500 Du        
   2985 ****        -3.0000 -23.0000 -21.5000 Du        
   2986 ****        -3.0000 -22.7500 -22.2500 Du        
   2987 ****        -3.0000 -22.7500 -22.0000 Du        
   2988 ****        -3.0000 -22.7500 -21.7500 Du        
   2989 ****        -3.0000 -22.7500 -21.5000 Du        
   2990 ****        -3.0000 -22.5000 -22.2500 Du        
   2991 ****        -3.0000 -22.5000 -22.0000 Du        
   2992 ****        -3.0000 -22.5000 -21.7500 Du        
   2993 ****        -3.0000 -22.2500 -22.2500 Du        
   2994 ****        -3.0000 -22.2500 -22.0000 Du        
   2995 ****        -3.0000 -22.2500 -21.7500 Du        
   2996 ****        -3.0000 -22.0000 -22.2500 Du        
   2997 ****        -3.0000 -22.0000 -22.0000 Du        
   2998 ****        -3.0000 -22.0000 -21.7500 Du        
   2999 ****        -3.0000 -21.7500 -22.2500 Du        
   3000 ****        -3.0000 -21.7500 -22.0000 Du        
   3001 ****        -3.0000 -21.7500 -21.7500 Du        
   3002 ****        -3.0000 -21.5000 -22.2500 Du        
   3003 ****        -3.0000 -21.5000 -22.0000 Du        
   3004 ****        -3.0000 -21.2500 -22.2500 Du        
   3005 ****        -3.0000 -21.2500 -22.0000 Du        
   3006 ****        -3.0000 -21.0000 -22.2500 Du        
   3007 ****        -3.0000 -21.0000 -22.0000 Du        
   3008 ****        -3.0000 -20.7500 -22.2500 Du        
   3009 ****        -3.0000 -20.7500 -22.0000 Du        
   3010 ****        -3.0000 -20.5000 -22.2500 Du        
   3011 ****        -3.0000 -20.5000 -22.0000 Du        
   3012 ****        -3.0000 -20.2500 -22.2500 Du        
   3013 ****        -3.0000 -20.2500 -22.0000 Du        
   3014 ****        -3.0000 -20.0000 -22.2500 Du        
   3015 ****        -3.0000 -20.0000 -22.0000 Du        
   3016 ****        -3.0000 -19.7500 -22.2500 Du        
   3017 ****        -3.0000 -19.2500 -22.0000 Du        
   3018 ****        -3.0000 -19.0000 -22.0000 Du        
   3019 ****        -3.0000 -18.7500 -22.0000 Du        
   3020 ****        -3.0000 -18.5000 -22.0000 Du        
   3021 ****        -3.0000 -18.2500 -22.0000 Du        
   3022 ****        -3.0000 -18.2500 -21.7500 Du        
   3023 ****        -3.0000 -18.0000 -22.0000 Du        
   3024 ****        -3.0000 -18.0000 -21.7500 Du        
   3025 ****        -3.0000 -17.7500 -22.0000 Du        
   3026 ****        -3.0000 -17.7500 -21.7500 Du        
   3027 ****        -3.0000 -16.7500 -17.0000 Du        
   3028 ****        -2.7500 -27.0000 -16.2500 Du        
   3029 ****        -2.7500 -27.0000 -16.0000 Du        
   3030 ****        -2.7500 -26.7500 -16.2500 Du        
   3031 ****        -2.7500 -26.7500 -16.0000 Du        
   3032 ****        -2.7500 -26.7500 -15.7500 Du        
   3033 ****        -2.7500 -26.5000 -16.2500 Du        
   3034 ****        -2.7500 -26.5000 -16.0000 Du        
   3035 ****        -2.7500 -26.5000 -15.7500 Du        
   3036 ****        -2.7500 -26.2500 -16.2500 Du        
   3037 ****        -2.7500 -26.2500 -16.0000 Du        
   3038 ****        -2.7500 -26.2500 -15.7500 Du        
   3039 ****        -2.7500 -26.2500 -15.5000 Du        
   3040 ****        -2.7500 -26.2500 -15.2500 Du        
   3041 ****        -2.7500 -26.2500 -15.0000 Du        
   3042 ****        -2.7500 -26.0000 -21.7500 Du        
   3043 ****        -2.7500 -26.0000 -21.5000 Du        
   3044 ****        -2.7500 -26.0000 -21.2500 Du        
   3045 ****        -2.7500 -26.0000 -21.0000 Du        
   3046 ****        -2.7500 -26.0000 -20.7500 Du        
   3047 ****        -2.7500 -26.0000 -16.2500 Du        
   3048 ****        -2.7500 -26.0000 -16.0000 Du        
   3049 ****        -2.7500 -26.0000 -15.7500 Du        
   3050 ****        -2.7500 -26.0000 -15.5000 Du        
   3051 ****        -2.7500 -26.0000 -15.2500 Du        
   3052 ****        -2.7500 -26.0000 -15.0000 Du        
   3053 ****        -2.7500 -26.0000 -14.7500 Du        
   3054 ****        -2.7500 -25.7500 -22.0000 Du        
   3055 ****        -2.7500 -25.7500 -21.7500 Du        
   3056 ****        -2.7500 -25.7500 -21.5000 Du        
   3057 ****        -2.7500 -25.7500 -21.2500 Du        
   3058 ****        -2.7500 -25.7500 -21.0000 Du        
   3059 ****        -2.7500 -25.7500 -20.7500 Du        
   3060 ****        -2.7500 -25.7500 -20.5000 Du        
   3061 ****        -2.7500 -25.7500 -16.2500 Du        
   3062 ****        -2.7500 -25.7500 -16.0000 Du        
   3063 ****        -2.7500 -25.7500 -15.7500 Du        
   3064 ****        -2.7500 -25.7500 -15.5000 Du        
   3065 ****        -2.7500 -25.7500 -15.2500 Du        
   3066 ****        -2.7500 -25.7500 -15.0000 Du        
   3067 ****        -2.7500 -25.7500 -14.7500 Du        
   3068 ****        -2.7500 -25.5000 -22.2500 Du        
   3069 ****        -2.7500 -25.5000 -22.0000 Du        
   3070 ****        -2.7500 -25.5000 -21.7500 Du        
   3071 ****        -2.7500 -25.5000 -21.5000 Du        
   3072 ****        -2.7500 -25.5000 -21.2500 Du        
   3073 ****        -2.7500 -25.5000 -21.0000 Du        
   3074 ****        -2.7500 -25.5000 -20.7500 Du        
   3075 ****        -2.7500 -25.5000 -20.5000 Du        
   3076 ****        -2.7500 -25.5000 -16.0000 Du        
   3077 ****        -2.7500 -25.5000 -15.7500 Du        
   3078 ****        -2.7500 -25.5000 -15.5000 Du        
   3079 ****        -2.7500 -25.5000 -15.2500 Du        
   3080 ****        -2.7500 -25.5000 -15.0000 Du        
   3081 ****        -2.7500 -25.5000 -14.7500 Du        
   3082 ****        -2.7500 -25.2500 -22.2500 Du        
   3083 ****        -2.7500 -25.2500 -22.0000 Du        
   3084 ****        -2.7500 -25.2500 -21.7500 Du        
   3085 ****        -2.7500 -25.2500 -21.5000 Du        
   3086 ****        -2.7500 -25.2500 -21.2500 Du        
   3087 ****        -2.7500 -25.2500 -21.0000 Du        
   3088 ****        -2.7500 -25.2500 -20.7500 Du        
   3089 ****        -2.7500 -25.2500 -20.5000 Du        
   3090 ****        -2.7500 -25.2500 -16.0000 Du        
   3091 ****        -2.7500 -25.2500 -15.7500 Du        
   3092 ****        -2.7500 -25.2500 -15.5000 Du        
   3093 ****        -2.7500 -25.2500 -15.2500 Du        
   3094 ****        -2.7500 -25.2500 -15.0000 Du        
   3095 ****        -2.7500 -25.2500 -14.7500 Du        
   3096 ****        -2.7500 -25.0000 -22.5000 Du        
   3097 ****        -2.7500 -25.0000 -22.2500 Du        
   3098 ****        -2.7500 -25.0000 -22.0000 Du        
   3099 ****        -2.7500 -25.0000 -21.7500 Du        
   3100 ****        -2.7500 -25.0000 -21.5000 Du        
   3101 ****        -2.7500 -25.0000 -21.2500 Du        
   3102 ****        -2.7500 -25.0000 -21.0000 Du        
   3103 ****        -2.7500 -25.0000 -20.7500 Du        
   3104 ****        -2.7500 -25.0000 -20.5000 Du        
   3105 ****        -2.7500 -25.0000 -15.5000 Du        
   3106 ****        -2.7500 -25.0000 -15.2500 Du        
   3107 ****        -2.7500 -25.0000 -15.0000 Du        
   3108 ****        -2.7500 -25.0000 -14.7500 Du        
   3109 ****        -2.7500 -24.7500 -22.5000 Du        
   3110 ****        -2.7500 -24.7500 -22.2500 Du        
   3111 ****        -2.7500 -24.7500 -22.0000 Du        
   3112 ****        -2.7500 -24.7500 -21.7500 Du        
   3113 ****        -2.7500 -24.7500 -21.5000 Du        
   3114 ****        -2.7500 -24.7500 -21.2500 Du        
   3115 ****        -2.7500 -24.7500 -21.0000 Du        
   3116 ****        -2.7500 -24.7500 -20.7500 Du        
   3117 ****        -2.7500 -24.7500 -20.5000 Du        
   3118 ****        -2.7500 -24.7500 -15.2500 Du        
   3119 ****        -2.7500 -24.7500 -15.0000 Du        
   3120 ****        -2.7500 -24.7500 -14.7500 Du        
   3121 ****        -2.7500 -24.5000 -22.7500 Du        
   3122 ****        -2.7500 -24.5000 -22.5000 Du        
   3123 ****        -2.7500 -24.5000 -22.2500 Du        
   3124 ****        -2.7500 -24.5000 -22.0000 Du        
   3125 ****        -2.7500 -24.5000 -21.7500 Du        
   3126 ****        -2.7500 -24.5000 -21.5000 Du        
   3127 ****        -2.7500 -24.5000 -21.2500 Du        
   3128 ****        -2.7500 -24.5000 -21.0000 Du        
   3129 ****        -2.7500 -24.5000 -20.7500 Du        
   3130 ****        -2.7500 -24.2500 -22.7500 Du        
   3131 ****        -2.7500 -24.2500 -22.5000 Du        
   3132 ****        -2.7500 -24.2500 -22.2500 Du        
   3133 ****        -2.7500 -24.2500 -22.0000 Du        
   3134 ****        -2.7500 -24.2500 -21.7500 Du        
   3135 ****        -2.7500 -24.2500 -21.5000 Du        
   3136 ****        -2.7500 -24.2500 -21.2500 Du        
   3137 ****        -2.7500 -24.2500 -21.0000 Du        
   3138 ****        -2.7500 -24.2500 -20.7500 Du        
   3139 ****        -2.7500 -24.0000 -22.7500 Du        
   3140 ****        -2.7500 -24.0000 -22.5000 Du        
   3141 ****        -2.7500 -24.0000 -22.2500 Du        
   3142 ****        -2.7500 -24.0000 -22.0000 Du        
   3143 ****        -2.7500 -24.0000 -21.7500 Du        
   3144 ****        -2.7500 -24.0000 -21.5000 Du        
   3145 ****        -2.7500 -24.0000 -21.2500 Du        
   3146 ****        -2.7500 -24.0000 -21.0000 Du        
   3147 ****        -2.7500 -24.0000 -20.7500 Du        
   3148 ****        -2.7500 -23.7500 -22.7500 Du        
   3149 ****        -2.7500 -23.7500 -22.5000 Du        
   3150 ****        -2.7500 -23.7500 -22.2500 Du        
   3151 ****        -2.7500 -23.7500 -22.0000 Du        
   3152 ****        -2.7500 -23.7500 -21.7500 Du        
   3153 ****        -2.7500 -23.7500 -21.5000 Du        
   3154 ****        -2.7500 -23.7500 -21.2500 Du        
   3155 ****        -2.7500 -23.7500 -21.0000 Du        
   3156 ****        -2.7500 -23.5000 -22.7500 Du        
   3157 ****        -2.7500 -23.5000 -22.5000 Du        
   3158 ****        -2.7500 -23.5000 -22.2500 Du        
   3159 ****        -2.7500 -23.5000 -22.0000 Du        
   3160 ****        -2.7500 -23.5000 -21.7500 Du        
   3161 ****        -2.7500 -23.5000 -21.5000 Du        
   3162 ****        -2.7500 -23.5000 -21.2500 Du        
   3163 ****        -2.7500 -23.2500 -22.7500 Du        
   3164 ****        -2.7500 -23.2500 -22.5000 Du        
   3165 ****        -2.7500 -23.2500 -22.2500 Du        
   3166 ****        -2.7500 -23.2500 -22.0000 Du        
   3167 ****        -2.7500 -23.2500 -21.7500 Du        
   3168 ****        -2.7500 -23.2500 -21.5000 Du        
   3169 ****        -2.7500 -23.0000 -22.5000 Du        
   3170 ****        -2.7500 -23.0000 -22.2500 Du        
   3171 ****        -2.7500 -23.0000 -22.0000 Du        
   3172 ****        -2.7500 -23.0000 -21.7500 Du        
   3173 ****        -2.7500 -22.7500 -22.5000 Du        
   3174 ****        -2.7500 -22.7500 -22.2500 Du        
   3175 ****        -2.7500 -22.7500 -22.0000 Du        
   3176 ****        -2.7500 -22.7500 -21.7500 Du        
   3177 ****        -2.7500 -22.5000 -22.2500 Du        
   3178 ****        -2.7500 -18.0000 -21.7500 Du        
   3179 ****        -2.7500 -17.2500 -17.0000 Du        
   3180 ****        -2.7500 -17.0000 -17.0000 Du        
   3181 ****        -2.7500 -16.7500 -17.0000 Du        
   3182 ****        -2.5000 -28.5000 -16.7500 Du        
   3183 ****        -2.5000 -28.2500 -16.7500 Du        
   3184 ****        -2.5000 -28.0000 -16.7500 Du        
   3185 ****        -2.5000 -28.0000 -16.2500 Du        
   3186 ****        -2.5000 -27.7500 -16.2500 Du        
   3187 ****        -2.5000 -27.5000 -16.7500 Du        
   3188 ****        -2.5000 -27.2500 -16.7500 Du        
   3189 ****        -2.5000 -27.2500 -16.2500 Du        
   3190 ****        -2.5000 -27.2500 -16.0000 Du        
   3191 ****        -2.5000 -27.0000 -16.7500 Du        
   3192 ****        -2.5000 -27.0000 -16.5000 Du        
   3193 ****        -2.5000 -27.0000 -16.2500 Du        
   3194 ****        -2.5000 -27.0000 -16.0000 Du        
   3195 ****        -2.5000 -27.0000 -15.7500 Du        
   3196 ****        -2.5000 -26.7500 -16.7500 Du        
   3197 ****        -2.5000 -26.7500 -16.5000 Du        
   3198 ****        -2.5000 -26.7500 -16.2500 Du        
   3199 ****        -2.5000 -26.7500 -16.0000 Du        
   3200 ****        -2.5000 -26.7500 -15.7500 Du        
   3201 ****        -2.5000 -26.5000 -16.7500 Du        
   3202 ****        -2.5000 -26.5000 -16.5000 Du        
   3203 ****        -2.5000 -26.5000 -16.2500 Du        
   3204 ****        -2.5000 -26.5000 -16.0000 Du        
   3205 ****        -2.5000 -26.5000 -15.7500 Du        
   3206 ****        -2.5000 -26.2500 -16.7500 Du        
   3207 ****        -2.5000 -26.2500 -16.5000 Du        
   3208 ****        -2.5000 -26.2500 -16.2500 Du        
   3209 ****        -2.5000 -26.2500 -16.0000 Du        
   3210 ****        -2.5000 -26.2500 -15.7500 Du        
   3211 ****        -2.5000 -26.2500 -15.5000 Du        
   3212 ****        -2.5000 -26.2500 -15.2500 Du        
   3213 ****        -2.5000 -26.0000 -22.2500 Du        
   3214 ****        -2.5000 -26.0000 -22.0000 Du        
   3215 ****        -2.5000 -26.0000 -21.7500 Du        
   3216 ****        -2.5000 -26.0000 -21.5000 Du        
   3217 ****        -2.5000 -26.0000 -21.2500 Du        
   3218 ****        -2.5000 -26.0000 -21.0000 Du        
   3219 ****        -2.5000 -26.0000 -17.0000 Du        
   3220 ****        -2.5000 -26.0000 -16.7500 Du        
   3221 ****        -2.5000 -26.0000 -16.5000 Du        
   3222 ****        -2.5000 -26.0000 -16.2500 Du        
   3223 ****        -2.5000 -26.0000 -16.0000 Du        
   3224 ****        -2.5000 -26.0000 -15.7500 Du        
   3225 ****        -2.5000 -26.0000 -15.5000 Du        
   3226 ****        -2.5000 -26.0000 -15.2500 Du        
   3227 ****        -2.5000 -26.0000 -15.0000 Du        
   3228 ****        -2.5000 -26.0000 -14.7500 Du        
   3229 ****        -2.5000 -25.7500 -22.5000 Du        
   3230 ****        -2.5000 -25.7500 -22.2500 Du        
   3231 ****        -2.5000 -25.7500 -22.0000 Du        
   3232 ****        -2.5000 -25.7500 -21.7500 Du        
   3233 ****        -2.5000 -25.7500 -21.5000 Du        
   3234 ****        -2.5000 -25.7500 -21.2500 Du        
   3235 ****        -2.5000 -25.7500 -21.0000 Du        
   3236 ****        -2.5000 -25.7500 -20.7500 Du        
   3237 ****        -2.5000 -25.7500 -16.7500 Du        
   3238 ****        -2.5000 -25.7500 -16.5000 Du        
   3239 ****        -2.5000 -25.7500 -16.2500 Du        
   3240 ****        -2.5000 -25.7500 -16.0000 Du        
   3241 ****        -2.5000 -25.7500 -15.7500 Du        
   3242 ****        -2.5000 -25.7500 -15.5000 Du        
   3243 ****        -2.5000 -25.7500 -15.2500 Du        
   3244 ****        -2.5000 -25.7500 -15.0000 Du        
   3245 ****        -2.5000 -25.7500 -14.7500 Du        
   3246 ****        -2.5000 -25.5000 -22.5000 Du        
   3247 ****        -2.5000 -25.5000 -22.2500 Du        
   3248 ****        -2.5000 -25.5000 -22.0000 Du        
   3249 ****        -2.5000 -25.5000 -21.7500 Du        
   3250 ****        -2.5000 -25.5000 -21.5000 Du        
   3251 ****        -2.5000 -25.5000 -21.2500 Du        
   3252 ****        -2.5000 -25.5000 -21.0000 Du        
   3253 ****        -2.5000 -25.5000 -20.7500 Du        
   3254 ****        -2.5000 -25.5000 -16.7500 Du        
   3255 ****        -2.5000 -25.5000 -16.5000 Du        
   3256 ****        -2.5000 -25.5000 -16.2500 Du        
   3257 ****        -2.5000 -25.5000 -16.0000 Du        
   3258 ****        -2.5000 -25.5000 -15.7500 Du        
   3259 ****        -2.5000 -25.5000 -15.5000 Du        
   3260 ****        -2.5000 -25.5000 -15.2500 Du        
   3261 ****        -2.5000 -25.5000 -15.0000 Du        
   3262 ****        -2.5000 -25.5000 -14.7500 Du        
   3263 ****        -2.5000 -25.2500 -22.7500 Du        
   3264 ****        -2.5000 -25.2500 -22.5000 Du        
   3265 ****        -2.5000 -25.2500 -22.2500 Du        
   3266 ****        -2.5000 -25.2500 -22.0000 Du        
   3267 ****        -2.5000 -25.2500 -21.7500 Du        
   3268 ****        -2.5000 -25.2500 -21.5000 Du        
   3269 ****        -2.5000 -25.2500 -21.2500 Du        
   3270 ****        -2.5000 -25.2500 -21.0000 Du        
   3271 ****        -2.5000 -25.2500 -20.7500 Du        
   3272 ****        -2.5000 -25.2500 -16.2500 Du        
   3273 ****        -2.5000 -25.2500 -16.0000 Du        
   3274 ****        -2.5000 -25.2500 -15.7500 Du        
   3275 ****        -2.5000 -25.2500 -15.5000 Du        
   3276 ****        -2.5000 -25.2500 -15.2500 Du        
   3277 ****        -2.5000 -25.2500 -15.0000 Du        
   3278 ****        -2.5000 -25.2500 -14.7500 Du        
   3279 ****        -2.5000 -25.0000 -22.7500 Du        
   3280 ****        -2.5000 -25.0000 -22.5000 Du        
   3281 ****        -2.5000 -25.0000 -22.2500 Du        
   3282 ****        -2.5000 -25.0000 -22.0000 Du        
   3283 ****        -2.5000 -25.0000 -21.7500 Du        
   3284 ****        -2.5000 -25.0000 -21.5000 Du        
   3285 ****        -2.5000 -25.0000 -21.2500 Du        
   3286 ****        -2.5000 -25.0000 -21.0000 Du        
   3287 ****        -2.5000 -25.0000 -20.7500 Du        
   3288 ****        -2.5000 -25.0000 -16.0000 Du        
   3289 ****        -2.5000 -25.0000 -15.7500 Du        
   3290 ****        -2.5000 -25.0000 -15.5000 Du        
   3291 ****        -2.5000 -25.0000 -15.2500 Du        
   3292 ****        -2.5000 -25.0000 -15.0000 Du        
   3293 ****        -2.5000 -25.0000 -14.7500 Du        
   3294 ****        -2.5000 -25.0000 -14.5000 Du        
   3295 ****        -2.5000 -24.7500 -23.0000 Du        
   3296 ****        -2.5000 -24.7500 -22.7500 Du        
   3297 ****        -2.5000 -24.7500 -22.5000 Du        
   3298 ****        -2.5000 -24.7500 -22.2500 Du        
   3299 ****        -2.5000 -24.7500 -22.0000 Du        
   3300 ****        -2.5000 -24.7500 -21.7500 Du        
   3301 ****        -2.5000 -24.7500 -21.5000 Du        
   3302 ****        -2.5000 -24.7500 -21.2500 Du        
   3303 ****        -2.5000 -24.7500 -21.0000 Du        
   3304 ****        -2.5000 -24.7500 -15.2500 Du        
   3305 ****        -2.5000 -24.7500 -15.0000 Du        
   3306 ****        -2.5000 -24.7500 -14.7500 Du        
   3307 ****        -2.5000 -24.5000 -23.0000 Du        
   3308 ****        -2.5000 -24.5000 -22.7500 Du        
   3309 ****        -2.5000 -24.5000 -22.5000 Du        
   3310 ****        -2.5000 -24.5000 -22.2500 Du        
   3311 ****        -2.5000 -24.5000 -22.0000 Du        
   3312 ****        -2.5000 -24.5000 -21.7500 Du        
   3313 ****        -2.5000 -24.5000 -21.5000 Du        
   3314 ****        -2.5000 -24.5000 -21.2500 Du        
   3315 ****        -2.5000 -24.5000 -21.0000 Du        
   3316 ****        -2.5000 -24.5000 -14.7500 Du        
   3317 ****        -2.5000 -24.2500 -23.2500 Du        
   3318 ****        -2.5000 -24.2500 -23.0000 Du        
   3319 ****        -2.5000 -24.2500 -22.7500 Du        
   3320 ****        -2.5000 -24.2500 -22.5000 Du        
   3321 ****        -2.5000 -24.2500 -22.2500 Du        
   3322 ****        -2.5000 -24.2500 -22.0000 Du        
   3323 ****        -2.5000 -24.2500 -21.7500 Du        
   3324 ****        -2.5000 -24.2500 -21.5000 Du        
   3325 ****        -2.5000 -24.2500 -21.2500 Du        
   3326 ****        -2.5000 -24.2500 -21.0000 Du        
   3327 ****        -2.5000 -24.0000 -23.2500 Du        
   3328 ****        -2.5000 -24.0000 -23.0000 Du        
   3329 ****        -2.5000 -24.0000 -22.7500 Du        
   3330 ****        -2.5000 -24.0000 -22.5000 Du        
   3331 ****        -2.5000 -24.0000 -22.2500 Du        
   3332 ****        -2.5000 -24.0000 -22.0000 Du        
   3333 ****        -2.5000 -24.0000 -21.7500 Du        
   3334 ****        -2.5000 -24.0000 -21.5000 Du        
   3335 ****        -2.5000 -24.0000 -21.2500 Du        
   3336 ****        -2.5000 -23.7500 -23.0000 Du        
   3337 ****        -2.5000 -23.7500 -22.7500 Du        
   3338 ****        -2.5000 -23.7500 -22.5000 Du        
   3339 ****        -2.5000 -23.7500 -22.2500 Du        
   3340 ****        -2.5000 -23.7500 -22.0000 Du        
   3341 ****        -2.5000 -23.7500 -21.7500 Du        
   3342 ****        -2.5000 -23.7500 -21.5000 Du        
   3343 ****        -2.5000 -23.7500 -21.2500 Du        
   3344 ****        -2.5000 -23.5000 -23.0000 Du        
   3345 ****        -2.5000 -23.5000 -22.7500 Du        
   3346 ****        -2.5000 -23.5000 -22.5000 Du        
   3347 ****        -2.5000 -23.5000 -22.2500 Du        
   3348 ****        -2.5000 -23.5000 -22.0000 Du        
   3349 ****        -2.5000 -23.5000 -21.7500 Du        
   3350 ****        -2.5000 -23.5000 -21.5000 Du        
   3351 ****        -2.5000 -23.2500 -22.7500 Du        
   3352 ****        -2.5000 -23.2500 -22.5000 Du        
   3353 ****        -2.5000 -23.2500 -22.2500 Du        
   3354 ****        -2.5000 -23.2500 -22.0000 Du        
   3355 ****        -2.5000 -23.2500 -21.7500 Du        
   3356 ****        -2.5000 -23.0000 -22.5000 Du        
   3357 ****        -2.5000 -23.0000 -22.2500 Du        
   3358 ****        -2.5000 -23.0000 -22.0000 Du        
   3359 ****        -2.5000 -22.7500 -22.5000 Du        
   3360 ****        -2.5000 -22.7500 -22.2500 Du        
   3361 ****        -2.5000 -17.2500 -17.0000 Du        
   3362 ****        -2.5000 -17.0000 -17.0000 Du        
   3363 ****        -2.5000 -17.0000 -16.7500 Du        
   3364 ****        -2.5000 -16.7500 -16.7500 Du        
   3365 ****        -2.5000 -16.0000 -16.5000 Du        
   3366 ****        -2.5000 -15.7500 -16.5000 Du        
   3367 ****        -2.2500 -29.2500 -17.0000 Du        
   3368 ****        -2.2500 -29.2500 -16.7500 Du        
   3369 ****        -2.2500 -29.0000 -17.2500 Du        
   3370 ****        -2.2500 -29.0000 -17.0000 Du        
   3371 ****        -2.2500 -29.0000 -16.7500 Du        
   3372 ****        -2.2500 -28.7500 -17.5000 Du        
   3373 ****        -2.2500 -28.7500 -17.2500 Du        
   3374 ****        -2.2500 -28.7500 -17.0000 Du        
   3375 ****        -2.2500 -28.7500 -16.7500 Du        
   3376 ****        -2.2500 -28.5000 -17.2500 Du        
   3377 ****        -2.2500 -28.5000 -17.0000 Du        
   3378 ****        -2.2500 -28.5000 -16.7500 Du        
   3379 ****        -2.2500 -28.2500 -17.2500 Du        
   3380 ****        -2.2500 -28.2500 -17.0000 Du        
   3381 ****        -2.2500 -28.2500 -16.7500 Du        
   3382 ****        -2.2500 -28.0000 -17.2500 Du        
   3383 ****        -2.2500 -28.0000 -17.0000 Du        
   3384 ****        -2.2500 -28.0000 -16.7500 Du        
   3385 ****        -2.2500 -28.0000 -16.5000 Du        
   3386 ****        -2.2500 -28.0000 -16.2500 Du        
   3387 ****        -2.2500 -27.7500 -17.0000 Du        
   3388 ****        -2.2500 -27.7500 -16.7500 Du        
   3389 ****        -2.2500 -27.7500 -16.5000 Du        
   3390 ****        -2.2500 -27.7500 -16.2500 Du        
   3391 ****        -2.2500 -27.5000 -17.0000 Du        
   3392 ****        -2.2500 -27.5000 -16.7500 Du        
   3393 ****        -2.2500 -27.5000 -16.5000 Du        
   3394 ****        -2.2500 -27.2500 -17.0000 Du        
   3395 ****        -2.2500 -27.2500 -16.7500 Du        
   3396 ****        -2.2500 -27.2500 -16.5000 Du        
   3397 ****        -2.2500 -27.2500 -16.2500 Du        
   3398 ****        -2.2500 -27.2500 -16.0000 Du        
   3399 ****        -2.2500 -27.0000 -17.0000 Du        
   3400 ****        -2.2500 -27.0000 -16.7500 Du        
   3401 ****        -2.2500 -27.0000 -16.5000 Du        
   3402 ****        -2.2500 -27.0000 -16.2500 Du        
   3403 ****        -2.2500 -27.0000 -16.0000 Du        
   3404 ****        -2.2500 -26.7500 -17.0000 Du        
   3405 ****        -2.2500 -26.7500 -16.7500 Du        
   3406 ****        -2.2500 -26.7500 -16.5000 Du        
   3407 ****        -2.2500 -26.7500 -16.2500 Du        
   3408 ****        -2.2500 -26.7500 -16.0000 Du        
   3409 ****        -2.2500 -26.7500 -15.7500 Du        
   3410 ****        -2.2500 -26.5000 -17.2500 Du        
   3411 ****        -2.2500 -26.5000 -17.0000 Du        
   3412 ****        -2.2500 -26.5000 -16.7500 Du        
   3413 ****        -2.2500 -26.5000 -16.5000 Du        
   3414 ****        -2.2500 -26.5000 -16.2500 Du        
   3415 ****        -2.2500 -26.5000 -16.0000 Du        
   3416 ****        -2.2500 -26.5000 -15.7500 Du        
   3417 ****        -2.2500 -26.5000 -15.5000 Du        
   3418 ****        -2.2500 -26.2500 -17.2500 Du        
   3419 ****        -2.2500 -26.2500 -17.0000 Du        
   3420 ****        -2.2500 -26.2500 -16.7500 Du        
   3421 ****        -2.2500 -26.2500 -16.5000 Du        
   3422 ****        -2.2500 -26.2500 -16.2500 Du        
   3423 ****        -2.2500 -26.2500 -16.0000 Du        
   3424 ****        -2.2500 -26.2500 -15.7500 Du        
   3425 ****        -2.2500 -26.2500 -15.5000 Du        
   3426 ****        -2.2500 -26.2500 -15.2500 Du        
   3427 ****        -2.2500 -26.2500 -15.0000 Du        
   3428 ****        -2.2500 -26.0000 -22.2500 Du        
   3429 ****        -2.2500 -26.0000 -22.0000 Du        
   3430 ****        -2.2500 -26.0000 -21.7500 Du        
   3431 ****        -2.2500 -26.0000 -21.5000 Du        
   3432 ****        -2.2500 -26.0000 -17.2500 Du        
   3433 ****        -2.2500 -26.0000 -17.0000 Du        
   3434 ****        -2.2500 -26.0000 -16.7500 Du        
   3435 ****        -2.2500 -26.0000 -16.5000 Du        
   3436 ****        -2.2500 -26.0000 -16.2500 Du        
   3437 ****        -2.2500 -26.0000 -16.0000 Du        
   3438 ****        -2.2500 -26.0000 -15.7500 Du        
   3439 ****        -2.2500 -26.0000 -15.5000 Du        
   3440 ****        -2.2500 -26.0000 -15.2500 Du        
   3441 ****        -2.2500 -26.0000 -15.0000 Du        
   3442 ****        -2.2500 -25.7500 -22.7500 Du        
   3443 ****        -2.2500 -25.7500 -22.5000 Du        
   3444 ****        -2.2500 -25.7500 -22.2500 Du        
   3445 ****        -2.2500 -25.7500 -22.0000 Du        
   3446 ****        -2.2500 -25.7500 -21.7500 Du        
   3447 ****        -2.2500 -25.7500 -21.5000 Du        
   3448 ****        -2.2500 -25.7500 -21.2500 Du        
   3449 ****        -2.2500 -25.7500 -17.0000 Du        
   3450 ****        -2.2500 -25.7500 -16.7500 Du        
   3451 ****        -2.2500 -25.7500 -16.5000 Du        
   3452 ****        -2.2500 -25.7500 -16.2500 Du        
   3453 ****        -2.2500 -25.7500 -16.0000 Du        
   3454 ****        -2.2500 -25.7500 -15.7500 Du        
   3455 ****        -2.2500 -25.7500 -15.5000 Du        
   3456 ****        -2.2500 -25.7500 -15.2500 Du        
   3457 ****        -2.2500 -25.7500 -15.0000 Du        
   3458 ****        -2.2500 -25.7500 -14.7500 Du        
   3459 ****        -2.2500 -25.5000 -22.7500 Du        
   3460 ****        -2.2500 -25.5000 -22.5000 Du        
   3461 ****        -2.2500 -25.5000 -22.2500 Du        
   3462 ****        -2.2500 -25.5000 -22.0000 Du        
   3463 ****        -2.2500 -25.5000 -21.7500 Du        
   3464 ****        -2.2500 -25.5000 -21.5000 Du        
   3465 ****        -2.2500 -25.5000 -21.2500 Du        
   3466 ****        -2.2500 -25.5000 -21.0000 Du        
   3467 ****        -2.2500 -25.5000 -17.0000 Du        
   3468 ****        -2.2500 -25.5000 -16.7500 Du        
   3469 ****        -2.2500 -25.5000 -16.5000 Du        
   3470 ****        -2.2500 -25.5000 -16.2500 Du        
   3471 ****        -2.2500 -25.5000 -16.0000 Du        
   3472 ****        -2.2500 -25.5000 -15.7500 Du        
   3473 ****        -2.2500 -25.5000 -15.5000 Du        
   3474 ****        -2.2500 -25.5000 -15.2500 Du        
   3475 ****        -2.2500 -25.5000 -15.0000 Du        
   3476 ****        -2.2500 -25.5000 -14.7500 Du        
   3477 ****        -2.2500 -25.2500 -23.0000 Du        
   3478 ****        -2.2500 -25.2500 -22.7500 Du        
   3479 ****        -2.2500 -25.2500 -22.5000 Du        
   3480 ****        -2.2500 -25.2500 -22.2500 Du        
   3481 ****        -2.2500 -25.2500 -22.0000 Du        
   3482 ****        -2.2500 -25.2500 -21.7500 Du        
   3483 ****        -2.2500 -25.2500 -21.5000 Du        
   3484 ****        -2.2500 -25.2500 -21.2500 Du        
   3485 ****        -2.2500 -25.2500 -21.0000 Du        
   3486 ****        -2.2500 -25.2500 -16.7500 Du        
   3487 ****        -2.2500 -25.2500 -16.5000 Du        
   3488 ****        -2.2500 -25.2500 -16.2500 Du        
   3489 ****        -2.2500 -25.2500 -16.0000 Du        
   3490 ****        -2.2500 -25.2500 -15.7500 Du        
   3491 ****        -2.2500 -25.2500 -15.5000 Du        
   3492 ****        -2.2500 -25.2500 -15.2500 Du        
   3493 ****        -2.2500 -25.2500 -15.0000 Du        
   3494 ****        -2.2500 -25.2500 -14.7500 Du        
   3495 ****        -2.2500 -25.0000 -23.0000 Du        
   3496 ****        -2.2500 -25.0000 -22.7500 Du        
   3497 ****        -2.2500 -25.0000 -22.5000 Du        
   3498 ****        -2.2500 -25.0000 -22.2500 Du        
   3499 ****        -2.2500 -25.0000 -22.0000 Du        
   3500 ****        -2.2500 -25.0000 -21.7500 Du        
   3501 ****        -2.2500 -25.0000 -21.5000 Du        
   3502 ****        -2.2500 -25.0000 -21.2500 Du        
   3503 ****        -2.2500 -25.0000 -16.2500 Du        
   3504 ****        -2.2500 -25.0000 -16.0000 Du        
   3505 ****        -2.2500 -25.0000 -15.7500 Du        
   3506 ****        -2.2500 -25.0000 -15.5000 Du        
   3507 ****        -2.2500 -25.0000 -15.2500 Du        
   3508 ****        -2.2500 -25.0000 -15.0000 Du        
   3509 ****        -2.2500 -25.0000 -14.7500 Du        
   3510 ****        -2.2500 -25.0000 -14.5000 Du        
   3511 ****        -2.2500 -24.7500 -23.2500 Du        
   3512 ****        -2.2500 -24.7500 -23.0000 Du        
   3513 ****        -2.2500 -24.7500 -22.7500 Du        
   3514 ****        -2.2500 -24.7500 -22.5000 Du        
   3515 ****        -2.2500 -24.7500 -22.2500 Du        
   3516 ****        -2.2500 -24.7500 -22.0000 Du        
   3517 ****        -2.2500 -24.7500 -21.7500 Du        
   3518 ****        -2.2500 -24.7500 -21.5000 Du        
   3519 ****        -2.2500 -24.7500 -21.2500 Du        
   3520 ****        -2.2500 -24.7500 -16.0000 Du        
   3521 ****        -2.2500 -24.7500 -15.7500 Du        
   3522 ****        -2.2500 -24.7500 -15.5000 Du        
   3523 ****        -2.2500 -24.7500 -15.2500 Du        
   3524 ****        -2.2500 -24.7500 -15.0000 Du        
   3525 ****        -2.2500 -24.7500 -14.7500 Du        
   3526 ****        -2.2500 -24.7500 -14.5000 Du        
   3527 ****        -2.2500 -24.5000 -23.2500 Du        
   3528 ****        -2.2500 -24.5000 -23.0000 Du        
   3529 ****        -2.2500 -24.5000 -22.7500 Du        
   3530 ****        -2.2500 -24.5000 -22.5000 Du        
   3531 ****        -2.2500 -24.5000 -22.2500 Du        
   3532 ****        -2.2500 -24.5000 -22.0000 Du        
   3533 ****        -2.2500 -24.5000 -21.7500 Du        
   3534 ****        -2.2500 -24.5000 -21.5000 Du        
   3535 ****        -2.2500 -24.5000 -21.2500 Du        
   3536 ****        -2.2500 -24.5000 -15.2500 Du        
   3537 ****        -2.2500 -24.5000 -15.0000 Du        
   3538 ****        -2.2500 -24.5000 -14.7500 Du        
   3539 ****        -2.2500 -24.2500 -23.2500 Du        
   3540 ****        -2.2500 -24.2500 -23.0000 Du        
   3541 ****        -2.2500 -24.2500 -22.7500 Du        
   3542 ****        -2.2500 -24.2500 -22.5000 Du        
   3543 ****        -2.2500 -24.2500 -22.2500 Du        
   3544 ****        -2.2500 -24.2500 -22.0000 Du        
   3545 ****        -2.2500 -24.2500 -21.7500 Du        
   3546 ****        -2.2500 -24.2500 -21.5000 Du        
   3547 ****        -2.2500 -24.0000 -23.2500 Du        
   3548 ****        -2.2500 -24.0000 -23.0000 Du        
   3549 ****        -2.2500 -24.0000 -22.7500 Du        
   3550 ****        -2.2500 -24.0000 -22.5000 Du        
   3551 ****        -2.2500 -24.0000 -22.2500 Du        
   3552 ****        -2.2500 -24.0000 -22.0000 Du        
   3553 ****        -2.2500 -24.0000 -21.7500 Du        
   3554 ****        -2.2500 -24.0000 -21.5000 Du        
   3555 ****        -2.2500 -23.7500 -23.2500 Du        
   3556 ****        -2.2500 -23.7500 -23.0000 Du        
   3557 ****        -2.2500 -23.7500 -22.7500 Du        
   3558 ****        -2.2500 -23.7500 -22.5000 Du        
   3559 ****        -2.2500 -23.7500 -22.2500 Du        
   3560 ****        -2.2500 -23.7500 -22.0000 Du        
   3561 ****        -2.2500 -23.7500 -21.7500 Du        
   3562 ****        -2.2500 -23.5000 -23.0000 Du        
   3563 ****        -2.2500 -23.5000 -22.7500 Du        
   3564 ****        -2.2500 -23.5000 -22.5000 Du        
   3565 ****        -2.2500 -23.5000 -22.2500 Du        
   3566 ****        -2.2500 -23.5000 -22.0000 Du        
   3567 ****        -2.2500 -23.2500 -22.7500 Du        
   3568 ****        -2.2500 -23.2500 -22.5000 Du        
   3569 ****        -2.2500 -23.2500 -22.2500 Du        
   3570 ****        -2.2500 -17.5000 -17.0000 Du        
   3571 ****        -2.2500 -17.5000 -16.7500 Du        
   3572 ****        -2.2500 -17.2500 -17.0000 Du        
   3573 ****        -2.2500 -17.2500 -16.7500 Du        
   3574 ****        -2.2500 -17.0000 -17.0000 Du        
   3575 ****        -2.2500 -17.0000 -16.7500 Du        
   3576 ****        -2.2500 -16.7500 -16.7500 Du        
   3577 ****        -2.2500 -16.7500 -16.5000 Du        
   3578 ****        -2.2500 -16.2500 -16.7500 Du        
   3579 ****        -2.2500 -16.2500 -16.5000 Du        
   3580 ****        -2.2500 -16.0000 -16.7500 Du        
   3581 ****        -2.2500 -16.0000 -16.5000 Du        
   3582 ****        -2.2500 -16.0000 -16.2500 Du        
   3583 ****        -2.2500 -15.7500 -16.5000 Du        
   3584 ****        -2.0000 -29.7500 -16.7500 Du        
   3585 ****        -2.0000 -29.5000 -17.2500 Du        
   3586 ****        -2.0000 -29.5000 -17.0000 Du        
   3587 ****        -2.0000 -29.5000 -16.7500 Du        
   3588 ****        -2.0000 -29.2500 -18.0000 Du        
   3589 ****        -2.0000 -29.2500 -17.7500 Du        
   3590 ****        -2.0000 -29.2500 -17.5000 Du        
   3591 ****        -2.0000 -29.2500 -17.2500 Du        
   3592 ****        -2.0000 -29.2500 -17.0000 Du        
   3593 ****        -2.0000 -29.2500 -16.7500 Du        
   3594 ****        -2.0000 -29.0000 -18.7500 Du        
   3595 ****        -2.0000 -29.0000 -18.2500 Du        
   3596 ****        -2.0000 -29.0000 -18.0000 Du        
   3597 ****        -2.0000 -29.0000 -17.7500 Du        
   3598 ****        -2.0000 -29.0000 -17.5000 Du        
   3599 ****        -2.0000 -29.0000 -17.2500 Du        
   3600 ****        -2.0000 -29.0000 -17.0000 Du        
   3601 ****        -2.0000 -29.0000 -16.7500 Du        
   3602 ****        -2.0000 -28.7500 -18.2500 Du        
   3603 ****        -2.0000 -28.7500 -18.0000 Du        
   3604 ****        -2.0000 -28.7500 -17.7500 Du        
   3605 ****        -2.0000 -28.7500 -17.5000 Du        
   3606 ****        -2.0000 -28.7500 -17.2500 Du        
   3607 ****        -2.0000 -28.7500 -17.0000 Du        
   3608 ****        -2.0000 -28.7500 -16.7500 Du        
   3609 ****        -2.0000 -28.5000 -18.0000 Du        
   3610 ****        -2.0000 -28.5000 -17.7500 Du        
   3611 ****        -2.0000 -28.5000 -17.5000 Du        
   3612 ****        -2.0000 -28.5000 -17.2500 Du        
   3613 ****        -2.0000 -28.5000 -17.0000 Du        
   3614 ****        -2.0000 -28.5000 -16.7500 Du        
   3615 ****        -2.0000 -28.2500 -17.7500 Du        
   3616 ****        -2.0000 -28.2500 -17.5000 Du        
   3617 ****        -2.0000 -28.2500 -17.2500 Du        
   3618 ****        -2.0000 -28.2500 -17.0000 Du        
   3619 ****        -2.0000 -28.2500 -16.7500 Du        
   3620 ****        -2.0000 -28.0000 -17.5000 Du        
   3621 ****        -2.0000 -28.0000 -17.2500 Du        
   3622 ****        -2.0000 -28.0000 -17.0000 Du        
   3623 ****        -2.0000 -28.0000 -16.7500 Du        
   3624 ****        -2.0000 -28.0000 -16.5000 Du        
   3625 ****        -2.0000 -27.7500 -17.2500 Du        
   3626 ****        -2.0000 -27.7500 -17.0000 Du        
   3627 ****        -2.0000 -27.7500 -16.7500 Du        
   3628 ****        -2.0000 -27.7500 -16.5000 Du        
   3629 ****        -2.0000 -27.7500 -16.2500 Du        
   3630 ****        -2.0000 -27.5000 -17.2500 Du        
   3631 ****        -2.0000 -27.5000 -17.0000 Du        
   3632 ****        -2.0000 -27.5000 -16.7500 Du        
   3633 ****        -2.0000 -27.5000 -16.5000 Du        
   3634 ****        -2.0000 -27.5000 -16.2500 Du        
   3635 ****        -2.0000 -27.2500 -17.2500 Du        
   3636 ****        -2.0000 -27.2500 -17.0000 Du        
   3637 ****        -2.0000 -27.2500 -16.7500 Du        
   3638 ****        -2.0000 -27.2500 -16.5000 Du        
   3639 ****        -2.0000 -27.2500 -16.2500 Du        
   3640 ****        -2.0000 -27.2500 -16.0000 Du        
   3641 ****        -2.0000 -27.0000 -17.2500 Du        
   3642 ****        -2.0000 -27.0000 -17.0000 Du        
   3643 ****        -2.0000 -27.0000 -16.7500 Du        
   3644 ****        -2.0000 -27.0000 -16.5000 Du        
   3645 ****        -2.0000 -27.0000 -16.2500 Du        
   3646 ****        -2.0000 -27.0000 -16.0000 Du        
   3647 ****        -2.0000 -27.0000 -15.7500 Du        
   3648 ****        -2.0000 -26.7500 -17.2500 Du        
   3649 ****        -2.0000 -26.7500 -17.0000 Du        
   3650 ****        -2.0000 -26.7500 -16.7500 Du        
   3651 ****        -2.0000 -26.7500 -16.5000 Du        
   3652 ****        -2.0000 -26.7500 -16.2500 Du        
   3653 ****        -2.0000 -26.7500 -16.0000 Du        
   3654 ****        -2.0000 -26.7500 -15.7500 Du        
   3655 ****        -2.0000 -26.5000 -17.2500 Du        
   3656 ****        -2.0000 -26.5000 -17.0000 Du        
   3657 ****        -2.0000 -26.5000 -16.7500 Du        
   3658 ****        -2.0000 -26.5000 -16.5000 Du        
   3659 ****        -2.0000 -26.5000 -16.2500 Du        
   3660 ****        -2.0000 -26.5000 -16.0000 Du        
   3661 ****        -2.0000 -26.5000 -15.7500 Du        
   3662 ****        -2.0000 -26.5000 -15.5000 Du        
   3663 ****        -2.0000 -26.5000 -15.2500 Du        
   3664 ****        -2.0000 -26.2500 -17.2500 Du        
   3665 ****        -2.0000 -26.2500 -17.0000 Du        
   3666 ****        -2.0000 -26.2500 -16.7500 Du        
   3667 ****        -2.0000 -26.2500 -16.5000 Du        
   3668 ****        -2.0000 -26.2500 -16.2500 Du        
   3669 ****        -2.0000 -26.2500 -16.0000 Du        
   3670 ****        -2.0000 -26.2500 -15.7500 Du        
   3671 ****        -2.0000 -26.2500 -15.5000 Du        
   3672 ****        -2.0000 -26.2500 -15.2500 Du        
   3673 ****        -2.0000 -26.0000 -17.2500 Du        
   3674 ****        -2.0000 -26.0000 -17.0000 Du        
   3675 ****        -2.0000 -26.0000 -16.7500 Du        
   3676 ****        -2.0000 -26.0000 -16.5000 Du        
   3677 ****        -2.0000 -26.0000 -16.2500 Du        
   3678 ****        -2.0000 -26.0000 -16.0000 Du        
   3679 ****        -2.0000 -26.0000 -15.7500 Du        
   3680 ****        -2.0000 -26.0000 -15.5000 Du        
   3681 ****        -2.0000 -26.0000 -15.2500 Du        
   3682 ****        -2.0000 -26.0000 -15.0000 Du        
   3683 ****        -2.0000 -26.0000 -14.7500 Du        
   3684 ****        -2.0000 -25.7500 -22.5000 Du        
   3685 ****        -2.0000 -25.7500 -22.2500 Du        
   3686 ****        -2.0000 -25.7500 -22.0000 Du        
   3687 ****        -2.0000 -25.7500 -21.7500 Du        
   3688 ****        -2.0000 -25.7500 -17.0000 Du        
   3689 ****        -2.0000 -25.7500 -16.7500 Du        
   3690 ****        -2.0000 -25.7500 -16.5000 Du        
   3691 ****        -2.0000 -25.7500 -16.2500 Du        
   3692 ****        -2.0000 -25.7500 -16.0000 Du        
   3693 ****        -2.0000 -25.7500 -15.7500 Du        
   3694 ****        -2.0000 -25.7500 -15.5000 Du        
   3695 ****        -2.0000 -25.7500 -15.2500 Du        
   3696 ****        -2.0000 -25.7500 -15.0000 Du        
   3697 ****        -2.0000 -25.7500 -14.7500 Du        
   3698 ****        -2.0000 -25.5000 -22.7500 Du        
   3699 ****        -2.0000 -25.5000 -22.5000 Du        
   3700 ****        -2.0000 -25.5000 -22.2500 Du        
   3701 ****        -2.0000 -25.5000 -22.0000 Du        
   3702 ****        -2.0000 -25.5000 -21.7500 Du        
   3703 ****        -2.0000 -25.5000 -21.5000 Du        
   3704 ****        -2.0000 -25.5000 -16.7500 Du        
   3705 ****        -2.0000 -25.5000 -16.5000 Du        
   3706 ****        -2.0000 -25.5000 -16.2500 Du        
   3707 ****        -2.0000 -25.5000 -16.0000 Du        
   3708 ****        -2.0000 -25.5000 -15.7500 Du        
   3709 ****        -2.0000 -25.5000 -15.5000 Du        
   3710 ****        -2.0000 -25.5000 -15.2500 Du        
   3711 ****        -2.0000 -25.5000 -15.0000 Du        
   3712 ****        -2.0000 -25.5000 -14.7500 Du        
   3713 ****        -2.0000 -25.2500 -23.0000 Du        
   3714 ****        -2.0000 -25.2500 -22.7500 Du        
   3715 ****        -2.0000 -25.2500 -22.5000 Du        
   3716 ****        -2.0000 -25.2500 -22.2500 Du        
   3717 ****        -2.0000 -25.2500 -22.0000 Du        
   3718 ****        -2.0000 -25.2500 -21.7500 Du        
   3719 ****        -2.0000 -25.2500 -21.5000 Du        
   3720 ****        -2.0000 -25.2500 -16.7500 Du        
   3721 ****        -2.0000 -25.2500 -16.5000 Du        
   3722 ****        -2.0000 -25.2500 -16.2500 Du        
   3723 ****        -2.0000 -25.2500 -16.0000 Du        
   3724 ****        -2.0000 -25.2500 -15.7500 Du        
   3725 ****        -2.0000 -25.2500 -15.5000 Du        
   3726 ****        -2.0000 -25.2500 -15.2500 Du        
   3727 ****        -2.0000 -25.2500 -15.0000 Du        
   3728 ****        -2.0000 -25.2500 -14.7500 Du        
   3729 ****        -2.0000 -25.0000 -23.2500 Du        
   3730 ****        -2.0000 -25.0000 -23.0000 Du        
   3731 ****        -2.0000 -25.0000 -22.7500 Du        
   3732 ****        -2.0000 -25.0000 -22.5000 Du        
   3733 ****        -2.0000 -25.0000 -22.2500 Du        
   3734 ****        -2.0000 -25.0000 -22.0000 Du        
   3735 ****        -2.0000 -25.0000 -21.7500 Du        
   3736 ****        -2.0000 -25.0000 -21.5000 Du        
   3737 ****        -2.0000 -25.0000 -16.5000 Du        
   3738 ****        -2.0000 -25.0000 -16.2500 Du        
   3739 ****        -2.0000 -25.0000 -16.0000 Du        
   3740 ****        -2.0000 -25.0000 -15.7500 Du        
   3741 ****        -2.0000 -25.0000 -15.5000 Du        
   3742 ****        -2.0000 -25.0000 -15.2500 Du        
   3743 ****        -2.0000 -25.0000 -15.0000 Du        
   3744 ****        -2.0000 -25.0000 -14.7500 Du        
   3745 ****        -2.0000 -25.0000 -14.5000 Du        
   3746 ****        -2.0000 -24.7500 -23.2500 Du        
   3747 ****        -2.0000 -24.7500 -23.0000 Du        
   3748 ****        -2.0000 -24.7500 -22.7500 Du        
   3749 ****        -2.0000 -24.7500 -22.5000 Du        
   3750 ****        -2.0000 -24.7500 -22.2500 Du        
   3751 ****        -2.0000 -24.7500 -22.0000 Du        
   3752 ****        -2.0000 -24.7500 -21.7500 Du        
   3753 ****        -2.0000 -24.7500 -16.2500 Du        
   3754 ****        -2.0000 -24.7500 -16.0000 Du        
   3755 ****        -2.0000 -24.7500 -15.7500 Du        
   3756 ****        -2.0000 -24.7500 -15.5000 Du        
   3757 ****        -2.0000 -24.7500 -15.2500 Du        
   3758 ****        -2.0000 -24.7500 -15.0000 Du        
   3759 ****        -2.0000 -24.7500 -14.7500 Du        
   3760 ****        -2.0000 -24.7500 -14.5000 Du        
   3761 ****        -2.0000 -24.5000 -23.2500 Du        
   3762 ****        -2.0000 -24.5000 -23.0000 Du        
   3763 ****        -2.0000 -24.5000 -22.7500 Du        
   3764 ****        -2.0000 -24.5000 -22.5000 Du        
   3765 ****        -2.0000 -24.5000 -22.2500 Du        
   3766 ****        -2.0000 -24.5000 -22.0000 Du        
   3767 ****        -2.0000 -24.5000 -21.7500 Du        
   3768 ****        -2.0000 -24.5000 -15.7500 Du        
   3769 ****        -2.0000 -24.5000 -15.5000 Du        
   3770 ****        -2.0000 -24.5000 -15.2500 Du        
   3771 ****        -2.0000 -24.5000 -15.0000 Du        
   3772 ****        -2.0000 -24.5000 -14.7500 Du        
   3773 ****        -2.0000 -24.5000 -14.5000 Du        
   3774 ****        -2.0000 -24.2500 -23.2500 Du        
   3775 ****        -2.0000 -24.2500 -23.0000 Du        
   3776 ****        -2.0000 -24.2500 -22.7500 Du        
   3777 ****        -2.0000 -24.2500 -22.5000 Du        
   3778 ****        -2.0000 -24.2500 -22.2500 Du        
   3779 ****        -2.0000 -24.2500 -22.0000 Du        
   3780 ****        -2.0000 -24.2500 -21.7500 Du        
   3781 ****        -2.0000 -24.2500 -15.0000 Du        
   3782 ****        -2.0000 -24.2500 -14.7500 Du        
   3783 ****        -2.0000 -24.0000 -23.2500 Du        
   3784 ****        -2.0000 -24.0000 -23.0000 Du        
   3785 ****        -2.0000 -24.0000 -22.7500 Du        
   3786 ****        -2.0000 -24.0000 -22.5000 Du        
   3787 ****        -2.0000 -24.0000 -22.2500 Du        
   3788 ****        -2.0000 -24.0000 -22.0000 Du        
   3789 ****        -2.0000 -23.7500 -23.2500 Du        
   3790 ****        -2.0000 -23.7500 -23.0000 Du        
   3791 ****        -2.0000 -23.7500 -22.7500 Du        
   3792 ****        -2.0000 -23.7500 -22.5000 Du        
   3793 ****        -2.0000 -23.7500 -22.2500 Du        
   3794 ****        -2.0000 -23.7500 -22.0000 Du        
   3795 ****        -2.0000 -23.5000 -23.0000 Du        
   3796 ****        -2.0000 -23.5000 -22.7500 Du        
   3797 ****        -2.0000 -23.5000 -22.5000 Du        
   3798 ****        -2.0000 -17.7500 -16.5000 Du        
   3799 ****        -2.0000 -17.5000 -17.0000 Du        
   3800 ****        -2.0000 -17.5000 -16.7500 Du        
   3801 ****        -2.0000 -17.5000 -16.5000 Du        
   3802 ****        -2.0000 -17.2500 -17.0000 Du        
   3803 ****        -2.0000 -17.2500 -16.7500 Du        
   3804 ****        -2.0000 -17.2500 -16.5000 Du        
   3805 ****        -2.0000 -17.0000 -17.0000 Du        
   3806 ****        -2.0000 -17.0000 -16.7500 Du        
   3807 ****        -2.0000 -17.0000 -16.5000 Du        
   3808 ****        -2.0000 -17.0000 -16.2500 Du        
   3809 ****        -2.0000 -16.7500 -16.7500 Du        
   3810 ****        -2.0000 -16.7500 -16.5000 Du        
   3811 ****        -2.0000 -16.7500 -16.2500 Du        
   3812 ****        -2.0000 -16.5000 -16.5000 Du        
   3813 ****        -2.0000 -16.5000 -16.2500 Du        
   3814 ****        -2.0000 -16.2500 -16.7500 Du        
   3815 ****        -2.0000 -16.2500 -16.5000 Du        
   3816 ****        -2.0000 -16.2500 -16.2500 Du        
   3817 ****        -2.0000 -16.0000 -16.7500 Du        
   3818 ****        -2.0000 -16.0000 -16.5000 Du        
   3819 ****        -2.0000 -16.0000 -16.2500 Du        
   3820 ****        -2.0000 -15.7500 -16.7500 Du        
   3821 ****        -2.0000 -15.7500 -16.5000 Du        
   3822 ****        -2.0000 -15.7500 -16.2500 Du        
   3823 ****        -1.7500 -29.5000 -17.7500 Du        
   3824 ****        -1.7500 -29.5000 -17.5000 Du        
   3825 ****        -1.7500 -29.5000 -17.2500 Du        
   3826 ****        -1.7500 -29.5000 -17.0000 Du        
   3827 ****        -1.7500 -29.5000 -16.7500 Du        
   3828 ****        -1.7500 -29.2500 -18.0000 Du        
   3829 ****        -1.7500 -29.2500 -17.7500 Du        
   3830 ****        -1.7500 -29.2500 -17.5000 Du        
   3831 ****        -1.7500 -29.2500 -17.2500 Du        
   3832 ****        -1.7500 -29.2500 -17.0000 Du        
   3833 ****        -1.7500 -29.2500 -16.7500 Du        
   3834 ****        -1.7500 -29.0000 -18.0000 Du        
   3835 ****        -1.7500 -29.0000 -17.5000 Du        
   3836 ****        -1.7500 -29.0000 -17.2500 Du        
   3837 ****        -1.7500 -29.0000 -17.0000 Du        
   3838 ****        -1.7500 -29.0000 -16.7500 Du        
   3839 ****        -1.7500 -28.7500 -17.0000 Du        
   3840 ****        -1.7500 -27.5000 -17.0000 Du        
   3841 ****        -1.7500 -27.5000 -16.7500 Du        
   3842 ****        -1.7500 -27.2500 -17.0000 Du        
   3843 ****        -1.7500 -27.2500 -16.7500 Du        
   3844 ****        -1.7500 -27.2500 -16.5000 Du        
   3845 ****        -1.7500 -27.2500 -16.0000 Du        
   3846 ****        -1.7500 -27.0000 -17.0000 Du        
   3847 ****        -1.7500 -27.0000 -16.7500 Du        
   3848 ****        -1.7500 -27.0000 -16.5000 Du        
   3849 ****        -1.7500 -27.0000 -16.2500 Du        
   3850 ****        -1.7500 -27.0000 -16.0000 Du        
   3851 ****        -1.7500 -26.7500 -17.0000 Du        
   3852 ****        -1.7500 -26.7500 -16.7500 Du        
   3853 ****        -1.7500 -26.7500 -16.5000 Du        
   3854 ****        -1.7500 -26.7500 -16.2500 Du        
   3855 ****        -1.7500 -26.7500 -16.0000 Du        
   3856 ****        -1.7500 -26.7500 -15.7500 Du        
   3857 ****        -1.7500 -26.5000 -17.0000 Du        
   3858 ****        -1.7500 -26.5000 -16.7500 Du        
   3859 ****        -1.7500 -26.5000 -16.5000 Du        
   3860 ****        -1.7500 -26.5000 -16.2500 Du        
   3861 ****        -1.7500 -26.5000 -16.0000 Du        
   3862 ****        -1.7500 -26.5000 -15.5000 Du        
   3863 ****        -1.7500 -26.2500 -17.0000 Du        
   3864 ****        -1.7500 -26.2500 -16.7500 Du        
   3865 ****        -1.7500 -26.2500 -16.5000 Du        
   3866 ****        -1.7500 -26.2500 -16.2500 Du        
   3867 ****        -1.7500 -26.2500 -16.0000 Du        
   3868 ****        -1.7500 -26.2500 -15.7500 Du        
   3869 ****        -1.7500 -26.2500 -15.5000 Du        
   3870 ****        -1.7500 -26.2500 -15.2500 Du        
   3871 ****        -1.7500 -26.2500 -15.0000 Du        
   3872 ****        -1.7500 -26.0000 -17.0000 Du        
   3873 ****        -1.7500 -26.0000 -16.7500 Du        
   3874 ****        -1.7500 -26.0000 -16.5000 Du        
   3875 ****        -1.7500 -26.0000 -16.2500 Du        
   3876 ****        -1.7500 -26.0000 -16.0000 Du        
   3877 ****        -1.7500 -26.0000 -15.7500 Du        
   3878 ****        -1.7500 -26.0000 -15.5000 Du        
   3879 ****        -1.7500 -26.0000 -15.2500 Du        
   3880 ****        -1.7500 -26.0000 -15.0000 Du        
   3881 ****        -1.7500 -26.0000 -14.7500 Du        
   3882 ****        -1.7500 -25.7500 -16.7500 Du        
   3883 ****        -1.7500 -25.7500 -16.5000 Du        
   3884 ****        -1.7500 -25.7500 -16.2500 Du        
   3885 ****        -1.7500 -25.7500 -16.0000 Du        
   3886 ****        -1.7500 -25.7500 -15.7500 Du        
   3887 ****        -1.7500 -25.7500 -15.5000 Du        
   3888 ****        -1.7500 -25.7500 -15.2500 Du        
   3889 ****        -1.7500 -25.7500 -15.0000 Du        
   3890 ****        -1.7500 -25.7500 -14.7500 Du        
   3891 ****        -1.7500 -25.5000 -16.7500 Du        
   3892 ****        -1.7500 -25.5000 -16.5000 Du        
   3893 ****        -1.7500 -25.5000 -16.2500 Du        
   3894 ****        -1.7500 -25.5000 -16.0000 Du        
   3895 ****        -1.7500 -25.5000 -15.7500 Du        
   3896 ****        -1.7500 -25.5000 -15.5000 Du        
   3897 ****        -1.7500 -25.5000 -15.2500 Du        
   3898 ****        -1.7500 -25.5000 -15.0000 Du        
   3899 ****        -1.7500 -25.5000 -14.7500 Du        
   3900 ****        -1.7500 -25.2500 -22.7500 Du        
   3901 ****        -1.7500 -25.2500 -22.5000 Du        
   3902 ****        -1.7500 -25.2500 -22.2500 Du        
   3903 ****        -1.7500 -25.2500 -22.0000 Du        
   3904 ****        -1.7500 -25.2500 -16.5000 Du        
   3905 ****        -1.7500 -25.2500 -16.2500 Du        
   3906 ****        -1.7500 -25.2500 -16.0000 Du        
   3907 ****        -1.7500 -25.2500 -15.7500 Du        
   3908 ****        -1.7500 -25.2500 -15.5000 Du        
   3909 ****        -1.7500 -25.2500 -15.2500 Du        
   3910 ****        -1.7500 -25.2500 -15.0000 Du        
   3911 ****        -1.7500 -25.2500 -14.7500 Du        
   3912 ****        -1.7500 -25.2500 -14.5000 Du        
   3913 ****        -1.7500 -25.0000 -22.7500 Du        
   3914 ****        -1.7500 -25.0000 -22.5000 Du        
   3915 ****        -1.7500 -25.0000 -22.2500 Du        
   3916 ****        -1.7500 -25.0000 -22.0000 Du        
   3917 ****        -1.7500 -25.0000 -16.2500 Du        
   3918 ****        -1.7500 -25.0000 -16.0000 Du        
   3919 ****        -1.7500 -25.0000 -15.7500 Du        
   3920 ****        -1.7500 -25.0000 -15.5000 Du        
   3921 ****        -1.7500 -25.0000 -15.2500 Du        
   3922 ****        -1.7500 -25.0000 -15.0000 Du        
   3923 ****        -1.7500 -25.0000 -14.7500 Du        
   3924 ****        -1.7500 -25.0000 -14.5000 Du        
   3925 ****        -1.7500 -24.7500 -23.0000 Du        
   3926 ****        -1.7500 -24.7500 -22.7500 Du        
   3927 ****        -1.7500 -24.7500 -22.5000 Du        
   3928 ****        -1.7500 -24.7500 -22.2500 Du        
   3929 ****        -1.7500 -24.7500 -22.0000 Du        
   3930 ****        -1.7500 -24.7500 -16.2500 Du        
   3931 ****        -1.7500 -24.7500 -16.0000 Du        
   3932 ****        -1.7500 -24.7500 -15.7500 Du        
   3933 ****        -1.7500 -24.7500 -15.5000 Du        
   3934 ****        -1.7500 -24.7500 -15.2500 Du        
   3935 ****        -1.7500 -24.7500 -15.0000 Du        
   3936 ****        -1.7500 -24.7500 -14.7500 Du        
   3937 ****        -1.7500 -24.7500 -14.5000 Du        
   3938 ****        -1.7500 -24.7500 -14.2500 Du        
   3939 ****        -1.7500 -24.5000 -23.0000 Du        
   3940 ****        -1.7500 -24.5000 -22.7500 Du        
   3941 ****        -1.7500 -24.5000 -22.5000 Du        
   3942 ****        -1.7500 -24.5000 -22.2500 Du        
   3943 ****        -1.7500 -24.5000 -22.0000 Du        
   3944 ****        -1.7500 -24.5000 -16.0000 Du        
   3945 ****        -1.7500 -24.5000 -15.7500 Du        
   3946 ****        -1.7500 -24.5000 -15.5000 Du        
   3947 ****        -1.7500 -24.5000 -15.2500 Du        
   3948 ****        -1.7500 -24.5000 -15.0000 Du        
   3949 ****        -1.7500 -24.5000 -14.7500 Du        
   3950 ****        -1.7500 -24.5000 -14.5000 Du        
   3951 ****        -1.7500 -24.5000 -14.2500 Du        
   3952 ****        -1.7500 -24.2500 -23.0000 Du        
   3953 ****        -1.7500 -24.2500 -22.7500 Du        
   3954 ****        -1.7500 -24.2500 -22.5000 Du        
   3955 ****        -1.7500 -24.2500 -22.2500 Du        
   3956 ****        -1.7500 -24.2500 -15.7500 Du        
   3957 ****        -1.7500 -24.2500 -15.2500 Du        
   3958 ****        -1.7500 -24.2500 -15.0000 Du        
   3959 ****        -1.7500 -24.2500 -14.7500 Du        
   3960 ****        -1.7500 -24.2500 -14.5000 Du        
   3961 ****        -1.7500 -24.2500 -14.2500 Du        
   3962 ****        -1.7500 -24.0000 -23.0000 Du        
   3963 ****        -1.7500 -24.0000 -22.7500 Du        
   3964 ****        -1.7500 -24.0000 -22.5000 Du        
   3965 ****        -1.7500 -24.0000 -22.2500 Du        
   3966 ****        -1.7500 -24.0000 -14.7500 Du        
   3967 ****        -1.7500 -23.7500 -23.0000 Du        
   3968 ****        -1.7500 -23.7500 -22.7500 Du        
   3969 ****        -1.7500 -23.7500 -22.5000 Du        
   3970 ****        -1.7500 -18.0000 -16.5000 Du        
   3971 ****        -1.7500 -18.0000 -16.2500 Du        
   3972 ****        -1.7500 -18.0000 -16.0000 Du        
   3973 ****        -1.7500 -17.7500 -16.5000 Du        
   3974 ****        -1.7500 -17.7500 -16.2500 Du        
   3975 ****        -1.7500 -17.5000 -16.7500 Du        
   3976 ****        -1.7500 -17.5000 -16.5000 Du        
   3977 ****        -1.7500 -17.5000 -16.2500 Du        
   3978 ****        -1.7500 -17.2500 -16.7500 Du        
   3979 ****        -1.7500 -17.2500 -16.5000 Du        
   3980 ****        -1.7500 -17.2500 -16.2500 Du        
   3981 ****        -1.7500 -17.2500 -16.0000 Du        
   3982 ****        -1.7500 -17.0000 -16.7500 Du        
   3983 ****        -1.7500 -17.0000 -16.5000 Du        
   3984 ****        -1.7500 -17.0000 -16.2500 Du        
   3985 ****        -1.7500 -17.0000 -16.0000 Du        
   3986 ****        -1.7500 -16.7500 -16.5000 Du        
   3987 ****        -1.7500 -16.7500 -16.2500 Du        
   3988 ****        -1.7500 -16.7500 -16.0000 Du        
   3989 ****        -1.7500 -16.5000 -16.7500 Du        
   3990 ****        -1.7500 -16.5000 -16.5000 Du        
   3991 ****        -1.7500 -16.5000 -16.2500 Du        
   3992 ****        -1.7500 -16.5000 -16.0000 Du        
   3993 ****        -1.7500 -16.2500 -16.7500 Du        
   3994 ****        -1.7500 -16.2500 -16.5000 Du        
   3995 ****        -1.7500 -16.2500 -16.2500 Du        
   3996 ****        -1.7500 -16.2500 -16.0000 Du        
   3997 ****        -1.7500 -16.0000 -16.7500 Du        
   3998 ****        -1.7500 -16.0000 -16.5000 Du        
   3999 ****        -1.7500 -16.0000 -16.2500 Du        
   4000 ****        -1.7500 -16.0000 -16.0000 Du        
   4001 ****        -1.7500 -15.7500 -16.7500 Du        
   4002 ****        -1.7500 -15.7500 -16.5000 Du        
   4003 ****        -1.7500 -15.7500 -16.2500 Du        
   4004 ****        -1.7500 -15.7500 -16.0000 Du        
   4005 ****        -1.7500 -15.5000 -16.5000 Du        
   4006 ****        -1.7500 -15.5000 -16.2500 Du        
   4007 ****        -1.5000 -26.5000 -16.7500 Du        
   4008 ****        -1.5000 -26.5000 -16.5000 Du        
   4009 ****        -1.5000 -26.5000 -16.2500 Du        
   4010 ****        -1.5000 -26.5000 -16.0000 Du        
   4011 ****        -1.5000 -26.5000 -15.0000 Du        
   4012 ****        -1.5000 -26.2500 -16.7500 Du        
   4013 ****        -1.5000 -26.2500 -16.5000 Du        
   4014 ****        -1.5000 -26.2500 -16.2500 Du        
   4015 ****        -1.5000 -26.2500 -16.0000 Du        
   4016 ****        -1.5000 -26.2500 -15.7500 Du        
   4017 ****        -1.5000 -26.2500 -15.5000 Du        
   4018 ****        -1.5000 -26.2500 -15.0000 Du        
   4019 ****        -1.5000 -26.0000 -16.7500 Du        
   4020 ****        -1.5000 -26.0000 -16.5000 Du        
   4021 ****        -1.5000 -26.0000 -16.2500 Du        
   4022 ****        -1.5000 -26.0000 -16.0000 Du        
   4023 ****        -1.5000 -26.0000 -15.7500 Du        
   4024 ****        -1.5000 -26.0000 -15.5000 Du        
   4025 ****        -1.5000 -26.0000 -15.2500 Du        
   4026 ****        -1.5000 -26.0000 -14.7500 Du        
   4027 ****        -1.5000 -25.7500 -16.5000 Du        
   4028 ****        -1.5000 -25.7500 -16.2500 Du        
   4029 ****        -1.5000 -25.7500 -16.0000 Du        
   4030 ****        -1.5000 -25.7500 -15.7500 Du        
   4031 ****        -1.5000 -25.7500 -15.5000 Du        
   4032 ****        -1.5000 -25.7500 -15.2500 Du        
   4033 ****        -1.5000 -25.7500 -15.0000 Du        
   4034 ****        -1.5000 -25.5000 -16.2500 Du        
   4035 ****        -1.5000 -25.5000 -16.0000 Du        
   4036 ****        -1.5000 -25.5000 -15.7500 Du        
   4037 ****        -1.5000 -25.5000 -15.5000 Du        
   4038 ****        -1.5000 -25.5000 -15.2500 Du        
   4039 ****        -1.5000 -25.5000 -15.0000 Du        
   4040 ****        -1.5000 -25.5000 -14.7500 Du        
   4041 ****        -1.5000 -25.5000 -14.5000 Du        
   4042 ****        -1.5000 -25.2500 -16.2500 Du        
   4043 ****        -1.5000 -25.2500 -16.0000 Du        
   4044 ****        -1.5000 -25.2500 -15.7500 Du        
   4045 ****        -1.5000 -25.2500 -15.5000 Du        
   4046 ****        -1.5000 -25.2500 -15.2500 Du        
   4047 ****        -1.5000 -25.2500 -15.0000 Du        
   4048 ****        -1.5000 -25.2500 -14.7500 Du        
   4049 ****        -1.5000 -25.2500 -14.5000 Du        
   4050 ****        -1.5000 -25.2500 -14.2500 Du        
   4051 ****        -1.5000 -25.0000 -16.2500 Du        
   4052 ****        -1.5000 -25.0000 -16.0000 Du        
   4053 ****        -1.5000 -25.0000 -15.7500 Du        
   4054 ****        -1.5000 -25.0000 -15.5000 Du        
   4055 ****        -1.5000 -25.0000 -15.2500 Du        
   4056 ****        -1.5000 -25.0000 -15.0000 Du        
   4057 ****        -1.5000 -25.0000 -14.7500 Du        
   4058 ****        -1.5000 -25.0000 -14.5000 Du        
   4059 ****        -1.5000 -25.0000 -14.2500 Du        
   4060 ****        -1.5000 -24.7500 -16.2500 Du        
   4061 ****        -1.5000 -24.7500 -16.0000 Du        
   4062 ****        -1.5000 -24.7500 -15.7500 Du        
   4063 ****        -1.5000 -24.7500 -15.5000 Du        
   4064 ****        -1.5000 -24.7500 -15.2500 Du        
   4065 ****        -1.5000 -24.7500 -15.0000 Du        
   4066 ****        -1.5000 -24.7500 -14.7500 Du        
   4067 ****        -1.5000 -24.7500 -14.5000 Du        
   4068 ****        -1.5000 -24.7500 -14.2500 Du        
   4069 ****        -1.5000 -24.5000 -16.0000 Du        
   4070 ****        -1.5000 -24.5000 -15.7500 Du        
   4071 ****        -1.5000 -24.5000 -15.5000 Du        
   4072 ****        -1.5000 -24.5000 -15.2500 Du        
   4073 ****        -1.5000 -24.5000 -15.0000 Du        
   4074 ****        -1.5000 -24.5000 -14.7500 Du        
   4075 ****        -1.5000 -24.5000 -14.5000 Du        
   4076 ****        -1.5000 -24.5000 -14.2500 Du        
   4077 ****        -1.5000 -24.5000 -14.0000 Du        
   4078 ****        -1.5000 -24.2500 -15.7500 Du        
   4079 ****        -1.5000 -24.2500 -15.5000 Du        
   4080 ****        -1.5000 -24.2500 -15.2500 Du        
   4081 ****        -1.5000 -24.2500 -15.0000 Du        
   4082 ****        -1.5000 -24.2500 -14.7500 Du        
   4083 ****        -1.5000 -24.2500 -14.5000 Du        
   4084 ****        -1.5000 -24.2500 -14.2500 Du        
   4085 ****        -1.5000 -24.2500 -14.0000 Du        
   4086 ****        -1.5000 -24.0000 -15.5000 Du        
   4087 ****        -1.5000 -24.0000 -15.2500 Du        
   4088 ****        -1.5000 -24.0000 -15.0000 Du        
   4089 ****        -1.5000 -24.0000 -14.7500 Du        
   4090 ****        -1.5000 -24.0000 -14.5000 Du        
   4091 ****        -1.5000 -24.0000 -14.2500 Du        
   4092 ****        -1.5000 -23.7500 -14.7500 Du        
   4093 ****        -1.5000 -23.7500 -14.5000 Du        
   4094 ****        -1.5000 -18.2500 -16.0000 Du        
   4095 ****        -1.5000 -18.0000 -16.2500 Du        
   4096 ****        -1.5000 -18.0000 -16.0000 Du        
   4097 ****        -1.5000 -17.7500 -16.2500 Du        
   4098 ****        -1.5000 -17.7500 -16.0000 Du        
   4099 ****        -1.5000 -17.5000 -16.5000 Du        
   4100 ****        -1.5000 -17.5000 -16.2500 Du        
   4101 ****        -1.5000 -17.5000 -16.0000 Du        
   4102 ****        -1.5000 -17.5000 -15.7500 Du        
   4103 ****        -1.5000 -17.2500 -16.5000 Du        
   4104 ****        -1.5000 -17.2500 -16.2500 Du        
   4105 ****        -1.5000 -17.2500 -16.0000 Du        
   4106 ****        -1.5000 -17.2500 -15.7500 Du        
   4107 ****        -1.5000 -17.0000 -16.5000 Du        
   4108 ****        -1.5000 -17.0000 -16.2500 Du        
   4109 ****        -1.5000 -17.0000 -16.0000 Du        
   4110 ****        -1.5000 -17.0000 -15.7500 Du        
   4111 ****        -1.5000 -16.7500 -16.5000 Du        
   4112 ****        -1.5000 -16.7500 -16.2500 Du        
   4113 ****        -1.5000 -16.7500 -16.0000 Du        
   4114 ****        -1.5000 -16.7500 -15.7500 Du        
   4115 ****        -1.5000 -16.5000 -16.5000 Du        
   4116 ****        -1.5000 -16.5000 -16.2500 Du        
   4117 ****        -1.5000 -16.5000 -16.0000 Du        
   4118 ****        -1.5000 -16.2500 -16.5000 Du        
   4119 ****        -1.5000 -16.2500 -16.2500 Du        
   4120 ****        -1.5000 -16.2500 -16.0000 Du        
   4121 ****        -1.5000 -16.2500 -15.7500 Du        
   4122 ****        -1.5000 -16.0000 -16.7500 Du        
   4123 ****        -1.5000 -16.0000 -16.5000 Du        
   4124 ****        -1.5000 -16.0000 -16.2500 Du        
   4125 ****        -1.5000 -16.0000 -16.0000 Du        
   4126 ****        -1.5000 -16.0000 -15.7500 Du        
   4127 ****        -1.5000 -15.7500 -16.7500 Du        
   4128 ****        -1.5000 -15.7500 -16.5000 Du        
   4129 ****        -1.5000 -15.7500 -16.2500 Du        
   4130 ****        -1.5000 -15.7500 -16.0000 Du        
   4131 ****        -1.5000 -15.5000 -16.5000 Du        
   4132 ****        -1.5000 -15.5000 -16.2500 Du        
   4133 ****        -1.2500 -26.5000 -15.2500 Du        
   4134 ****        -1.2500 -26.2500 -16.0000 Du        
   4135 ****        -1.2500 -26.2500 -15.7500 Du        
   4136 ****        -1.2500 -26.2500 -15.0000 Du        
   4137 ****        -1.2500 -26.0000 -16.2500 Du        
   4138 ****        -1.2500 -26.0000 -16.0000 Du        
   4139 ****        -1.2500 -26.0000 -15.7500 Du        
   4140 ****        -1.2500 -26.0000 -15.2500 Du        
   4141 ****        -1.2500 -26.0000 -15.0000 Du        
   4142 ****        -1.2500 -26.0000 -14.7500 Du        
   4143 ****        -1.2500 -25.7500 -16.0000 Du        
   4144 ****        -1.2500 -25.7500 -15.7500 Du        
   4145 ****        -1.2500 -25.7500 -15.5000 Du        
   4146 ****        -1.2500 -25.7500 -15.2500 Du        
   4147 ****        -1.2500 -25.7500 -15.0000 Du        
   4148 ****        -1.2500 -25.7500 -14.7500 Du        
   4149 ****        -1.2500 -25.7500 -14.5000 Du        
   4150 ****        -1.2500 -25.5000 -16.0000 Du        
   4151 ****        -1.2500 -25.5000 -15.7500 Du        
   4152 ****        -1.2500 -25.5000 -15.5000 Du        
   4153 ****        -1.2500 -25.5000 -15.2500 Du        
   4154 ****        -1.2500 -25.5000 -15.0000 Du        
   4155 ****        -1.2500 -25.5000 -14.7500 Du        
   4156 ****        -1.2500 -25.5000 -14.5000 Du        
   4157 ****        -1.2500 -25.5000 -14.2500 Du        
   4158 ****        -1.2500 -25.2500 -16.2500 Du        
   4159 ****        -1.2500 -25.2500 -16.0000 Du        
   4160 ****        -1.2500 -25.2500 -15.7500 Du        
   4161 ****        -1.2500 -25.2500 -15.5000 Du        
   4162 ****        -1.2500 -25.2500 -15.2500 Du        
   4163 ****        -1.2500 -25.2500 -15.0000 Du        
   4164 ****        -1.2500 -25.2500 -14.7500 Du        
   4165 ****        -1.2500 -25.2500 -14.5000 Du        
   4166 ****        -1.2500 -25.2500 -14.2500 Du        
   4167 ****        -1.2500 -25.2500 -14.0000 Du        
   4168 ****        -1.2500 -25.0000 -16.2500 Du        
   4169 ****        -1.2500 -25.0000 -16.0000 Du        
   4170 ****        -1.2500 -25.0000 -15.7500 Du        
   4171 ****        -1.2500 -25.0000 -15.5000 Du        
   4172 ****        -1.2500 -25.0000 -15.2500 Du        
   4173 ****        -1.2500 -25.0000 -15.0000 Du        
   4174 ****        -1.2500 -25.0000 -14.7500 Du        
   4175 ****        -1.2500 -25.0000 -14.5000 Du        
   4176 ****        -1.2500 -25.0000 -14.2500 Du        
   4177 ****        -1.2500 -25.0000 -14.0000 Du        
   4178 ****        -1.2500 -24.7500 -16.0000 Du        
   4179 ****        -1.2500 -24.7500 -15.7500 Du        
   4180 ****        -1.2500 -24.7500 -15.5000 Du        
   4181 ****        -1.2500 -24.7500 -15.2500 Du        
   4182 ****        -1.2500 -24.7500 -15.0000 Du        
   4183 ****        -1.2500 -24.7500 -14.7500 Du        
   4184 ****        -1.2500 -24.7500 -14.5000 Du        
   4185 ****        -1.2500 -24.7500 -14.2500 Du        
   4186 ****        -1.2500 -24.7500 -14.0000 Du        
   4187 ****        -1.2500 -24.5000 -16.0000 Du        
   4188 ****        -1.2500 -24.5000 -15.7500 Du        
   4189 ****        -1.2500 -24.5000 -15.5000 Du        
   4190 ****        -1.2500 -24.5000 -15.2500 Du        
   4191 ****        -1.2500 -24.5000 -15.0000 Du        
   4192 ****        -1.2500 -24.5000 -14.7500 Du        
   4193 ****        -1.2500 -24.5000 -14.5000 Du        
   4194 ****        -1.2500 -24.5000 -14.2500 Du        
   4195 ****        -1.2500 -24.5000 -14.0000 Du        
   4196 ****        -1.2500 -24.2500 -16.0000 Du        
   4197 ****        -1.2500 -24.2500 -15.7500 Du        
   4198 ****        -1.2500 -24.2500 -15.5000 Du        
   4199 ****        -1.2500 -24.2500 -15.2500 Du        
   4200 ****        -1.2500 -24.2500 -15.0000 Du        
   4201 ****        -1.2500 -24.2500 -14.7500 Du        
   4202 ****        -1.2500 -24.2500 -14.5000 Du        
   4203 ****        -1.2500 -24.2500 -14.2500 Du        
   4204 ****        -1.2500 -24.2500 -14.0000 Du        
   4205 ****        -1.2500 -24.0000 -15.7500 Du        
   4206 ****        -1.2500 -24.0000 -15.5000 Du        
   4207 ****        -1.2500 -24.0000 -15.2500 Du        
   4208 ****        -1.2500 -24.0000 -15.0000 Du        
   4209 ****        -1.2500 -24.0000 -14.7500 Du        
   4210 ****        -1.2500 -24.0000 -14.5000 Du        
   4211 ****        -1.2500 -24.0000 -14.2500 Du        
   4212 ****        -1.2500 -24.0000 -14.0000 Du        
   4213 ****        -1.2500 -23.7500 -15.5000 Du        
   4214 ****        -1.2500 -23.7500 -15.2500 Du        
   4215 ****        -1.2500 -23.7500 -15.0000 Du        
   4216 ****        -1.2500 -23.7500 -14.7500 Du        
   4217 ****        -1.2500 -23.7500 -14.5000 Du        
   4218 ****        -1.2500 -23.7500 -14.2500 Du        
   4219 ****        -1.2500 -23.5000 -15.2500 Du        
   4220 ****        -1.2500 -23.5000 -15.0000 Du        
   4221 ****        -1.2500 -23.5000 -14.7500 Du        
   4222 ****        -1.2500 -23.5000 -14.5000 Du        
   4223 ****        -1.2500 -18.7500 -16.0000 Du        
   4224 ****        -1.2500 -18.7500 -15.7500 Du        
   4225 ****        -1.2500 -18.7500 -15.5000 Du        
   4226 ****        -1.2500 -18.5000 -16.0000 Du        
   4227 ****        -1.2500 -18.5000 -15.7500 Du        
   4228 ****        -1.2500 -18.5000 -15.5000 Du        
   4229 ****        -1.2500 -18.5000 -15.2500 Du        
   4230 ****        -1.2500 -18.2500 -16.2500 Du        
   4231 ****        -1.2500 -18.2500 -16.0000 Du        
   4232 ****        -1.2500 -18.2500 -15.7500 Du        
   4233 ****        -1.2500 -18.2500 -15.5000 Du        
   4234 ****        -1.2500 -18.2500 -15.2500 Du        
   4235 ****        -1.2500 -18.0000 -16.5000 Du        
   4236 ****        -1.2500 -18.0000 -16.2500 Du        
   4237 ****        -1.2500 -18.0000 -16.0000 Du        
   4238 ****        -1.2500 -18.0000 -15.7500 Du        
   4239 ****        -1.2500 -18.0000 -15.5000 Du        
   4240 ****        -1.2500 -18.0000 -15.2500 Du        
   4241 ****        -1.2500 -17.7500 -16.5000 Du        
   4242 ****        -1.2500 -17.7500 -16.2500 Du        
   4243 ****        -1.2500 -17.7500 -16.0000 Du        
   4244 ****        -1.2500 -17.7500 -15.7500 Du        
   4245 ****        -1.2500 -17.7500 -15.5000 Du        
   4246 ****        -1.2500 -17.7500 -15.2500 Du        
   4247 ****        -1.2500 -17.5000 -16.5000 Du        
   4248 ****        -1.2500 -17.5000 -16.2500 Du        
   4249 ****        -1.2500 -17.5000 -16.0000 Du        
   4250 ****        -1.2500 -17.5000 -15.7500 Du        
   4251 ****        -1.2500 -17.5000 -15.5000 Du        
   4252 ****        -1.2500 -17.2500 -16.5000 Du        
   4253 ****        -1.2500 -17.2500 -16.2500 Du        
   4254 ****        -1.2500 -17.2500 -16.0000 Du        
   4255 ****        -1.2500 -17.2500 -15.7500 Du        
   4256 ****        -1.2500 -17.2500 -15.5000 Du        
   4257 ****        -1.2500 -17.0000 -16.5000 Du        
   4258 ****        -1.2500 -17.0000 -16.2500 Du        
   4259 ****        -1.2500 -17.0000 -16.0000 Du        
   4260 ****        -1.2500 -17.0000 -15.7500 Du        
   4261 ****        -1.2500 -17.0000 -15.5000 Du        
   4262 ****        -1.2500 -16.7500 -16.5000 Du        
   4263 ****        -1.2500 -16.7500 -16.2500 Du        
   4264 ****        -1.2500 -16.7500 -16.0000 Du        
   4265 ****        -1.2500 -16.7500 -15.7500 Du        
   4266 ****        -1.2500 -16.7500 -15.5000 Du        
   4267 ****        -1.2500 -16.5000 -16.5000 Du        
   4268 ****        -1.2500 -16.5000 -16.2500 Du        
   4269 ****        -1.2500 -16.5000 -16.0000 Du        
   4270 ****        -1.2500 -16.5000 -15.7500 Du        
   4271 ****        -1.2500 -16.5000 -15.5000 Du        
   4272 ****        -1.2500 -16.2500 -16.7500 Du        
   4273 ****        -1.2500 -16.2500 -16.5000 Du        
   4274 ****        -1.2500 -16.2500 -16.2500 Du        
   4275 ****        -1.2500 -16.2500 -16.0000 Du        
   4276 ****        -1.2500 -16.2500 -15.7500 Du        
   4277 ****        -1.2500 -16.2500 -15.5000 Du        
   4278 ****        -1.2500 -16.0000 -16.7500 Du        
   4279 ****        -1.2500 -16.0000 -16.5000 Du        
   4280 ****        -1.2500 -16.0000 -16.2500 Du        
   4281 ****        -1.2500 -16.0000 -16.0000 Du        
   4282 ****        -1.2500 -16.0000 -15.7500 Du        
   4283 ****        -1.2500 -15.7500 -16.7500 Du        
   4284 ****        -1.2500 -15.7500 -16.5000 Du        
   4285 ****        -1.2500 -15.7500 -16.2500 Du        
   4286 ****        -1.2500 -15.7500 -16.0000 Du        
   4287 ****        -1.2500 -15.7500 -15.7500 Du        
   4288 ****        -1.2500 -15.5000 -16.7500 Du        
   4289 ****        -1.2500 -15.5000 -16.5000 Du        
   4290 ****        -1.2500 -15.5000 -16.2500 Du        
   4291 ****        -1.2500 -15.5000 -16.0000 Du        
   4292 ****        -1.2500 -15.2500 -16.5000 Du        
   4293 ****        -1.2500 -15.2500 -16.2500 Du        
   4294 ****        -1.0000 -31.0000 -17.0000 Du        
   4295 ****        -1.0000 -31.0000 -16.7500 Du        
   4296 ****        -1.0000 -30.7500 -17.0000 Du        
   4297 ****        -1.0000 -26.2500 -15.2500 Du        
   4298 ****        -1.0000 -26.2500 -15.0000 Du        
   4299 ****        -1.0000 -26.2500 -14.7500 Du        
   4300 ****        -1.0000 -26.2500 -14.2500 Du        
   4301 ****        -1.0000 -26.0000 -15.5000 Du        
   4302 ****        -1.0000 -26.0000 -15.2500 Du        
   4303 ****        -1.0000 -26.0000 -15.0000 Du        
   4304 ****        -1.0000 -26.0000 -14.7500 Du        
   4305 ****        -1.0000 -26.0000 -14.2500 Du        
   4306 ****        -1.0000 -25.7500 -15.5000 Du        
   4307 ****        -1.0000 -25.7500 -15.2500 Du        
   4308 ****        -1.0000 -25.7500 -15.0000 Du        
   4309 ****        -1.0000 -25.7500 -14.7500 Du        
   4310 ****        -1.0000 -25.7500 -14.5000 Du        
   4311 ****        -1.0000 -25.7500 -14.2500 Du        
   4312 ****        -1.0000 -25.7500 -14.0000 Du        
   4313 ****        -1.0000 -25.5000 -15.7500 Du        
   4314 ****        -1.0000 -25.5000 -15.5000 Du        
   4315 ****        -1.0000 -25.5000 -15.2500 Du        
   4316 ****        -1.0000 -25.5000 -15.0000 Du        
   4317 ****        -1.0000 -25.5000 -14.7500 Du        
   4318 ****        -1.0000 -25.5000 -14.5000 Du        
   4319 ****        -1.0000 -25.5000 -14.2500 Du        
   4320 ****        -1.0000 -25.5000 -14.0000 Du        
   4321 ****        -1.0000 -25.2500 -16.0000 Du        
   4322 ****        -1.0000 -25.2500 -15.7500 Du        
   4323 ****        -1.0000 -25.2500 -15.5000 Du        
   4324 ****        -1.0000 -25.2500 -15.2500 Du        
   4325 ****        -1.0000 -25.2500 -15.0000 Du        
   4326 ****        -1.0000 -25.2500 -14.7500 Du        
   4327 ****        -1.0000 -25.2500 -14.5000 Du        
   4328 ****        -1.0000 -25.2500 -14.2500 Du        
   4329 ****        -1.0000 -25.2500 -14.0000 Du        
   4330 ****        -1.0000 -25.0000 -16.0000 Du        
   4331 ****        -1.0000 -25.0000 -15.7500 Du        
   4332 ****        -1.0000 -25.0000 -15.5000 Du        
   4333 ****        -1.0000 -25.0000 -15.2500 Du        
   4334 ****        -1.0000 -25.0000 -15.0000 Du        
   4335 ****        -1.0000 -25.0000 -14.7500 Du        
   4336 ****        -1.0000 -25.0000 -14.5000 Du        
   4337 ****        -1.0000 -25.0000 -14.2500 Du        
   4338 ****        -1.0000 -25.0000 -14.0000 Du        
   4339 ****        -1.0000 -24.7500 -16.0000 Du        
   4340 ****        -1.0000 -24.7500 -15.7500 Du        
   4341 ****        -1.0000 -24.7500 -15.5000 Du        
   4342 ****        -1.0000 -24.7500 -15.2500 Du        
   4343 ****        -1.0000 -24.7500 -15.0000 Du        
   4344 ****        -1.0000 -24.7500 -14.7500 Du        
   4345 ****        -1.0000 -24.7500 -14.5000 Du        
   4346 ****        -1.0000 -24.7500 -14.2500 Du        
   4347 ****        -1.0000 -24.7500 -14.0000 Du        
   4348 ****        -1.0000 -24.7500 -13.7500 Du        
   4349 ****        -1.0000 -24.5000 -16.0000 Du        
   4350 ****        -1.0000 -24.5000 -15.7500 Du        
   4351 ****        -1.0000 -24.5000 -15.5000 Du        
   4352 ****        -1.0000 -24.5000 -15.2500 Du        
   4353 ****        -1.0000 -24.5000 -15.0000 Du        
   4354 ****        -1.0000 -24.5000 -14.7500 Du        
   4355 ****        -1.0000 -24.5000 -14.5000 Du        
   4356 ****        -1.0000 -24.5000 -14.2500 Du        
   4357 ****        -1.0000 -24.5000 -14.0000 Du        
   4358 ****        -1.0000 -24.5000 -13.7500 Du        
   4359 ****        -1.0000 -24.2500 -16.0000 Du        
   4360 ****        -1.0000 -24.2500 -15.7500 Du        
   4361 ****        -1.0000 -24.2500 -15.5000 Du        
   4362 ****        -1.0000 -24.2500 -15.2500 Du        
   4363 ****        -1.0000 -24.2500 -15.0000 Du        
   4364 ****        -1.0000 -24.2500 -14.7500 Du        
   4365 ****        -1.0000 -24.2500 -14.5000 Du        
   4366 ****        -1.0000 -24.2500 -14.2500 Du        
   4367 ****        -1.0000 -24.2500 -14.0000 Du        
   4368 ****        -1.0000 -24.2500 -13.7500 Du        
   4369 ****        -1.0000 -24.0000 -16.0000 Du        
   4370 ****        -1.0000 -24.0000 -15.7500 Du        
   4371 ****        -1.0000 -24.0000 -15.5000 Du        
   4372 ****        -1.0000 -24.0000 -15.2500 Du        
   4373 ****        -1.0000 -24.0000 -15.0000 Du        
   4374 ****        -1.0000 -24.0000 -14.7500 Du        
   4375 ****        -1.0000 -24.0000 -14.5000 Du        
   4376 ****        -1.0000 -24.0000 -14.2500 Du        
   4377 ****        -1.0000 -24.0000 -14.0000 Du        
   4378 ****        -1.0000 -23.7500 -15.7500 Du        
   4379 ****        -1.0000 -23.7500 -15.5000 Du        
   4380 ****        -1.0000 -23.7500 -15.2500 Du        
   4381 ****        -1.0000 -23.7500 -15.0000 Du        
   4382 ****        -1.0000 -23.7500 -14.7500 Du        
   4383 ****        -1.0000 -23.7500 -14.5000 Du        
   4384 ****        -1.0000 -23.7500 -14.2500 Du        
   4385 ****        -1.0000 -23.7500 -14.0000 Du        
   4386 ****        -1.0000 -23.5000 -15.5000 Du        
   4387 ****        -1.0000 -23.5000 -15.2500 Du        
   4388 ****        -1.0000 -23.5000 -15.0000 Du        
   4389 ****        -1.0000 -23.5000 -14.7500 Du        
   4390 ****        -1.0000 -23.5000 -14.5000 Du        
   4391 ****        -1.0000 -23.5000 -14.2500 Du        
   4392 ****        -1.0000 -23.2500 -15.5000 Du        
   4393 ****        -1.0000 -23.2500 -15.2500 Du        
   4394 ****        -1.0000 -23.2500 -15.0000 Du        
   4395 ****        -1.0000 -23.2500 -14.7500 Du        
   4396 ****        -1.0000 -23.2500 -14.5000 Du        
   4397 ****        -1.0000 -23.0000 -15.2500 Du        
   4398 ****        -1.0000 -23.0000 -15.0000 Du        
   4399 ****        -1.0000 -23.0000 -14.7500 Du        
   4400 ****        -1.0000 -22.7500 -15.0000 Du        
   4401 ****        -1.0000 -19.7500 -15.2500 Du        
   4402 ****        -1.0000 -19.5000 -15.5000 Du        
   4403 ****        -1.0000 -19.5000 -15.2500 Du        
   4404 ****        -1.0000 -19.2500 -16.0000 Du        
   4405 ****        -1.0000 -19.2500 -15.7500 Du        
   4406 ****        -1.0000 -19.2500 -15.5000 Du        
   4407 ****        -1.0000 -19.2500 -15.2500 Du        
   4408 ****        -1.0000 -19.2500 -15.0000 Du        
   4409 ****        -1.0000 -19.0000 -16.0000 Du        
   4410 ****        -1.0000 -19.0000 -15.7500 Du        
   4411 ****        -1.0000 -19.0000 -15.5000 Du        
   4412 ****        -1.0000 -19.0000 -15.2500 Du        
   4413 ****        -1.0000 -19.0000 -15.0000 Du        
   4414 ****        -1.0000 -18.7500 -16.2500 Du        
   4415 ****        -1.0000 -18.7500 -16.0000 Du        
   4416 ****        -1.0000 -18.7500 -15.7500 Du        
   4417 ****        -1.0000 -18.7500 -15.5000 Du        
   4418 ****        -1.0000 -18.7500 -15.2500 Du        
   4419 ****        -1.0000 -18.5000 -16.2500 Du        
   4420 ****        -1.0000 -18.5000 -16.0000 Du        
   4421 ****        -1.0000 -18.5000 -15.7500 Du        
   4422 ****        -1.0000 -18.5000 -15.5000 Du        
   4423 ****        -1.0000 -18.5000 -15.2500 Du        
   4424 ****        -1.0000 -18.2500 -16.2500 Du        
   4425 ****        -1.0000 -18.2500 -16.0000 Du        
   4426 ****        -1.0000 -18.2500 -15.7500 Du        
   4427 ****        -1.0000 -18.2500 -15.5000 Du        
   4428 ****        -1.0000 -18.2500 -15.2500 Du        
   4429 ****        -1.0000 -18.0000 -16.5000 Du        
   4430 ****        -1.0000 -18.0000 -16.2500 Du        
   4431 ****        -1.0000 -18.0000 -16.0000 Du        
   4432 ****        -1.0000 -18.0000 -15.7500 Du        
   4433 ****        -1.0000 -18.0000 -15.5000 Du        
   4434 ****        -1.0000 -18.0000 -15.2500 Du        
   4435 ****        -1.0000 -18.0000 -15.0000 Du        
   4436 ****        -1.0000 -17.7500 -16.2500 Du        
   4437 ****        -1.0000 -17.7500 -16.0000 Du        
   4438 ****        -1.0000 -17.7500 -15.7500 Du        
   4439 ****        -1.0000 -17.7500 -15.5000 Du        
   4440 ****        -1.0000 -17.7500 -15.2500 Du        
   4441 ****        -1.0000 -17.5000 -16.5000 Du        
   4442 ****        -1.0000 -17.5000 -16.2500 Du        
   4443 ****        -1.0000 -17.5000 -16.0000 Du        
   4444 ****        -1.0000 -17.5000 -15.7500 Du        
   4445 ****        -1.0000 -17.5000 -15.5000 Du        
   4446 ****        -1.0000 -17.5000 -15.2500 Du        
   4447 ****        -1.0000 -17.2500 -16.5000 Du        
   4448 ****        -1.0000 -17.2500 -16.2500 Du        
   4449 ****        -1.0000 -17.2500 -16.0000 Du        
   4450 ****        -1.0000 -17.2500 -15.7500 Du        
   4451 ****        -1.0000 -17.2500 -15.5000 Du        
   4452 ****        -1.0000 -17.2500 -15.2500 Du        
   4453 ****        -1.0000 -17.0000 -16.5000 Du        
   4454 ****        -1.0000 -17.0000 -16.2500 Du        
   4455 ****        -1.0000 -17.0000 -16.0000 Du        
   4456 ****        -1.0000 -17.0000 -15.7500 Du        
   4457 ****        -1.0000 -17.0000 -15.5000 Du        
   4458 ****        -1.0000 -17.0000 -15.2500 Du        
   4459 ****        -1.0000 -16.7500 -16.5000 Du        
   4460 ****        -1.0000 -16.7500 -16.2500 Du        
   4461 ****        -1.0000 -16.7500 -16.0000 Du        
   4462 ****        -1.0000 -16.7500 -15.7500 Du        
   4463 ****        -1.0000 -16.7500 -15.5000 Du        
   4464 ****        -1.0000 -16.5000 -16.5000 Du        
   4465 ****        -1.0000 -16.5000 -16.2500 Du        
   4466 ****        -1.0000 -16.5000 -16.0000 Du        
   4467 ****        -1.0000 -16.5000 -15.7500 Du        
   4468 ****        -1.0000 -16.5000 -15.5000 Du        
   4469 ****        -1.0000 -16.2500 -16.5000 Du        
   4470 ****        -1.0000 -16.2500 -16.2500 Du        
   4471 ****        -1.0000 -16.2500 -16.0000 Du        
   4472 ****        -1.0000 -16.2500 -15.7500 Du        
   4473 ****        -1.0000 -16.0000 -16.7500 Du        
   4474 ****        -1.0000 -16.0000 -16.5000 Du        
   4475 ****        -1.0000 -16.0000 -16.2500 Du        
   4476 ****        -1.0000 -16.0000 -16.0000 Du        
   4477 ****        -1.0000 -16.0000 -15.7500 Du        
   4478 ****        -1.0000 -15.7500 -16.5000 Du        
   4479 ****        -1.0000 -15.7500 -16.2500 Du        
   4480 ****        -1.0000 -15.7500 -16.0000 Du        
   4481 ****        -1.0000 -15.5000 -16.5000 Du        
   4482 ****        -1.0000 -15.5000 -16.2500 Du        
   4483 ****        -1.0000 -15.5000 -16.0000 Du        
   4484 ****        -1.0000 -15.2500 -16.7500 Du        
   4485 ****        -1.0000 -15.2500 -16.5000 Du        
   4486 ****        -1.0000 -15.2500 -16.2500 Du        
   4487 ****        -1.0000 -15.0000 -16.5000 Du        
   4488 ****        -0.7500 -31.2500 -17.0000 Du        
   4489 ****        -0.7500 -31.0000 -17.0000 Du        
   4490 ****        -0.7500 -31.0000 -16.7500 Du        
   4491 ****        -0.7500 -27.7500 -14.0000 Du        
   4492 ****        -0.7500 -27.7500 -13.7500 Du        
   4493 ****        -0.7500 -27.5000 -14.0000 Du        
   4494 ****        -0.7500 -27.5000 -13.7500 Du        
   4495 ****        -0.7500 -27.2500 -14.0000 Du        
   4496 ****        -0.7500 -27.0000 -14.0000 Du        
   4497 ****        -0.7500 -26.7500 -14.0000 Du        
   4498 ****        -0.7500 -26.5000 -14.2500 Du        
   4499 ****        -0.7500 -26.2500 -15.2500 Du        
   4500 ****        -0.7500 -26.2500 -15.0000 Du        
   4501 ****        -0.7500 -26.2500 -14.7500 Du        
   4502 ****        -0.7500 -26.2500 -14.5000 Du        
   4503 ****        -0.7500 -26.2500 -14.2500 Du        
   4504 ****        -0.7500 -26.2500 -14.0000 Du        
   4505 ****        -0.7500 -26.0000 -15.2500 Du        
   4506 ****        -0.7500 -26.0000 -15.0000 Du        
   4507 ****        -0.7500 -26.0000 -14.7500 Du        
   4508 ****        -0.7500 -26.0000 -14.5000 Du        
   4509 ****        -0.7500 -26.0000 -14.2500 Du        
   4510 ****        -0.7500 -26.0000 -14.0000 Du        
   4511 ****        -0.7500 -25.7500 -15.2500 Du        
   4512 ****        -0.7500 -25.7500 -15.0000 Du        
   4513 ****        -0.7500 -25.7500 -14.7500 Du        
   4514 ****        -0.7500 -25.7500 -14.5000 Du        
   4515 ****        -0.7500 -25.7500 -14.2500 Du        
   4516 ****        -0.7500 -25.7500 -14.0000 Du        
   4517 ****        -0.7500 -25.5000 -15.2500 Du        
   4518 ****        -0.7500 -25.5000 -15.0000 Du        
   4519 ****        -0.7500 -25.5000 -14.7500 Du        
   4520 ****        -0.7500 -25.5000 -14.5000 Du        
   4521 ****        -0.7500 -25.5000 -14.2500 Du        
   4522 ****        -0.7500 -25.5000 -14.0000 Du        
   4523 ****        -0.7500 -25.5000 -13.7500 Du        
   4524 ****        -0.7500 -25.2500 -15.7500 Du        
   4525 ****        -0.7500 -25.2500 -15.5000 Du        
   4526 ****        -0.7500 -25.2500 -15.2500 Du        
   4527 ****        -0.7500 -25.2500 -15.0000 Du        
   4528 ****        -0.7500 -25.2500 -14.7500 Du        
   4529 ****        -0.7500 -25.2500 -14.5000 Du        
   4530 ****        -0.7500 -25.2500 -14.2500 Du        
   4531 ****        -0.7500 -25.2500 -14.0000 Du        
   4532 ****        -0.7500 -25.2500 -13.7500 Du        
   4533 ****        -0.7500 -25.0000 -15.7500 Du        
   4534 ****        -0.7500 -25.0000 -15.5000 Du        
   4535 ****        -0.7500 -25.0000 -15.2500 Du        
   4536 ****        -0.7500 -25.0000 -15.0000 Du        
   4537 ****        -0.7500 -25.0000 -14.7500 Du        
   4538 ****        -0.7500 -25.0000 -14.5000 Du        
   4539 ****        -0.7500 -25.0000 -14.2500 Du        
   4540 ****        -0.7500 -25.0000 -14.0000 Du        
   4541 ****        -0.7500 -25.0000 -13.7500 Du        
   4542 ****        -0.7500 -24.7500 -15.7500 Du        
   4543 ****        -0.7500 -24.7500 -15.5000 Du        
   4544 ****        -0.7500 -24.7500 -15.2500 Du        
   4545 ****        -0.7500 -24.7500 -15.0000 Du        
   4546 ****        -0.7500 -24.7500 -14.7500 Du        
   4547 ****        -0.7500 -24.7500 -14.5000 Du        
   4548 ****        -0.7500 -24.7500 -14.2500 Du        
   4549 ****        -0.7500 -24.7500 -14.0000 Du        
   4550 ****        -0.7500 -24.7500 -13.7500 Du        
   4551 ****        -0.7500 -24.5000 -15.7500 Du        
   4552 ****        -0.7500 -24.5000 -15.5000 Du        
   4553 ****        -0.7500 -24.5000 -15.2500 Du        
   4554 ****        -0.7500 -24.5000 -15.0000 Du        
   4555 ****        -0.7500 -24.5000 -14.7500 Du        
   4556 ****        -0.7500 -24.5000 -14.5000 Du        
   4557 ****        -0.7500 -24.5000 -14.2500 Du        
   4558 ****        -0.7500 -24.5000 -14.0000 Du        
   4559 ****        -0.7500 -24.5000 -13.7500 Du        
   4560 ****        -0.7500 -24.2500 -16.0000 Du        
   4561 ****        -0.7500 -24.2500 -15.7500 Du        
   4562 ****        -0.7500 -24.2500 -15.5000 Du        
   4563 ****        -0.7500 -24.2500 -15.2500 Du        
   4564 ****        -0.7500 -24.2500 -15.0000 Du        
   4565 ****        -0.7500 -24.2500 -14.7500 Du        
   4566 ****        -0.7500 -24.2500 -14.5000 Du        
   4567 ****        -0.7500 -24.2500 -14.2500 Du        
   4568 ****        -0.7500 -24.2500 -14.0000 Du        
   4569 ****        -0.7500 -24.2500 -13.7500 Du        
   4570 ****        -0.7500 -24.0000 -16.0000 Du        
   4571 ****        -0.7500 -24.0000 -15.7500 Du        
   4572 ****        -0.7500 -24.0000 -15.5000 Du        
   4573 ****        -0.7500 -24.0000 -15.2500 Du        
   4574 ****        -0.7500 -24.0000 -15.0000 Du        
   4575 ****        -0.7500 -24.0000 -14.7500 Du        
   4576 ****        -0.7500 -24.0000 -14.5000 Du        
   4577 ****        -0.7500 -24.0000 -14.2500 Du        
   4578 ****        -0.7500 -24.0000 -14.0000 Du        
   4579 ****        -0.7500 -23.7500 -16.0000 Du        
   4580 ****        -0.7500 -23.7500 -15.7500 Du        
   4581 ****        -0.7500 -23.7500 -15.5000 Du        
   4582 ****        -0.7500 -23.7500 -15.2500 Du        
   4583 ****        -0.7500 -23.7500 -15.0000 Du        
   4584 ****        -0.7500 -23.7500 -14.7500 Du        
   4585 ****        -0.7500 -23.7500 -14.5000 Du        
   4586 ****        -0.7500 -23.7500 -14.2500 Du        
   4587 ****        -0.7500 -23.7500 -14.0000 Du        
   4588 ****        -0.7500 -23.5000 -15.7500 Du        
   4589 ****        -0.7500 -23.5000 -15.5000 Du        
   4590 ****        -0.7500 -23.5000 -15.2500 Du        
   4591 ****        -0.7500 -23.5000 -15.0000 Du        
   4592 ****        -0.7500 -23.5000 -14.7500 Du        
   4593 ****        -0.7500 -23.5000 -14.5000 Du        
   4594 ****        -0.7500 -23.5000 -14.2500 Du        
   4595 ****        -0.7500 -23.2500 -15.7500 Du        
   4596 ****        -0.7500 -23.2500 -15.5000 Du        
   4597 ****        -0.7500 -23.2500 -15.2500 Du        
   4598 ****        -0.7500 -23.2500 -15.0000 Du        
   4599 ****        -0.7500 -23.2500 -14.7500 Du        
   4600 ****        -0.7500 -23.2500 -14.5000 Du        
   4601 ****        -0.7500 -23.0000 -15.7500 Du        
   4602 ****        -0.7500 -23.0000 -15.5000 Du        
   4603 ****        -0.7500 -23.0000 -15.2500 Du        
   4604 ****        -0.7500 -23.0000 -15.0000 Du        
   4605 ****        -0.7500 -23.0000 -14.7500 Du        
   4606 ****        -0.7500 -23.0000 -14.5000 Du        
   4607 ****        -0.7500 -22.7500 -15.7500 Du        
   4608 ****        -0.7500 -22.7500 -15.5000 Du        
   4609 ****        -0.7500 -22.7500 -15.2500 Du        
   4610 ****        -0.7500 -22.7500 -15.0000 Du        
   4611 ****        -0.7500 -22.7500 -14.7500 Du        
   4612 ****        -0.7500 -22.5000 -15.2500 Du        
   4613 ****        -0.7500 -22.5000 -15.0000 Du        
   4614 ****        -0.7500 -22.5000 -14.7500 Du        
   4615 ****        -0.7500 -22.2500 -15.2500 Du        
   4616 ****        -0.7500 -22.2500 -15.0000 Du        
   4617 ****        -0.7500 -22.2500 -14.7500 Du        
   4618 ****        -0.7500 -22.0000 -15.2500 Du        
   4619 ****        -0.7500 -22.0000 -15.0000 Du        
   4620 ****        -0.7500 -22.0000 -14.7500 Du        
   4621 ****        -0.7500 -21.7500 -15.2500 Du        
   4622 ****        -0.7500 -21.7500 -15.0000 Du        
   4623 ****        -0.7500 -21.5000 -15.2500 Du        
   4624 ****        -0.7500 -21.2500 -15.2500 Du        
   4625 ****        -0.7500 -21.2500 -15.0000 Du        
   4626 ****        -0.7500 -21.0000 -15.2500 Du        
   4627 ****        -0.7500 -21.0000 -15.0000 Du        
   4628 ****        -0.7500 -20.7500 -15.2500 Du        
   4629 ****        -0.7500 -20.7500 -15.0000 Du        
   4630 ****        -0.7500 -20.5000 -15.2500 Du        
   4631 ****        -0.7500 -20.5000 -15.0000 Du        
   4632 ****        -0.7500 -20.2500 -15.2500 Du        
   4633 ****        -0.7500 -20.2500 -15.0000 Du        
   4634 ****        -0.7500 -20.0000 -15.5000 Du        
   4635 ****        -0.7500 -20.0000 -15.2500 Du        
   4636 ****        -0.7500 -20.0000 -15.0000 Du        
   4637 ****        -0.7500 -19.7500 -15.7500 Du        
   4638 ****        -0.7500 -19.7500 -15.5000 Du        
   4639 ****        -0.7500 -19.7500 -15.2500 Du        
   4640 ****        -0.7500 -19.7500 -15.0000 Du        
   4641 ****        -0.7500 -19.5000 -15.7500 Du        
   4642 ****        -0.7500 -19.5000 -15.5000 Du        
   4643 ****        -0.7500 -19.5000 -15.2500 Du        
   4644 ****        -0.7500 -19.5000 -15.0000 Du        
   4645 ****        -0.7500 -19.2500 -16.0000 Du        
   4646 ****        -0.7500 -19.2500 -15.7500 Du        
   4647 ****        -0.7500 -19.2500 -15.5000 Du        
   4648 ****        -0.7500 -19.2500 -15.2500 Du        
   4649 ****        -0.7500 -19.2500 -15.0000 Du        
   4650 ****        -0.7500 -19.0000 -16.2500 Du        
   4651 ****        -0.7500 -19.0000 -16.0000 Du        
   4652 ****        -0.7500 -19.0000 -15.7500 Du        
   4653 ****        -0.7500 -19.0000 -15.5000 Du        
   4654 ****        -0.7500 -19.0000 -15.2500 Du        
   4655 ****        -0.7500 -19.0000 -15.0000 Du        
   4656 ****        -0.7500 -18.7500 -16.2500 Du        
   4657 ****        -0.7500 -18.7500 -16.0000 Du        
   4658 ****        -0.7500 -18.7500 -15.7500 Du        
   4659 ****        -0.7500 -18.7500 -15.5000 Du        
   4660 ****        -0.7500 -18.7500 -15.2500 Du        
   4661 ****        -0.7500 -18.7500 -15.0000 Du        
   4662 ****        -0.7500 -18.5000 -16.2500 Du        
   4663 ****        -0.7500 -18.5000 -16.0000 Du        
   4664 ****        -0.7500 -18.5000 -15.7500 Du        
   4665 ****        -0.7500 -18.5000 -15.5000 Du        
   4666 ****        -0.7500 -18.5000 -15.2500 Du        
   4667 ****        -0.7500 -18.5000 -15.0000 Du        
   4668 ****        -0.7500 -18.2500 -16.2500 Du        
   4669 ****        -0.7500 -18.2500 -16.0000 Du        
   4670 ****        -0.7500 -18.2500 -15.7500 Du        
   4671 ****        -0.7500 -18.2500 -15.5000 Du        
   4672 ****        -0.7500 -18.2500 -15.2500 Du        
   4673 ****        -0.7500 -18.2500 -15.0000 Du        
   4674 ****        -0.7500 -18.0000 -16.2500 Du        
   4675 ****        -0.7500 -18.0000 -16.0000 Du        
   4676 ****        -0.7500 -18.0000 -15.7500 Du        
   4677 ****        -0.7500 -18.0000 -15.5000 Du        
   4678 ****        -0.7500 -18.0000 -15.2500 Du        
   4679 ****        -0.7500 -18.0000 -15.0000 Du        
   4680 ****        -0.7500 -17.7500 -16.2500 Du        
   4681 ****        -0.7500 -17.7500 -16.0000 Du        
   4682 ****        -0.7500 -17.7500 -15.7500 Du        
   4683 ****        -0.7500 -17.7500 -15.5000 Du        
   4684 ****        -0.7500 -17.7500 -15.2500 Du        
   4685 ****        -0.7500 -17.7500 -15.0000 Du        
   4686 ****        -0.7500 -17.5000 -16.5000 Du        
   4687 ****        -0.7500 -17.5000 -16.2500 Du        
   4688 ****        -0.7500 -17.5000 -16.0000 Du        
   4689 ****        -0.7500 -17.5000 -15.7500 Du        
   4690 ****        -0.7500 -17.5000 -15.5000 Du        
   4691 ****        -0.7500 -17.5000 -15.2500 Du        
   4692 ****        -0.7500 -17.2500 -16.5000 Du        
   4693 ****        -0.7500 -17.2500 -16.2500 Du        
   4694 ****        -0.7500 -17.2500 -16.0000 Du        
   4695 ****        -0.7500 -17.2500 -15.7500 Du        
   4696 ****        -0.7500 -17.2500 -15.5000 Du        
   4697 ****        -0.7500 -17.2500 -15.2500 Du        
   4698 ****        -0.7500 -17.0000 -16.2500 Du        
   4699 ****        -0.7500 -17.0000 -16.0000 Du        
   4700 ****        -0.7500 -17.0000 -15.7500 Du        
   4701 ****        -0.7500 -17.0000 -15.5000 Du        
   4702 ****        -0.7500 -17.0000 -15.2500 Du        
   4703 ****        -0.7500 -16.7500 -16.2500 Du        
   4704 ****        -0.7500 -16.7500 -16.0000 Du        
   4705 ****        -0.7500 -16.7500 -15.7500 Du        
   4706 ****        -0.7500 -16.7500 -15.5000 Du        
   4707 ****        -0.7500 -16.5000 -16.2500 Du        
   4708 ****        -0.7500 -16.5000 -16.0000 Du        
   4709 ****        -0.7500 -16.2500 -16.2500 Du        
   4710 ****        -0.7500 -16.2500 -16.0000 Du        
   4711 ****        -0.7500 -16.0000 -16.5000 Du        
   4712 ****        -0.7500 -16.0000 -16.2500 Du        
   4713 ****        -0.7500 -16.0000 -16.0000 Du        
   4714 ****        -0.7500 -15.7500 -16.5000 Du        
   4715 ****        -0.7500 -15.7500 -16.2500 Du        
   4716 ****        -0.7500 -15.7500 -16.0000 Du        
   4717 ****        -0.7500 -15.5000 -16.5000 Du        
   4718 ****        -0.7500 -15.5000 -16.2500 Du        
   4719 ****        -0.7500 -15.2500 -16.5000 Du        
   4720 ****        -0.7500 -15.2500 -16.2500 Du        
   4721 ****        -0.7500 -15.0000 -16.5000 Du        
   4722 ****        -0.7500 -15.0000 -16.2500 Du        
   4723 ****        -0.5000 -28.2500 -14.2500 Du        
   4724 ****        -0.5000 -28.2500 -14.0000 Du        
   4725 ****        -0.5000 -28.0000 -14.2500 Du        
   4726 ****        -0.5000 -28.0000 -14.0000 Du        
   4727 ****        -0.5000 -28.0000 -13.7500 Du        
   4728 ****        -0.5000 -27.7500 -14.2500 Du        
   4729 ****        -0.5000 -27.7500 -14.0000 Du        
   4730 ****        -0.5000 -27.7500 -13.7500 Du        
   4731 ****        -0.5000 -27.7500 -13.5000 Du        
   4732 ****        -0.5000 -27.5000 -14.5000 Du        
   4733 ****        -0.5000 -27.5000 -14.2500 Du        
   4734 ****        -0.5000 -27.5000 -14.0000 Du        
   4735 ****        -0.5000 -27.5000 -13.7500 Du        
   4736 ****        -0.5000 -27.5000 -13.5000 Du        
   4737 ****        -0.5000 -27.2500 -14.2500 Du        
   4738 ****        -0.5000 -27.2500 -14.0000 Du        
   4739 ****        -0.5000 -27.2500 -13.7500 Du        
   4740 ****        -0.5000 -27.2500 -13.5000 Du        
   4741 ****        -0.5000 -27.0000 -14.2500 Du        
   4742 ****        -0.5000 -27.0000 -14.0000 Du        
   4743 ****        -0.5000 -27.0000 -13.7500 Du        
   4744 ****        -0.5000 -27.0000 -13.5000 Du        
   4745 ****        -0.5000 -26.7500 -14.2500 Du        
   4746 ****        -0.5000 -26.7500 -14.0000 Du        
   4747 ****        -0.5000 -26.7500 -13.7500 Du        
   4748 ****        -0.5000 -26.7500 -13.5000 Du        
   4749 ****        -0.5000 -26.5000 -14.2500 Du        
   4750 ****        -0.5000 -26.5000 -14.0000 Du        
   4751 ****        -0.5000 -26.5000 -13.7500 Du        
   4752 ****        -0.5000 -26.5000 -13.5000 Du        
   4753 ****        -0.5000 -26.2500 -14.5000 Du        
   4754 ****        -0.5000 -26.2500 -14.2500 Du        
   4755 ****        -0.5000 -26.2500 -14.0000 Du        
   4756 ****        -0.5000 -26.2500 -13.7500 Du        
   4757 ****        -0.5000 -26.2500 -13.5000 Du        
   4758 ****        -0.5000 -26.0000 -14.7500 Du        
   4759 ****        -0.5000 -26.0000 -14.5000 Du        
   4760 ****        -0.5000 -26.0000 -14.2500 Du        
   4761 ****        -0.5000 -26.0000 -14.0000 Du        
   4762 ****        -0.5000 -26.0000 -13.7500 Du        
   4763 ****        -0.5000 -26.0000 -13.5000 Du        
   4764 ****        -0.5000 -25.7500 -14.7500 Du        
   4765 ****        -0.5000 -25.7500 -14.5000 Du        
   4766 ****        -0.5000 -25.7500 -14.2500 Du        
   4767 ****        -0.5000 -25.7500 -14.0000 Du        
   4768 ****        -0.5000 -25.7500 -13.7500 Du        
   4769 ****        -0.5000 -25.7500 -13.5000 Du        
   4770 ****        -0.5000 -25.5000 -15.2500 Du        
   4771 ****        -0.5000 -25.5000 -15.0000 Du        
   4772 ****        -0.5000 -25.5000 -14.7500 Du        
   4773 ****        -0.5000 -25.5000 -14.5000 Du        
   4774 ****        -0.5000 -25.5000 -14.2500 Du        
   4775 ****        -0.5000 -25.5000 -14.0000 Du        
   4776 ****        -0.5000 -25.5000 -13.7500 Du        
   4777 ****        -0.5000 -25.5000 -13.5000 Du        
   4778 ****        -0.5000 -25.2500 -15.2500 Du        
   4779 ****        -0.5000 -25.2500 -15.0000 Du        
   4780 ****        -0.5000 -25.2500 -14.7500 Du        
   4781 ****        -0.5000 -25.2500 -14.5000 Du        
   4782 ****        -0.5000 -25.2500 -14.2500 Du        
   4783 ****        -0.5000 -25.2500 -14.0000 Du        
   4784 ****        -0.5000 -25.2500 -13.7500 Du        
   4785 ****        -0.5000 -25.2500 -13.5000 Du        
   4786 ****        -0.5000 -25.2500 -13.2500 Du        
   4787 ****        -0.5000 -25.0000 -15.2500 Du        
   4788 ****        -0.5000 -25.0000 -15.0000 Du        
   4789 ****        -0.5000 -25.0000 -14.7500 Du        
   4790 ****        -0.5000 -25.0000 -14.5000 Du        
   4791 ****        -0.5000 -25.0000 -14.2500 Du        
   4792 ****        -0.5000 -25.0000 -14.0000 Du        
   4793 ****        -0.5000 -25.0000 -13.7500 Du        
   4794 ****        -0.5000 -25.0000 -13.5000 Du        
   4795 ****        -0.5000 -25.0000 -13.2500 Du        
   4796 ****        -0.5000 -24.7500 -15.2500 Du        
   4797 ****        -0.5000 -24.7500 -15.0000 Du        
   4798 ****        -0.5000 -24.7500 -14.7500 Du        
   4799 ****        -0.5000 -24.7500 -14.5000 Du        
   4800 ****        -0.5000 -24.7500 -14.2500 Du        
   4801 ****        -0.5000 -24.7500 -14.0000 Du        
   4802 ****        -0.5000 -24.7500 -13.7500 Du        
   4803 ****        -0.5000 -24.7500 -13.5000 Du        
   4804 ****        -0.5000 -24.5000 -15.5000 Du        
   4805 ****        -0.5000 -24.5000 -15.2500 Du        
   4806 ****        -0.5000 -24.5000 -15.0000 Du        
   4807 ****        -0.5000 -24.5000 -14.7500 Du        
   4808 ****        -0.5000 -24.5000 -14.5000 Du        
   4809 ****        -0.5000 -24.5000 -14.2500 Du        
   4810 ****        -0.5000 -24.5000 -14.0000 Du        
   4811 ****        -0.5000 -24.5000 -13.7500 Du        
   4812 ****        -0.5000 -24.2500 -15.7500 Du        
   4813 ****        -0.5000 -24.2500 -15.5000 Du        
   4814 ****        -0.5000 -24.2500 -15.2500 Du        
   4815 ****        -0.5000 -24.2500 -15.0000 Du        
   4816 ****        -0.5000 -24.2500 -14.7500 Du        
   4817 ****        -0.5000 -24.2500 -14.5000 Du        
   4818 ****        -0.5000 -24.2500 -14.2500 Du        
   4819 ****        -0.5000 -24.2500 -14.0000 Du        
   4820 ****        -0.5000 -24.2500 -13.7500 Du        
   4821 ****        -0.5000 -24.0000 -15.7500 Du        
   4822 ****        -0.5000 -24.0000 -15.5000 Du        
   4823 ****        -0.5000 -24.0000 -15.2500 Du        
   4824 ****        -0.5000 -24.0000 -15.0000 Du        
   4825 ****        -0.5000 -24.0000 -14.7500 Du        
   4826 ****        -0.5000 -24.0000 -14.5000 Du        
   4827 ****        -0.5000 -24.0000 -14.2500 Du        
   4828 ****        -0.5000 -24.0000 -14.0000 Du        
   4829 ****        -0.5000 -23.7500 -15.7500 Du        
   4830 ****        -0.5000 -23.7500 -15.5000 Du        
   4831 ****        -0.5000 -23.7500 -15.2500 Du        
   4832 ****        -0.5000 -23.7500 -15.0000 Du        
   4833 ****        -0.5000 -23.7500 -14.7500 Du        
   4834 ****        -0.5000 -23.7500 -14.5000 Du        
   4835 ****        -0.5000 -23.7500 -14.2500 Du        
   4836 ****        -0.5000 -23.5000 -16.0000 Du        
   4837 ****        -0.5000 -23.5000 -15.7500 Du        
   4838 ****        -0.5000 -23.5000 -15.5000 Du        
   4839 ****        -0.5000 -23.5000 -15.2500 Du        
   4840 ****        -0.5000 -23.5000 -15.0000 Du        
   4841 ****        -0.5000 -23.5000 -14.7500 Du        
   4842 ****        -0.5000 -23.5000 -14.5000 Du        
   4843 ****        -0.5000 -23.5000 -14.2500 Du        
   4844 ****        -0.5000 -23.2500 -16.0000 Du        
   4845 ****        -0.5000 -23.2500 -15.7500 Du        
   4846 ****        -0.5000 -23.2500 -15.5000 Du        
   4847 ****        -0.5000 -23.2500 -15.2500 Du        
   4848 ****        -0.5000 -23.2500 -15.0000 Du        
   4849 ****        -0.5000 -23.2500 -14.7500 Du        
   4850 ****        -0.5000 -23.2500 -14.5000 Du        
   4851 ****        -0.5000 -23.0000 -16.0000 Du        
   4852 ****        -0.5000 -23.0000 -15.7500 Du        
   4853 ****        -0.5000 -23.0000 -15.5000 Du        
   4854 ****        -0.5000 -23.0000 -15.2500 Du        
   4855 ****        -0.5000 -23.0000 -15.0000 Du        
   4856 ****        -0.5000 -23.0000 -14.7500 Du        
   4857 ****        -0.5000 -23.0000 -14.5000 Du        
   4858 ****        -0.5000 -22.7500 -16.0000 Du        
   4859 ****        -0.5000 -22.7500 -15.7500 Du        
   4860 ****        -0.5000 -22.7500 -15.5000 Du        
   4861 ****        -0.5000 -22.7500 -15.2500 Du        
   4862 ****        -0.5000 -22.7500 -15.0000 Du        
   4863 ****        -0.5000 -22.7500 -14.7500 Du        
   4864 ****        -0.5000 -22.5000 -15.7500 Du        
   4865 ****        -0.5000 -22.5000 -15.5000 Du        
   4866 ****        -0.5000 -22.5000 -15.2500 Du        
   4867 ****        -0.5000 -22.5000 -15.0000 Du        
   4868 ****        -0.5000 -22.5000 -14.7500 Du        
   4869 ****        -0.5000 -22.2500 -15.5000 Du        
   4870 ****        -0.5000 -22.2500 -15.2500 Du        
   4871 ****        -0.5000 -22.2500 -15.0000 Du        
   4872 ****        -0.5000 -22.2500 -14.7500 Du        
   4873 ****        -0.5000 -22.0000 -15.5000 Du        
   4874 ****        -0.5000 -22.0000 -15.2500 Du        
   4875 ****        -0.5000 -22.0000 -15.0000 Du        
   4876 ****        -0.5000 -22.0000 -14.7500 Du        
   4877 ****        -0.5000 -21.7500 -15.5000 Du        
   4878 ****        -0.5000 -21.7500 -15.2500 Du        
   4879 ****        -0.5000 -21.7500 -15.0000 Du        
   4880 ****        -0.5000 -21.5000 -15.2500 Du        
   4881 ****        -0.5000 -21.5000 -15.0000 Du        
   4882 ****        -0.5000 -21.2500 -15.5000 Du        
   4883 ****        -0.5000 -21.2500 -15.2500 Du        
   4884 ****        -0.5000 -21.2500 -15.0000 Du        
   4885 ****        -0.5000 -21.0000 -15.5000 Du        
   4886 ****        -0.5000 -21.0000 -15.2500 Du        
   4887 ****        -0.5000 -21.0000 -15.0000 Du        
   4888 ****        -0.5000 -20.7500 -15.5000 Du        
   4889 ****        -0.5000 -20.7500 -15.2500 Du        
   4890 ****        -0.5000 -20.7500 -15.0000 Du        
   4891 ****        -0.5000 -20.5000 -15.5000 Du        
   4892 ****        -0.5000 -20.5000 -15.2500 Du        
   4893 ****        -0.5000 -20.5000 -15.0000 Du        
   4894 ****        -0.5000 -20.2500 -15.5000 Du        
   4895 ****        -0.5000 -20.2500 -15.2500 Du        
   4896 ****        -0.5000 -20.2500 -15.0000 Du        
   4897 ****        -0.5000 -20.0000 -15.5000 Du        
   4898 ****        -0.5000 -20.0000 -15.2500 Du        
   4899 ****        -0.5000 -20.0000 -15.0000 Du        
   4900 ****        -0.5000 -20.0000 -14.7500 Du        
   4901 ****        -0.5000 -19.7500 -15.7500 Du        
   4902 ****        -0.5000 -19.7500 -15.5000 Du        
   4903 ****        -0.5000 -19.7500 -15.2500 Du        
   4904 ****        -0.5000 -19.7500 -15.0000 Du        
   4905 ****        -0.5000 -19.7500 -14.7500 Du        
   4906 ****        -0.5000 -19.5000 -15.7500 Du        
   4907 ****        -0.5000 -19.5000 -15.5000 Du        
   4908 ****        -0.5000 -19.5000 -15.2500 Du        
   4909 ****        -0.5000 -19.5000 -15.0000 Du        
   4910 ****        -0.5000 -19.5000 -14.7500 Du        
   4911 ****        -0.5000 -19.2500 -16.0000 Du        
   4912 ****        -0.5000 -19.2500 -15.7500 Du        
   4913 ****        -0.5000 -19.2500 -15.5000 Du        
   4914 ****        -0.5000 -19.2500 -15.2500 Du        
   4915 ****        -0.5000 -19.2500 -15.0000 Du        
   4916 ****        -0.5000 -19.2500 -14.7500 Du        
   4917 ****        -0.5000 -19.0000 -16.0000 Du        
   4918 ****        -0.5000 -19.0000 -15.7500 Du        
   4919 ****        -0.5000 -19.0000 -15.5000 Du        
   4920 ****        -0.5000 -19.0000 -15.2500 Du        
   4921 ****        -0.5000 -19.0000 -15.0000 Du        
   4922 ****        -0.5000 -19.0000 -14.7500 Du        
   4923 ****        -0.5000 -18.7500 -16.0000 Du        
   4924 ****        -0.5000 -18.7500 -15.7500 Du        
   4925 ****        -0.5000 -18.7500 -15.5000 Du        
   4926 ****        -0.5000 -18.7500 -15.2500 Du        
   4927 ****        -0.5000 -18.7500 -15.0000 Du        
   4928 ****        -0.5000 -18.5000 -16.0000 Du        
   4929 ****        -0.5000 -18.5000 -15.7500 Du        
   4930 ****        -0.5000 -18.5000 -15.5000 Du        
   4931 ****        -0.5000 -18.5000 -15.2500 Du        
   4932 ****        -0.5000 -18.5000 -15.0000 Du        
   4933 ****        -0.5000 -18.2500 -16.2500 Du        
   4934 ****        -0.5000 -18.2500 -16.0000 Du        
   4935 ****        -0.5000 -18.2500 -15.7500 Du        
   4936 ****        -0.5000 -18.2500 -15.5000 Du        
   4937 ****        -0.5000 -18.2500 -15.2500 Du        
   4938 ****        -0.5000 -18.2500 -15.0000 Du        
   4939 ****        -0.5000 -18.0000 -16.2500 Du        
   4940 ****        -0.5000 -18.0000 -16.0000 Du        
   4941 ****        -0.5000 -18.0000 -15.7500 Du        
   4942 ****        -0.5000 -18.0000 -15.5000 Du        
   4943 ****        -0.5000 -18.0000 -15.2500 Du        
   4944 ****        -0.5000 -18.0000 -15.0000 Du        
   4945 ****        -0.5000 -17.7500 -16.2500 Du        
   4946 ****        -0.5000 -17.7500 -16.0000 Du        
   4947 ****        -0.5000 -17.7500 -15.7500 Du        
   4948 ****        -0.5000 -17.7500 -15.5000 Du        
   4949 ****        -0.5000 -17.7500 -15.2500 Du        
   4950 ****        -0.5000 -17.7500 -15.0000 Du        
   4951 ****        -0.5000 -17.5000 -15.7500 Du        
   4952 ****        -0.5000 -17.5000 -15.5000 Du        
   4953 ****        -0.5000 -17.5000 -15.2500 Du        
   4954 ****        -0.5000 -17.2500 -15.7500 Du        
   4955 ****        -0.5000 -17.2500 -15.5000 Du        
   4956 ****        -0.5000 -17.0000 -15.7500 Du        
   4957 ****        -0.5000 -15.0000 -16.5000 Du        
   4958 ****        -0.2500 -32.0000 -16.2500 Du        
   4959 ****        -0.2500 -31.7500 -16.2500 Du        
   4960 ****        -0.2500 -31.5000 -16.0000 Du        
   4961 ****        -0.2500 -31.5000 -15.7500 Du        
   4962 ****        -0.2500 -31.2500 -16.2500 Du        
   4963 ****        -0.2500 -31.2500 -16.0000 Du        
   4964 ****        -0.2500 -31.2500 -15.7500 Du        
   4965 ****        -0.2500 -31.0000 -16.0000 Du        
   4966 ****        -0.2500 -31.0000 -15.7500 Du        
   4967 ****        -0.2500 -30.7500 -16.0000 Du        
   4968 ****        -0.2500 -30.7500 -15.7500 Du        
   4969 ****        -0.2500 -30.7500 -15.2500 Du        
   4970 ****        -0.2500 -28.5000 -14.2500 Du        
   4971 ****        -0.2500 -28.5000 -14.0000 Du        
   4972 ****        -0.2500 -28.2500 -14.2500 Du        
   4973 ****        -0.2500 -28.2500 -14.0000 Du        
   4974 ****        -0.2500 -28.0000 -14.5000 Du        
   4975 ****        -0.2500 -28.0000 -14.2500 Du        
   4976 ****        -0.2500 -28.0000 -14.0000 Du        
   4977 ****        -0.2500 -28.0000 -13.7500 Du        
   4978 ****        -0.2500 -27.7500 -14.5000 Du        
   4979 ****        -0.2500 -27.7500 -14.2500 Du        
   4980 ****        -0.2500 -27.7500 -14.0000 Du        
   4981 ****        -0.2500 -27.7500 -13.7500 Du        
   4982 ****        -0.2500 -27.5000 -14.5000 Du        
   4983 ****        -0.2500 -27.5000 -14.2500 Du        
   4984 ****        -0.2500 -27.5000 -14.0000 Du        
   4985 ****        -0.2500 -27.5000 -13.7500 Du        
   4986 ****        -0.2500 -27.5000 -13.5000 Du        
   4987 ****        -0.2500 -27.2500 -14.5000 Du        
   4988 ****        -0.2500 -27.2500 -14.2500 Du        
   4989 ****        -0.2500 -27.2500 -14.0000 Du        
   4990 ****        -0.2500 -27.2500 -13.7500 Du        
   4991 ****        -0.2500 -27.2500 -13.5000 Du        
   4992 ****        -0.2500 -27.0000 -14.5000 Du        
   4993 ****        -0.2500 -27.0000 -14.2500 Du        
   4994 ****        -0.2500 -27.0000 -14.0000 Du        
   4995 ****        -0.2500 -27.0000 -13.7500 Du        
   4996 ****        -0.2500 -27.0000 -13.5000 Du        
   4997 ****        -0.2500 -27.0000 -13.2500 Du        
   4998 ****        -0.2500 -26.7500 -14.5000 Du        
   4999 ****        -0.2500 -26.7500 -14.2500 Du        
   5000 ****        -0.2500 -26.7500 -14.0000 Du        
   5001 ****        -0.2500 -26.7500 -13.7500 Du        
   5002 ****        -0.2500 -26.7500 -13.5000 Du        
   5003 ****        -0.2500 -26.7500 -13.2500 Du        
   5004 ****        -0.2500 -26.5000 -14.5000 Du        
   5005 ****        -0.2500 -26.5000 -14.2500 Du        
   5006 ****        -0.2500 -26.5000 -14.0000 Du        
   5007 ****        -0.2500 -26.5000 -13.7500 Du        
   5008 ****        -0.2500 -26.5000 -13.5000 Du        
   5009 ****        -0.2500 -26.5000 -13.2500 Du        
   5010 ****        -0.2500 -26.2500 -14.5000 Du        
   5011 ****        -0.2500 -26.2500 -14.2500 Du        
   5012 ****        -0.2500 -26.2500 -14.0000 Du        
   5013 ****        -0.2500 -26.2500 -13.7500 Du        
   5014 ****        -0.2500 -26.2500 -13.5000 Du        
   5015 ****        -0.2500 -26.2500 -13.2500 Du        
   5016 ****        -0.2500 -26.0000 -14.7500 Du        
   5017 ****        -0.2500 -26.0000 -14.5000 Du        
   5018 ****        -0.2500 -26.0000 -14.2500 Du        
   5019 ****        -0.2500 -26.0000 -14.0000 Du        
   5020 ****        -0.2500 -26.0000 -13.7500 Du        
   5021 ****        -0.2500 -26.0000 -13.5000 Du        
   5022 ****        -0.2500 -26.0000 -13.2500 Du        
   5023 ****        -0.2500 -26.0000 -13.0000 Du        
   5024 ****        -0.2500 -25.7500 -14.7500 Du        
   5025 ****        -0.2500 -25.7500 -14.5000 Du        
   5026 ****        -0.2500 -25.7500 -14.2500 Du        
   5027 ****        -0.2500 -25.7500 -14.0000 Du        
   5028 ****        -0.2500 -25.7500 -13.7500 Du        
   5029 ****        -0.2500 -25.7500 -13.5000 Du        
   5030 ****        -0.2500 -25.7500 -13.2500 Du        
   5031 ****        -0.2500 -25.7500 -13.0000 Du        
   5032 ****        -0.2500 -25.5000 -15.0000 Du        
   5033 ****        -0.2500 -25.5000 -14.7500 Du        
   5034 ****        -0.2500 -25.5000 -14.5000 Du        
   5035 ****        -0.2500 -25.5000 -14.2500 Du        
   5036 ****        -0.2500 -25.5000 -14.0000 Du        
   5037 ****        -0.2500 -25.5000 -13.7500 Du        
   5038 ****        -0.2500 -25.5000 -13.5000 Du        
   5039 ****        -0.2500 -25.5000 -13.2500 Du        
   5040 ****        -0.2500 -25.5000 -13.0000 Du        
   5041 ****        -0.2500 -25.2500 -15.2500 Du        
   5042 ****        -0.2500 -25.2500 -15.0000 Du        
   5043 ****        -0.2500 -25.2500 -14.7500 Du        
   5044 ****        -0.2500 -25.2500 -14.5000 Du        
   5045 ****        -0.2500 -25.2500 -14.2500 Du        
   5046 ****        -0.2500 -25.2500 -14.0000 Du        
   5047 ****        -0.2500 -25.2500 -13.7500 Du        
   5048 ****        -0.2500 -25.2500 -13.5000 Du        
   5049 ****        -0.2500 -25.2500 -13.2500 Du        
   5050 ****        -0.2500 -25.2500 -13.0000 Du        
   5051 ****        -0.2500 -25.0000 -15.2500 Du        
   5052 ****        -0.2500 -25.0000 -15.0000 Du        
   5053 ****        -0.2500 -25.0000 -14.7500 Du        
   5054 ****        -0.2500 -25.0000 -14.5000 Du        
   5055 ****        -0.2500 -25.0000 -14.2500 Du        
   5056 ****        -0.2500 -25.0000 -14.0000 Du        
   5057 ****        -0.2500 -25.0000 -13.7500 Du        
   5058 ****        -0.2500 -25.0000 -13.5000 Du        
   5059 ****        -0.2500 -25.0000 -13.2500 Du        
   5060 ****        -0.2500 -25.0000 -13.0000 Du        
   5061 ****        -0.2500 -24.7500 -15.2500 Du        
   5062 ****        -0.2500 -24.7500 -15.0000 Du        
   5063 ****        -0.2500 -24.7500 -14.7500 Du        
   5064 ****        -0.2500 -24.7500 -14.5000 Du        
   5065 ****        -0.2500 -24.7500 -14.2500 Du        
   5066 ****        -0.2500 -24.7500 -14.0000 Du        
   5067 ****        -0.2500 -24.7500 -13.7500 Du        
   5068 ****        -0.2500 -24.7500 -13.5000 Du        
   5069 ****        -0.2500 -24.7500 -13.2500 Du        
   5070 ****        -0.2500 -24.5000 -15.5000 Du        
   5071 ****        -0.2500 -24.5000 -15.2500 Du        
   5072 ****        -0.2500 -24.5000 -15.0000 Du        
   5073 ****        -0.2500 -24.5000 -14.7500 Du        
   5074 ****        -0.2500 -24.5000 -14.5000 Du        
   5075 ****        -0.2500 -24.5000 -14.2500 Du        
   5076 ****        -0.2500 -24.5000 -14.0000 Du        
   5077 ****        -0.2500 -24.5000 -13.7500 Du        
   5078 ****        -0.2500 -24.2500 -15.5000 Du        
   5079 ****        -0.2500 -24.2500 -15.2500 Du        
   5080 ****        -0.2500 -24.2500 -15.0000 Du        
   5081 ****        -0.2500 -24.2500 -14.7500 Du        
   5082 ****        -0.2500 -24.2500 -14.5000 Du        
   5083 ****        -0.2500 -24.2500 -14.2500 Du        
   5084 ****        -0.2500 -24.2500 -14.0000 Du        
   5085 ****        -0.2500 -24.2500 -13.7500 Du        
   5086 ****        -0.2500 -24.0000 -15.7500 Du        
   5087 ****        -0.2500 -24.0000 -15.5000 Du        
   5088 ****        -0.2500 -24.0000 -15.2500 Du        
   5089 ****        -0.2500 -24.0000 -15.0000 Du        
   5090 ****        -0.2500 -24.0000 -14.7500 Du        
   5091 ****        -0.2500 -24.0000 -14.5000 Du        
   5092 ****        -0.2500 -24.0000 -14.2500 Du        
   5093 ****        -0.2500 -24.0000 -14.0000 Du        
   5094 ****        -0.2500 -23.7500 -15.7500 Du        
   5095 ****        -0.2500 -23.7500 -15.5000 Du        
   5096 ****        -0.2500 -23.7500 -15.2500 Du        
   5097 ****        -0.2500 -23.7500 -15.0000 Du        
   5098 ****        -0.2500 -23.7500 -14.7500 Du        
   5099 ****        -0.2500 -23.7500 -14.5000 Du        
   5100 ****        -0.2500 -23.7500 -14.2500 Du        
   5101 ****        -0.2500 -23.5000 -16.0000 Du        
   5102 ****        -0.2500 -23.5000 -15.7500 Du        
   5103 ****        -0.2500 -23.5000 -15.5000 Du        
   5104 ****        -0.2500 -23.5000 -15.2500 Du        
   5105 ****        -0.2500 -23.5000 -15.0000 Du        
   5106 ****        -0.2500 -23.5000 -14.7500 Du        
   5107 ****        -0.2500 -23.5000 -14.5000 Du        
   5108 ****        -0.2500 -23.2500 -16.0000 Du        
   5109 ****        -0.2500 -23.2500 -15.7500 Du        
   5110 ****        -0.2500 -23.2500 -15.5000 Du        
   5111 ****        -0.2500 -23.2500 -15.2500 Du        
   5112 ****        -0.2500 -23.2500 -15.0000 Du        
   5113 ****        -0.2500 -23.2500 -14.7500 Du        
   5114 ****        -0.2500 -23.2500 -14.5000 Du        
   5115 ****        -0.2500 -23.0000 -16.0000 Du        
   5116 ****        -0.2500 -23.0000 -15.7500 Du        
   5117 ****        -0.2500 -23.0000 -15.5000 Du        
   5118 ****        -0.2500 -23.0000 -15.2500 Du        
   5119 ****        -0.2500 -23.0000 -15.0000 Du        
   5120 ****        -0.2500 -23.0000 -14.7500 Du        
   5121 ****        -0.2500 -22.7500 -16.2500 Du        
   5122 ****        -0.2500 -22.7500 -16.0000 Du        
   5123 ****        -0.2500 -22.7500 -15.7500 Du        
   5124 ****        -0.2500 -22.7500 -15.5000 Du        
   5125 ****        -0.2500 -22.7500 -15.2500 Du        
   5126 ****        -0.2500 -22.7500 -15.0000 Du        
   5127 ****        -0.2500 -22.7500 -14.7500 Du        
   5128 ****        -0.2500 -22.5000 -16.2500 Du        
   5129 ****        -0.2500 -22.5000 -16.0000 Du        
   5130 ****        -0.2500 -22.5000 -15.7500 Du        
   5131 ****        -0.2500 -22.5000 -15.5000 Du        
   5132 ****        -0.2500 -22.5000 -15.2500 Du        
   5133 ****        -0.2500 -22.5000 -15.0000 Du        
   5134 ****        -0.2500 -22.5000 -14.7500 Du        
   5135 ****        -0.2500 -22.2500 -16.2500 Du        
   5136 ****        -0.2500 -22.2500 -16.0000 Du        
   5137 ****        -0.2500 -22.2500 -15.7500 Du        
   5138 ****        -0.2500 -22.2500 -15.5000 Du        
   5139 ****        -0.2500 -22.2500 -15.2500 Du        
   5140 ****        -0.2500 -22.2500 -15.0000 Du        
   5141 ****        -0.2500 -22.2500 -14.7500 Du        
   5142 ****        -0.2500 -22.0000 -16.2500 Du        
   5143 ****        -0.2500 -22.0000 -16.0000 Du        
   5144 ****        -0.2500 -22.0000 -15.7500 Du        
   5145 ****        -0.2500 -22.0000 -15.5000 Du        
   5146 ****        -0.2500 -22.0000 -15.2500 Du        
   5147 ****        -0.2500 -22.0000 -15.0000 Du        
   5148 ****        -0.2500 -22.0000 -14.7500 Du        
   5149 ****        -0.2500 -21.7500 -16.2500 Du        
   5150 ****        -0.2500 -21.7500 -16.0000 Du        
   5151 ****        -0.2500 -21.7500 -15.7500 Du        
   5152 ****        -0.2500 -21.7500 -15.5000 Du        
   5153 ****        -0.2500 -21.7500 -15.2500 Du        
   5154 ****        -0.2500 -21.7500 -15.0000 Du        
   5155 ****        -0.2500 -21.5000 -16.0000 Du        
   5156 ****        -0.2500 -21.5000 -15.7500 Du        
   5157 ****        -0.2500 -21.5000 -15.5000 Du        
   5158 ****        -0.2500 -21.5000 -15.2500 Du        
   5159 ****        -0.2500 -21.5000 -15.0000 Du        
   5160 ****        -0.2500 -21.2500 -16.0000 Du        
   5161 ****        -0.2500 -21.2500 -15.7500 Du        
   5162 ****        -0.2500 -21.2500 -15.5000 Du        
   5163 ****        -0.2500 -21.2500 -15.2500 Du        
   5164 ****        -0.2500 -21.2500 -15.0000 Du        
   5165 ****        -0.2500 -21.0000 -16.0000 Du        
   5166 ****        -0.2500 -21.0000 -15.7500 Du        
   5167 ****        -0.2500 -21.0000 -15.5000 Du        
   5168 ****        -0.2500 -21.0000 -15.2500 Du        
   5169 ****        -0.2500 -21.0000 -15.0000 Du        
   5170 ****        -0.2500 -20.7500 -15.5000 Du        
   5171 ****        -0.2500 -20.7500 -15.2500 Du        
   5172 ****        -0.2500 -20.7500 -15.0000 Du        
   5173 ****        -0.2500 -20.5000 -15.7500 Du        
   5174 ****        -0.2500 -20.5000 -15.5000 Du        
   5175 ****        -0.2500 -20.5000 -15.2500 Du        
   5176 ****        -0.2500 -20.5000 -15.0000 Du        
   5177 ****        -0.2500 -20.2500 -15.7500 Du        
   5178 ****        -0.2500 -20.2500 -15.5000 Du        
   5179 ****        -0.2500 -20.2500 -15.2500 Du        
   5180 ****        -0.2500 -20.2500 -15.0000 Du        
   5181 ****        -0.2500 -20.2500 -14.7500 Du        
   5182 ****        -0.2500 -20.0000 -16.0000 Du        
   5183 ****        -0.2500 -20.0000 -15.7500 Du        
   5184 ****        -0.2500 -20.0000 -15.5000 Du        
   5185 ****        -0.2500 -20.0000 -15.2500 Du        
   5186 ****        -0.2500 -20.0000 -15.0000 Du        
   5187 ****        -0.2500 -20.0000 -14.7500 Du        
   5188 ****        -0.2500 -19.7500 -15.7500 Du        
   5189 ****        -0.2500 -19.7500 -15.5000 Du        
   5190 ****        -0.2500 -19.7500 -15.2500 Du        
   5191 ****        -0.2500 -19.7500 -15.0000 Du        
   5192 ****        -0.2500 -19.7500 -14.7500 Du        
   5193 ****        -0.2500 -19.5000 -16.0000 Du        
   5194 ****        -0.2500 -19.5000 -15.7500 Du        
   5195 ****        -0.2500 -19.5000 -15.5000 Du        
   5196 ****        -0.2500 -19.5000 -15.2500 Du        
   5197 ****        -0.2500 -19.5000 -15.0000 Du        
   5198 ****        -0.2500 -19.5000 -14.7500 Du        
   5199 ****        -0.2500 -19.2500 -16.0000 Du        
   5200 ****        -0.2500 -19.2500 -15.7500 Du        
   5201 ****        -0.2500 -19.2500 -15.5000 Du        
   5202 ****        -0.2500 -19.2500 -15.2500 Du        
   5203 ****        -0.2500 -19.2500 -15.0000 Du        
   5204 ****        -0.2500 -19.2500 -14.7500 Du        
   5205 ****        -0.2500 -19.0000 -16.0000 Du        
   5206 ****        -0.2500 -19.0000 -15.7500 Du        
   5207 ****        -0.2500 -19.0000 -15.5000 Du        
   5208 ****        -0.2500 -19.0000 -15.2500 Du        
   5209 ****        -0.2500 -19.0000 -15.0000 Du        
   5210 ****        -0.2500 -19.0000 -14.7500 Du        
   5211 ****        -0.2500 -18.7500 -16.0000 Du        
   5212 ****        -0.2500 -18.7500 -15.7500 Du        
   5213 ****        -0.2500 -18.7500 -15.5000 Du        
   5214 ****        -0.2500 -18.7500 -15.2500 Du        
   5215 ****        -0.2500 -18.7500 -15.0000 Du        
   5216 ****        -0.2500 -18.7500 -14.7500 Du        
   5217 ****        -0.2500 -18.5000 -16.0000 Du        
   5218 ****        -0.2500 -18.5000 -15.7500 Du        
   5219 ****        -0.2500 -18.5000 -15.5000 Du        
   5220 ****        -0.2500 -18.5000 -15.2500 Du        
   5221 ****        -0.2500 -18.5000 -15.0000 Du        
   5222 ****        -0.2500 -18.5000 -14.7500 Du        
   5223 ****        -0.2500 -18.2500 -16.0000 Du        
   5224 ****        -0.2500 -18.2500 -15.7500 Du        
   5225 ****        -0.2500 -18.2500 -15.5000 Du        
   5226 ****        -0.2500 -18.2500 -15.2500 Du        
   5227 ****        -0.2500 -18.2500 -15.0000 Du        
   5228 ****        -0.2500 -18.2500 -14.7500 Du        
   5229 ****        -0.2500 -18.0000 -16.0000 Du        
   5230 ****        -0.2500 -18.0000 -15.7500 Du        
   5231 ****        -0.2500 -18.0000 -15.5000 Du        
   5232 ****        -0.2500 -18.0000 -15.2500 Du        
   5233 ****        -0.2500 -18.0000 -15.0000 Du        
   5234 ****        -0.2500 -18.0000 -14.7500 Du        
   5235 ****        -0.2500 -17.7500 -16.0000 Du        
   5236 ****        -0.2500 -17.7500 -15.7500 Du        
   5237 ****        -0.2500 -17.7500 -15.5000 Du        
   5238 ****        -0.2500 -17.7500 -15.2500 Du        
   5239 ****        -0.2500 -17.7500 -15.0000 Du        
   5240 ****        -0.2500 -17.5000 -15.5000 Du        
   5241 ****        -0.2500 -17.5000 -15.2500 Du        
   5242 ****        -0.2500 -17.2500 -15.5000 Du        
   5243 ****         0.0000 -32.2500 -16.0000 Du        
   5244 ****         0.0000 -32.2500 -15.7500 Du        
   5245 ****         0.0000 -32.0000 -16.2500 Du        
   5246 ****         0.0000 -32.0000 -16.0000 Du        
   5247 ****         0.0000 -32.0000 -15.7500 Du        
   5248 ****         0.0000 -31.7500 -16.2500 Du        
   5249 ****         0.0000 -31.7500 -16.0000 Du        
   5250 ****         0.0000 -31.7500 -15.7500 Du        
   5251 ****         0.0000 -31.5000 -16.2500 Du        
   5252 ****         0.0000 -31.5000 -16.0000 Du        
   5253 ****         0.0000 -31.5000 -15.7500 Du        
   5254 ****         0.0000 -31.5000 -15.5000 Du        
   5255 ****         0.0000 -31.5000 -15.2500 Du        
   5256 ****         0.0000 -31.5000 -15.0000 Du        
   5257 ****         0.0000 -31.2500 -16.5000 Du        
   5258 ****         0.0000 -31.2500 -16.2500 Du        
   5259 ****         0.0000 -31.2500 -16.0000 Du        
   5260 ****         0.0000 -31.2500 -15.7500 Du        
   5261 ****         0.0000 -31.2500 -15.5000 Du        
   5262 ****         0.0000 -31.2500 -15.2500 Du        
   5263 ****         0.0000 -31.2500 -15.0000 Du        
   5264 ****         0.0000 -31.0000 -16.2500 Du        
   5265 ****         0.0000 -31.0000 -16.0000 Du        
   5266 ****         0.0000 -31.0000 -15.7500 Du        
   5267 ****         0.0000 -31.0000 -15.5000 Du        
   5268 ****         0.0000 -31.0000 -15.2500 Du        
   5269 ****         0.0000 -31.0000 -15.0000 Du        
   5270 ****         0.0000 -31.0000 -14.7500 Du        
   5271 ****         0.0000 -30.7500 -16.0000 Du        
   5272 ****         0.0000 -30.7500 -15.7500 Du        
   5273 ****         0.0000 -30.7500 -15.5000 Du        
   5274 ****         0.0000 -30.7500 -15.2500 Du        
   5275 ****         0.0000 -30.7500 -15.0000 Du        
   5276 ****         0.0000 -30.5000 -15.7500 Du        
   5277 ****         0.0000 -30.5000 -15.0000 Du        
   5278 ****         0.0000 -30.5000 -14.7500 Du        
   5279 ****         0.0000 -30.2500 -15.0000 Du        
   5280 ****         0.0000 -29.5000 -14.7500 Du        
   5281 ****         0.0000 -29.2500 -14.7500 Du        
   5282 ****         0.0000 -28.7500 -14.2500 Du        
   5283 ****         0.0000 -28.5000 -14.5000 Du        
   5284 ****         0.0000 -28.5000 -14.2500 Du        
   5285 ****         0.0000 -28.2500 -14.5000 Du        
   5286 ****         0.0000 -28.2500 -14.2500 Du        
   5287 ****         0.0000 -28.2500 -14.0000 Du        
   5288 ****         0.0000 -28.0000 -14.5000 Du        
   5289 ****         0.0000 -28.0000 -14.2500 Du        
   5290 ****         0.0000 -28.0000 -14.0000 Du        
   5291 ****         0.0000 -27.7500 -14.5000 Du        
   5292 ****         0.0000 -27.7500 -14.2500 Du        
   5293 ****         0.0000 -27.7500 -14.0000 Du        
   5294 ****         0.0000 -27.7500 -13.7500 Du        
   5295 ****         0.0000 -27.5000 -14.5000 Du        
   5296 ****         0.0000 -27.5000 -14.2500 Du        
   5297 ****         0.0000 -27.5000 -14.0000 Du        
   5298 ****         0.0000 -27.5000 -13.7500 Du        
   5299 ****         0.0000 -27.2500 -14.5000 Du        
   5300 ****         0.0000 -27.2500 -14.2500 Du        
   5301 ****         0.0000 -27.2500 -14.0000 Du        
   5302 ****         0.0000 -27.2500 -13.7500 Du        
   5303 ****         0.0000 -27.2500 -13.5000 Du        
   5304 ****         0.0000 -27.0000 -14.5000 Du        
   5305 ****         0.0000 -27.0000 -14.2500 Du        
   5306 ****         0.0000 -27.0000 -14.0000 Du        
   5307 ****         0.0000 -27.0000 -13.7500 Du        
   5308 ****         0.0000 -27.0000 -13.5000 Du        
   5309 ****         0.0000 -26.7500 -14.5000 Du        
   5310 ****         0.0000 -26.7500 -14.2500 Du        
   5311 ****         0.0000 -26.7500 -14.0000 Du        
   5312 ****         0.0000 -26.7500 -13.7500 Du        
   5313 ****         0.0000 -26.7500 -13.5000 Du        
   5314 ****         0.0000 -26.7500 -13.2500 Du        
   5315 ****         0.0000 -26.5000 -14.5000 Du        
   5316 ****         0.0000 -26.5000 -14.2500 Du        
   5317 ****         0.0000 -26.5000 -14.0000 Du        
   5318 ****         0.0000 -26.5000 -13.7500 Du        
   5319 ****         0.0000 -26.5000 -13.5000 Du        
   5320 ****         0.0000 -26.5000 -13.2500 Du        
   5321 ****         0.0000 -26.2500 -14.5000 Du        
   5322 ****         0.0000 -26.2500 -14.2500 Du        
   5323 ****         0.0000 -26.2500 -14.0000 Du        
   5324 ****         0.0000 -26.2500 -13.7500 Du        
   5325 ****         0.0000 -26.2500 -13.5000 Du        
   5326 ****         0.0000 -26.2500 -13.2500 Du        
   5327 ****         0.0000 -26.2500 -13.0000 Du        
   5328 ****         0.0000 -26.0000 -14.7500 Du        
   5329 ****         0.0000 -26.0000 -14.5000 Du        
   5330 ****         0.0000 -26.0000 -14.2500 Du        
   5331 ****         0.0000 -26.0000 -14.0000 Du        
   5332 ****         0.0000 -26.0000 -13.7500 Du        
   5333 ****         0.0000 -26.0000 -13.5000 Du        
   5334 ****         0.0000 -26.0000 -13.2500 Du        
   5335 ****         0.0000 -26.0000 -13.0000 Du        
   5336 ****         0.0000 -26.0000 -12.7500 Du        
   5337 ****         0.0000 -25.7500 -14.7500 Du        
   5338 ****         0.0000 -25.7500 -14.5000 Du        
   5339 ****         0.0000 -25.7500 -14.2500 Du        
   5340 ****         0.0000 -25.7500 -14.0000 Du        
   5341 ****         0.0000 -25.7500 -13.7500 Du        
   5342 ****         0.0000 -25.7500 -13.5000 Du        
   5343 ****         0.0000 -25.7500 -13.2500 Du        
   5344 ****         0.0000 -25.7500 -13.0000 Du        
   5345 ****         0.0000 -25.7500 -12.7500 Du        
   5346 ****         0.0000 -25.7500 -12.5000 Du        
   5347 ****         0.0000 -25.5000 -15.0000 Du        
   5348 ****         0.0000 -25.5000 -14.7500 Du        
   5349 ****         0.0000 -25.5000 -14.5000 Du        
   5350 ****         0.0000 -25.5000 -14.2500 Du        
   5351 ****         0.0000 -25.5000 -14.0000 Du        
   5352 ****         0.0000 -25.5000 -13.7500 Du        
   5353 ****         0.0000 -25.5000 -13.5000 Du        
   5354 ****         0.0000 -25.5000 -13.2500 Du        
   5355 ****         0.0000 -25.5000 -13.0000 Du        
   5356 ****         0.0000 -25.5000 -12.7500 Du        
   5357 ****         0.0000 -25.5000 -12.5000 Du        
   5358 ****         0.0000 -25.2500 -15.0000 Du        
   5359 ****         0.0000 -25.2500 -14.7500 Du        
   5360 ****         0.0000 -25.2500 -14.5000 Du        
   5361 ****         0.0000 -25.2500 -14.2500 Du        
   5362 ****         0.0000 -25.2500 -14.0000 Du        
   5363 ****         0.0000 -25.2500 -13.7500 Du        
   5364 ****         0.0000 -25.2500 -13.5000 Du        
   5365 ****         0.0000 -25.2500 -13.2500 Du        
   5366 ****         0.0000 -25.2500 -13.0000 Du        
   5367 ****         0.0000 -25.2500 -12.7500 Du        
   5368 ****         0.0000 -25.2500 -12.5000 Du        
   5369 ****         0.0000 -25.0000 -15.0000 Du        
   5370 ****         0.0000 -25.0000 -14.7500 Du        
   5371 ****         0.0000 -25.0000 -14.5000 Du        
   5372 ****         0.0000 -25.0000 -14.2500 Du        
   5373 ****         0.0000 -25.0000 -14.0000 Du        
   5374 ****         0.0000 -25.0000 -13.7500 Du        
   5375 ****         0.0000 -25.0000 -13.5000 Du        
   5376 ****         0.0000 -25.0000 -13.2500 Du        
   5377 ****         0.0000 -25.0000 -13.0000 Du        
   5378 ****         0.0000 -25.0000 -12.7500 Du        
   5379 ****         0.0000 -24.7500 -15.2500 Du        
   5380 ****         0.0000 -24.7500 -15.0000 Du        
   5381 ****         0.0000 -24.7500 -14.7500 Du        
   5382 ****         0.0000 -24.7500 -14.5000 Du        
   5383 ****         0.0000 -24.7500 -14.2500 Du        
   5384 ****         0.0000 -24.7500 -14.0000 Du        
   5385 ****         0.0000 -24.7500 -13.7500 Du        
   5386 ****         0.0000 -24.7500 -13.5000 Du        
   5387 ****         0.0000 -24.7500 -13.2500 Du        
   5388 ****         0.0000 -24.5000 -15.2500 Du        
   5389 ****         0.0000 -24.5000 -15.0000 Du        
   5390 ****         0.0000 -24.5000 -14.7500 Du        
   5391 ****         0.0000 -24.5000 -14.5000 Du        
   5392 ****         0.0000 -24.5000 -14.2500 Du        
   5393 ****         0.0000 -24.5000 -14.0000 Du        
   5394 ****         0.0000 -24.5000 -13.7500 Du        
   5395 ****         0.0000 -24.2500 -15.5000 Du        
   5396 ****         0.0000 -24.2500 -15.2500 Du        
   5397 ****         0.0000 -24.2500 -15.0000 Du        
   5398 ****         0.0000 -24.2500 -14.7500 Du        
   5399 ****         0.0000 -24.2500 -14.5000 Du        
   5400 ****         0.0000 -24.2500 -14.2500 Du        
   5401 ****         0.0000 -24.2500 -14.0000 Du        
   5402 ****         0.0000 -24.2500 -13.7500 Du        
   5403 ****         0.0000 -24.0000 -15.7500 Du        
   5404 ****         0.0000 -24.0000 -15.5000 Du        
   5405 ****         0.0000 -24.0000 -15.2500 Du        
   5406 ****         0.0000 -24.0000 -15.0000 Du        
   5407 ****         0.0000 -24.0000 -14.7500 Du        
   5408 ****         0.0000 -24.0000 -14.5000 Du        
   5409 ****         0.0000 -24.0000 -14.2500 Du        
   5410 ****         0.0000 -24.0000 -14.0000 Du        
   5411 ****         0.0000 -23.7500 -15.7500 Du        
   5412 ****         0.0000 -23.7500 -15.5000 Du        
   5413 ****         0.0000 -23.7500 -15.2500 Du        
   5414 ****         0.0000 -23.7500 -15.0000 Du        
   5415 ****         0.0000 -23.7500 -14.7500 Du        
   5416 ****         0.0000 -23.7500 -14.5000 Du        
   5417 ****         0.0000 -23.7500 -14.2500 Du        
   5418 ****         0.0000 -23.5000 -16.0000 Du        
   5419 ****         0.0000 -23.5000 -15.7500 Du        
   5420 ****         0.0000 -23.5000 -15.5000 Du        
   5421 ****         0.0000 -23.5000 -15.2500 Du        
   5422 ****         0.0000 -23.5000 -15.0000 Du        
   5423 ****         0.0000 -23.5000 -14.7500 Du        
   5424 ****         0.0000 -23.5000 -14.5000 Du        
   5425 ****         0.0000 -23.2500 -16.0000 Du        
   5426 ****         0.0000 -23.2500 -15.7500 Du        
   5427 ****         0.0000 -23.2500 -15.5000 Du        
   5428 ****         0.0000 -23.2500 -15.2500 Du        
   5429 ****         0.0000 -23.2500 -15.0000 Du        
   5430 ****         0.0000 -23.2500 -14.7500 Du        
   5431 ****         0.0000 -23.2500 -14.5000 Du        
   5432 ****         0.0000 -23.0000 -16.2500 Du        
   5433 ****         0.0000 -23.0000 -16.0000 Du        
   5434 ****         0.0000 -23.0000 -15.7500 Du        
   5435 ****         0.0000 -23.0000 -15.5000 Du        
   5436 ****         0.0000 -23.0000 -15.2500 Du        
   5437 ****         0.0000 -23.0000 -15.0000 Du        
   5438 ****         0.0000 -23.0000 -14.7500 Du        
   5439 ****         0.0000 -22.7500 -16.2500 Du        
   5440 ****         0.0000 -22.7500 -16.0000 Du        
   5441 ****         0.0000 -22.7500 -15.7500 Du        
   5442 ****         0.0000 -22.7500 -15.5000 Du        
   5443 ****         0.0000 -22.7500 -15.2500 Du        
   5444 ****         0.0000 -22.7500 -15.0000 Du        
   5445 ****         0.0000 -22.7500 -14.7500 Du        
   5446 ****         0.0000 -22.5000 -16.2500 Du        
   5447 ****         0.0000 -22.5000 -16.0000 Du        
   5448 ****         0.0000 -22.5000 -15.7500 Du        
   5449 ****         0.0000 -22.5000 -15.5000 Du        
   5450 ****         0.0000 -22.5000 -15.2500 Du        
   5451 ****         0.0000 -22.5000 -15.0000 Du        
   5452 ****         0.0000 -22.5000 -14.7500 Du        
   5453 ****         0.0000 -22.2500 -16.5000 Du        
   5454 ****         0.0000 -22.2500 -16.2500 Du        
   5455 ****         0.0000 -22.2500 -16.0000 Du        
   5456 ****         0.0000 -22.2500 -15.7500 Du        
   5457 ****         0.0000 -22.2500 -15.5000 Du        
   5458 ****         0.0000 -22.2500 -15.2500 Du        
   5459 ****         0.0000 -22.2500 -15.0000 Du        
   5460 ****         0.0000 -22.2500 -14.7500 Du        
   5461 ****         0.0000 -22.0000 -16.7500 Du        
   5462 ****         0.0000 -22.0000 -16.5000 Du        
   5463 ****         0.0000 -22.0000 -16.2500 Du        
   5464 ****         0.0000 -22.0000 -16.0000 Du        
   5465 ****         0.0000 -22.0000 -15.7500 Du        
   5466 ****         0.0000 -22.0000 -15.5000 Du        
   5467 ****         0.0000 -22.0000 -15.2500 Du        
   5468 ****         0.0000 -22.0000 -15.0000 Du        
   5469 ****         0.0000 -21.7500 -16.7500 Du        
   5470 ****         0.0000 -21.7500 -16.5000 Du        
   5471 ****         0.0000 -21.7500 -16.2500 Du        
   5472 ****         0.0000 -21.7500 -16.0000 Du        
   5473 ****         0.0000 -21.7500 -15.7500 Du        
   5474 ****         0.0000 -21.7500 -15.5000 Du        
   5475 ****         0.0000 -21.7500 -15.2500 Du        
   5476 ****         0.0000 -21.7500 -15.0000 Du        
   5477 ****         0.0000 -21.5000 -16.5000 Du        
   5478 ****         0.0000 -21.5000 -16.2500 Du        
   5479 ****         0.0000 -21.5000 -16.0000 Du        
   5480 ****         0.0000 -21.5000 -15.7500 Du        
   5481 ****         0.0000 -21.5000 -15.5000 Du        
   5482 ****         0.0000 -21.5000 -15.2500 Du        
   5483 ****         0.0000 -21.5000 -15.0000 Du        
   5484 ****         0.0000 -21.2500 -16.5000 Du        
   5485 ****         0.0000 -21.2500 -16.2500 Du        
   5486 ****         0.0000 -21.2500 -16.0000 Du        
   5487 ****         0.0000 -21.2500 -15.7500 Du        
   5488 ****         0.0000 -21.2500 -15.2500 Du        
   5489 ****         0.0000 -21.2500 -15.0000 Du        
   5490 ****         0.0000 -21.0000 -16.5000 Du        
   5491 ****         0.0000 -21.0000 -16.2500 Du        
   5492 ****         0.0000 -21.0000 -16.0000 Du        
   5493 ****         0.0000 -21.0000 -15.7500 Du        
   5494 ****         0.0000 -21.0000 -15.2500 Du        
   5495 ****         0.0000 -21.0000 -15.0000 Du        
   5496 ****         0.0000 -20.7500 -16.2500 Du        
   5497 ****         0.0000 -20.7500 -16.0000 Du        
   5498 ****         0.0000 -20.7500 -15.7500 Du        
   5499 ****         0.0000 -20.7500 -15.5000 Du        
   5500 ****         0.0000 -20.7500 -15.2500 Du        
   5501 ****         0.0000 -20.7500 -15.0000 Du        
   5502 ****         0.0000 -20.5000 -15.7500 Du        
   5503 ****         0.0000 -20.5000 -15.5000 Du        
   5504 ****         0.0000 -20.5000 -15.2500 Du        
   5505 ****         0.0000 -20.5000 -15.0000 Du        
   5506 ****         0.0000 -20.2500 -16.0000 Du        
   5507 ****         0.0000 -20.2500 -15.7500 Du        
   5508 ****         0.0000 -20.2500 -15.5000 Du        
   5509 ****         0.0000 -20.2500 -15.2500 Du        
   5510 ****         0.0000 -20.2500 -15.0000 Du        
   5511 ****         0.0000 -20.2500 -14.7500 Du        
   5512 ****         0.0000 -20.0000 -16.0000 Du        
   5513 ****         0.0000 -20.0000 -15.7500 Du        
   5514 ****         0.0000 -20.0000 -15.5000 Du        
   5515 ****         0.0000 -20.0000 -15.2500 Du        
   5516 ****         0.0000 -20.0000 -15.0000 Du        
   5517 ****         0.0000 -20.0000 -14.7500 Du        
   5518 ****         0.0000 -19.7500 -15.7500 Du        
   5519 ****         0.0000 -19.7500 -15.5000 Du        
   5520 ****         0.0000 -19.7500 -15.2500 Du        
   5521 ****         0.0000 -19.7500 -15.0000 Du        
   5522 ****         0.0000 -19.7500 -14.7500 Du        
   5523 ****         0.0000 -19.5000 -16.0000 Du        
   5524 ****         0.0000 -19.5000 -15.7500 Du        
   5525 ****         0.0000 -19.5000 -15.5000 Du        
   5526 ****         0.0000 -19.5000 -15.2500 Du        
   5527 ****         0.0000 -19.5000 -15.0000 Du        
   5528 ****         0.0000 -19.5000 -14.7500 Du        
   5529 ****         0.0000 -19.5000 -14.5000 Du        
   5530 ****         0.0000 -19.2500 -16.0000 Du        
   5531 ****         0.0000 -19.2500 -15.7500 Du        
   5532 ****         0.0000 -19.2500 -15.5000 Du        
   5533 ****         0.0000 -19.2500 -15.2500 Du        
   5534 ****         0.0000 -19.2500 -15.0000 Du        
   5535 ****         0.0000 -19.2500 -14.7500 Du        
   5536 ****         0.0000 -19.2500 -14.5000 Du        
   5537 ****         0.0000 -19.0000 -16.0000 Du        
   5538 ****         0.0000 -19.0000 -15.7500 Du        
   5539 ****         0.0000 -19.0000 -15.5000 Du        
   5540 ****         0.0000 -19.0000 -15.2500 Du        
   5541 ****         0.0000 -19.0000 -15.0000 Du        
   5542 ****         0.0000 -19.0000 -14.7500 Du        
   5543 ****         0.0000 -19.0000 -14.5000 Du        
   5544 ****         0.0000 -18.7500 -15.7500 Du        
   5545 ****         0.0000 -18.7500 -15.5000 Du        
   5546 ****         0.0000 -18.7500 -15.2500 Du        
   5547 ****         0.0000 -18.7500 -15.0000 Du        
   5548 ****         0.0000 -18.7500 -14.7500 Du        
   5549 ****         0.0000 -18.7500 -14.5000 Du        
   5550 ****         0.0000 -18.5000 -15.7500 Du        
   5551 ****         0.0000 -18.5000 -15.5000 Du        
   5552 ****         0.0000 -18.5000 -15.2500 Du        
   5553 ****         0.0000 -18.5000 -15.0000 Du        
   5554 ****         0.0000 -18.5000 -14.7500 Du        
   5555 ****         0.0000 -18.2500 -15.7500 Du        
   5556 ****         0.0000 -18.2500 -15.5000 Du        
   5557 ****         0.0000 -18.2500 -15.2500 Du        
   5558 ****         0.0000 -18.2500 -15.0000 Du        
   5559 ****         0.0000 -18.2500 -14.7500 Du        
   5560 ****         0.0000 -18.0000 -15.7500 Du        
   5561 ****         0.0000 -18.0000 -15.5000 Du        
   5562 ****         0.0000 -18.0000 -15.2500 Du        
   5563 ****         0.0000 -18.0000 -15.0000 Du        
   5564 ****         0.0000 -18.0000 -14.7500 Du        
   5565 ****         0.0000 -17.7500 -15.7500 Du        
   5566 ****         0.0000 -17.7500 -15.5000 Du        
   5567 ****         0.0000 -17.7500 -15.2500 Du        
   5568 ****         0.0000 -17.7500 -15.0000 Du        
   5569 ****         0.0000 -17.5000 -15.5000 Du        
   5570 ****         0.2500 -32.2500 -16.2500 Du        
   5571 ****         0.2500 -32.2500 -16.0000 Du        
   5572 ****         0.2500 -32.2500 -15.7500 Du        
   5573 ****         0.2500 -32.0000 -16.2500 Du        
   5574 ****         0.2500 -32.0000 -16.0000 Du        
   5575 ****         0.2500 -32.0000 -15.7500 Du        
   5576 ****         0.2500 -31.7500 -16.2500 Du        
   5577 ****         0.2500 -31.7500 -16.0000 Du        
   5578 ****         0.2500 -31.7500 -15.7500 Du        
   5579 ****         0.2500 -31.7500 -15.5000 Du        
   5580 ****         0.2500 -31.5000 -16.5000 Du        
   5581 ****         0.2500 -31.5000 -16.2500 Du        
   5582 ****         0.2500 -31.5000 -16.0000 Du        
   5583 ****         0.2500 -31.5000 -15.7500 Du        
   5584 ****         0.2500 -31.5000 -15.5000 Du        
   5585 ****         0.2500 -31.5000 -15.2500 Du        
   5586 ****         0.2500 -31.5000 -15.0000 Du        
   5587 ****         0.2500 -31.5000 -14.7500 Du        
   5588 ****         0.2500 -31.2500 -16.5000 Du        
   5589 ****         0.2500 -31.2500 -16.2500 Du        
   5590 ****         0.2500 -31.2500 -16.0000 Du        
   5591 ****         0.2500 -31.2500 -15.7500 Du        
   5592 ****         0.2500 -31.2500 -15.5000 Du        
   5593 ****         0.2500 -31.2500 -15.2500 Du        
   5594 ****         0.2500 -31.2500 -15.0000 Du        
   5595 ****         0.2500 -31.2500 -14.7500 Du        
   5596 ****         0.2500 -31.0000 -16.2500 Du        
   5597 ****         0.2500 -31.0000 -16.0000 Du        
   5598 ****         0.2500 -31.0000 -15.7500 Du        
   5599 ****         0.2500 -31.0000 -15.5000 Du        
   5600 ****         0.2500 -31.0000 -15.2500 Du        
   5601 ****         0.2500 -31.0000 -15.0000 Du        
   5602 ****         0.2500 -31.0000 -14.7500 Du        
   5603 ****         0.2500 -30.7500 -15.7500 Du        
   5604 ****         0.2500 -30.7500 -15.5000 Du        
   5605 ****         0.2500 -30.7500 -15.2500 Du        
   5606 ****         0.2500 -30.7500 -15.0000 Du        
   5607 ****         0.2500 -30.7500 -14.7500 Du        
   5608 ****         0.2500 -30.5000 -15.7500 Du        
   5609 ****         0.2500 -30.5000 -15.2500 Du        
   5610 ****         0.2500 -30.5000 -15.0000 Du        
   5611 ****         0.2500 -30.5000 -14.7500 Du        
   5612 ****         0.2500 -30.2500 -15.2500 Du        
   5613 ****         0.2500 -30.2500 -15.0000 Du        
   5614 ****         0.2500 -30.2500 -14.7500 Du        
   5615 ****         0.2500 -30.0000 -15.0000 Du        
   5616 ****         0.2500 -30.0000 -14.7500 Du        
   5617 ****         0.2500 -29.7500 -14.5000 Du        
   5618 ****         0.2500 -29.5000 -14.7500 Du        
   5619 ****         0.2500 -29.5000 -14.5000 Du        
   5620 ****         0.2500 -29.2500 -14.7500 Du        
   5621 ****         0.2500 -29.2500 -14.5000 Du        
   5622 ****         0.2500 -29.0000 -14.7500 Du        
   5623 ****         0.2500 -29.0000 -14.5000 Du        
   5624 ****         0.2500 -28.7500 -14.5000 Du        
   5625 ****         0.2500 -28.5000 -14.5000 Du        
   5626 ****         0.2500 -28.5000 -14.2500 Du        
   5627 ****         0.2500 -28.2500 -14.5000 Du        
   5628 ****         0.2500 -28.2500 -14.2500 Du        
   5629 ****         0.2500 -28.0000 -14.5000 Du        
   5630 ****         0.2500 -28.0000 -14.2500 Du        
   5631 ****         0.2500 -28.0000 -14.0000 Du        
   5632 ****         0.2500 -27.7500 -14.5000 Du        
   5633 ****         0.2500 -27.7500 -14.2500 Du        
   5634 ****         0.2500 -27.7500 -14.0000 Du        
   5635 ****         0.2500 -27.5000 -14.5000 Du        
   5636 ****         0.2500 -27.5000 -14.2500 Du        
   5637 ****         0.2500 -27.5000 -14.0000 Du        
   5638 ****         0.2500 -27.2500 -14.5000 Du        
   5639 ****         0.2500 -27.2500 -14.2500 Du        
   5640 ****         0.2500 -27.2500 -14.0000 Du        
   5641 ****         0.2500 -27.2500 -13.7500 Du        
   5642 ****         0.2500 -27.0000 -14.5000 Du        
   5643 ****         0.2500 -27.0000 -14.2500 Du        
   5644 ****         0.2500 -27.0000 -14.0000 Du        
   5645 ****         0.2500 -27.0000 -13.7500 Du        
   5646 ****         0.2500 -26.7500 -14.5000 Du        
   5647 ****         0.2500 -26.7500 -14.2500 Du        
   5648 ****         0.2500 -26.7500 -14.0000 Du        
   5649 ****         0.2500 -26.7500 -13.7500 Du        
   5650 ****         0.2500 -26.7500 -13.5000 Du        
   5651 ****         0.2500 -26.5000 -14.5000 Du        
   5652 ****         0.2500 -26.5000 -14.2500 Du        
   5653 ****         0.2500 -26.5000 -14.0000 Du        
   5654 ****         0.2500 -26.5000 -13.7500 Du        
   5655 ****         0.2500 -26.5000 -13.5000 Du        
   5656 ****         0.2500 -26.2500 -14.5000 Du        
   5657 ****         0.2500 -26.2500 -14.2500 Du        
   5658 ****         0.2500 -26.2500 -14.0000 Du        
   5659 ****         0.2500 -26.2500 -13.7500 Du        
   5660 ****         0.2500 -26.2500 -13.5000 Du        
   5661 ****         0.2500 -26.2500 -13.2500 Du        
   5662 ****         0.2500 -26.0000 -14.5000 Du        
   5663 ****         0.2500 -26.0000 -14.2500 Du        
   5664 ****         0.2500 -26.0000 -14.0000 Du        
   5665 ****         0.2500 -26.0000 -13.7500 Du        
   5666 ****         0.2500 -26.0000 -13.5000 Du        
   5667 ****         0.2500 -26.0000 -13.2500 Du        
   5668 ****         0.2500 -26.0000 -13.0000 Du        
   5669 ****         0.2500 -26.0000 -12.7500 Du        
   5670 ****         0.2500 -25.7500 -14.5000 Du        
   5671 ****         0.2500 -25.7500 -14.2500 Du        
   5672 ****         0.2500 -25.7500 -14.0000 Du        
   5673 ****         0.2500 -25.7500 -13.7500 Du        
   5674 ****         0.2500 -25.7500 -13.5000 Du        
   5675 ****         0.2500 -25.7500 -13.2500 Du        
   5676 ****         0.2500 -25.7500 -13.0000 Du        
   5677 ****         0.2500 -25.7500 -12.7500 Du        
   5678 ****         0.2500 -25.7500 -12.5000 Du        
   5679 ****         0.2500 -25.5000 -14.7500 Du        
   5680 ****         0.2500 -25.5000 -14.5000 Du        
   5681 ****         0.2500 -25.5000 -14.2500 Du        
   5682 ****         0.2500 -25.5000 -14.0000 Du        
   5683 ****         0.2500 -25.5000 -13.7500 Du        
   5684 ****         0.2500 -25.5000 -13.5000 Du        
   5685 ****         0.2500 -25.5000 -13.2500 Du        
   5686 ****         0.2500 -25.5000 -13.0000 Du        
   5687 ****         0.2500 -25.5000 -12.7500 Du        
   5688 ****         0.2500 -25.5000 -12.5000 Du        
   5689 ****         0.2500 -25.5000 -12.2500 Du        
   5690 ****         0.2500 -25.5000 -12.0000 Du        
   5691 ****         0.2500 -25.2500 -15.0000 Du        
   5692 ****         0.2500 -25.2500 -14.7500 Du        
   5693 ****         0.2500 -25.2500 -14.5000 Du        
   5694 ****         0.2500 -25.2500 -14.2500 Du        
   5695 ****         0.2500 -25.2500 -14.0000 Du        
   5696 ****         0.2500 -25.2500 -13.7500 Du        
   5697 ****         0.2500 -25.2500 -13.5000 Du        
   5698 ****         0.2500 -25.2500 -13.2500 Du        
   5699 ****         0.2500 -25.2500 -13.0000 Du        
   5700 ****         0.2500 -25.2500 -12.7500 Du        
   5701 ****         0.2500 -25.2500 -12.5000 Du        
   5702 ****         0.2500 -25.2500 -12.2500 Du        
   5703 ****         0.2500 -25.0000 -15.0000 Du        
   5704 ****         0.2500 -25.0000 -14.7500 Du        
   5705 ****         0.2500 -25.0000 -14.5000 Du        
   5706 ****         0.2500 -25.0000 -14.2500 Du        
   5707 ****         0.2500 -25.0000 -14.0000 Du        
   5708 ****         0.2500 -25.0000 -13.7500 Du        
   5709 ****         0.2500 -25.0000 -13.5000 Du        
   5710 ****         0.2500 -25.0000 -13.2500 Du        
   5711 ****         0.2500 -25.0000 -13.0000 Du        
   5712 ****         0.2500 -25.0000 -12.7500 Du        
   5713 ****         0.2500 -24.7500 -15.0000 Du        
   5714 ****         0.2500 -24.7500 -14.7500 Du        
   5715 ****         0.2500 -24.7500 -14.5000 Du        
   5716 ****         0.2500 -24.7500 -14.2500 Du        
   5717 ****         0.2500 -24.7500 -14.0000 Du        
   5718 ****         0.2500 -24.7500 -13.7500 Du        
   5719 ****         0.2500 -24.7500 -13.5000 Du        
   5720 ****         0.2500 -24.7500 -13.2500 Du        
   5721 ****         0.2500 -24.5000 -15.2500 Du        
   5722 ****         0.2500 -24.5000 -15.0000 Du        
   5723 ****         0.2500 -24.5000 -14.7500 Du        
   5724 ****         0.2500 -24.5000 -14.5000 Du        
   5725 ****         0.2500 -24.5000 -14.2500 Du        
   5726 ****         0.2500 -24.5000 -14.0000 Du        
   5727 ****         0.2500 -24.5000 -13.7500 Du        
   5728 ****         0.2500 -24.2500 -15.2500 Du        
   5729 ****         0.2500 -24.2500 -15.0000 Du        
   5730 ****         0.2500 -24.2500 -14.7500 Du        
   5731 ****         0.2500 -24.2500 -14.5000 Du        
   5732 ****         0.2500 -24.2500 -14.2500 Du        
   5733 ****         0.2500 -24.2500 -14.0000 Du        
   5734 ****         0.2500 -24.2500 -13.7500 Du        
   5735 ****         0.2500 -24.0000 -15.7500 Du        
   5736 ****         0.2500 -24.0000 -15.5000 Du        
   5737 ****         0.2500 -24.0000 -15.2500 Du        
   5738 ****         0.2500 -24.0000 -15.0000 Du        
   5739 ****         0.2500 -24.0000 -14.7500 Du        
   5740 ****         0.2500 -24.0000 -14.5000 Du        
   5741 ****         0.2500 -24.0000 -14.2500 Du        
   5742 ****         0.2500 -24.0000 -14.0000 Du        
   5743 ****         0.2500 -23.7500 -15.7500 Du        
   5744 ****         0.2500 -23.7500 -15.5000 Du        
   5745 ****         0.2500 -23.7500 -15.2500 Du        
   5746 ****         0.2500 -23.7500 -15.0000 Du        
   5747 ****         0.2500 -23.7500 -14.7500 Du        
   5748 ****         0.2500 -23.7500 -14.5000 Du        
   5749 ****         0.2500 -23.7500 -14.2500 Du        
   5750 ****         0.2500 -23.5000 -16.0000 Du        
   5751 ****         0.2500 -23.5000 -15.7500 Du        
   5752 ****         0.2500 -23.5000 -15.5000 Du        
   5753 ****         0.2500 -23.5000 -15.2500 Du        
   5754 ****         0.2500 -23.5000 -15.0000 Du        
   5755 ****         0.2500 -23.5000 -14.7500 Du        
   5756 ****         0.2500 -23.5000 -14.5000 Du        
   5757 ****         0.2500 -23.2500 -16.0000 Du        
   5758 ****         0.2500 -23.2500 -15.7500 Du        
   5759 ****         0.2500 -23.2500 -15.5000 Du        
   5760 ****         0.2500 -23.2500 -15.2500 Du        
   5761 ****         0.2500 -23.2500 -15.0000 Du        
   5762 ****         0.2500 -23.2500 -14.7500 Du        
   5763 ****         0.2500 -23.0000 -16.2500 Du        
   5764 ****         0.2500 -23.0000 -16.0000 Du        
   5765 ****         0.2500 -23.0000 -15.7500 Du        
   5766 ****         0.2500 -23.0000 -15.5000 Du        
   5767 ****         0.2500 -23.0000 -15.2500 Du        
   5768 ****         0.2500 -23.0000 -15.0000 Du        
   5769 ****         0.2500 -23.0000 -14.7500 Du        
   5770 ****         0.2500 -22.7500 -16.2500 Du        
   5771 ****         0.2500 -22.7500 -16.0000 Du        
   5772 ****         0.2500 -22.7500 -15.7500 Du        
   5773 ****         0.2500 -22.7500 -15.5000 Du        
   5774 ****         0.2500 -22.7500 -15.2500 Du        
   5775 ****         0.2500 -22.7500 -15.0000 Du        
   5776 ****         0.2500 -22.7500 -14.7500 Du        
   5777 ****         0.2500 -22.5000 -16.2500 Du        
   5778 ****         0.2500 -22.5000 -16.0000 Du        
   5779 ****         0.2500 -22.5000 -15.7500 Du        
   5780 ****         0.2500 -22.5000 -15.5000 Du        
   5781 ****         0.2500 -22.5000 -15.2500 Du        
   5782 ****         0.2500 -22.5000 -15.0000 Du        
   5783 ****         0.2500 -22.5000 -14.7500 Du        
   5784 ****         0.2500 -22.2500 -16.7500 Du        
   5785 ****         0.2500 -22.2500 -16.5000 Du        
   5786 ****         0.2500 -22.2500 -16.2500 Du        
   5787 ****         0.2500 -22.2500 -16.0000 Du        
   5788 ****         0.2500 -22.2500 -15.7500 Du        
   5789 ****         0.2500 -22.2500 -15.5000 Du        
   5790 ****         0.2500 -22.2500 -15.2500 Du        
   5791 ****         0.2500 -22.2500 -15.0000 Du        
   5792 ****         0.2500 -22.0000 -16.7500 Du        
   5793 ****         0.2500 -22.0000 -16.5000 Du        
   5794 ****         0.2500 -22.0000 -16.2500 Du        
   5795 ****         0.2500 -22.0000 -16.0000 Du        
   5796 ****         0.2500 -22.0000 -15.7500 Du        
   5797 ****         0.2500 -22.0000 -15.5000 Du        
   5798 ****         0.2500 -22.0000 -15.2500 Du        
   5799 ****         0.2500 -22.0000 -15.0000 Du        
   5800 ****         0.2500 -21.7500 -16.7500 Du        
   5801 ****         0.2500 -21.7500 -16.5000 Du        
   5802 ****         0.2500 -21.7500 -16.2500 Du        
   5803 ****         0.2500 -21.7500 -16.0000 Du        
   5804 ****         0.2500 -21.7500 -15.7500 Du        
   5805 ****         0.2500 -21.7500 -15.5000 Du        
   5806 ****         0.2500 -21.7500 -15.2500 Du        
   5807 ****         0.2500 -21.7500 -15.0000 Du        
   5808 ****         0.2500 -21.5000 -16.7500 Du        
   5809 ****         0.2500 -21.5000 -16.5000 Du        
   5810 ****         0.2500 -21.5000 -16.2500 Du        
   5811 ****         0.2500 -21.5000 -16.0000 Du        
   5812 ****         0.2500 -21.5000 -15.7500 Du        
   5813 ****         0.2500 -21.2500 -16.7500 Du        
   5814 ****         0.2500 -21.2500 -16.5000 Du        
   5815 ****         0.2500 -21.2500 -16.2500 Du        
   5816 ****         0.2500 -21.2500 -16.0000 Du        
   5817 ****         0.2500 -21.2500 -15.7500 Du        
   5818 ****         0.2500 -21.0000 -16.7500 Du        
   5819 ****         0.2500 -21.0000 -16.5000 Du        
   5820 ****         0.2500 -21.0000 -16.2500 Du        
   5821 ****         0.2500 -21.0000 -16.0000 Du        
   5822 ****         0.2500 -21.0000 -15.7500 Du        
   5823 ****         0.2500 -21.0000 -15.0000 Du        
   5824 ****         0.2500 -20.7500 -16.7500 Du        
   5825 ****         0.2500 -20.7500 -16.5000 Du        
   5826 ****         0.2500 -20.7500 -16.2500 Du        
   5827 ****         0.2500 -20.7500 -16.0000 Du        
   5828 ****         0.2500 -20.7500 -15.7500 Du        
   5829 ****         0.2500 -20.7500 -15.5000 Du        
   5830 ****         0.2500 -20.7500 -15.2500 Du        
   5831 ****         0.2500 -20.7500 -15.0000 Du        
   5832 ****         0.2500 -20.5000 -15.7500 Du        
   5833 ****         0.2500 -20.5000 -15.2500 Du        
   5834 ****         0.2500 -20.5000 -15.0000 Du        
   5835 ****         0.2500 -20.2500 -15.7500 Du        
   5836 ****         0.2500 -20.2500 -15.5000 Du        
   5837 ****         0.2500 -20.2500 -15.2500 Du        
   5838 ****         0.2500 -20.2500 -15.0000 Du        
   5839 ****         0.2500 -20.0000 -16.0000 Du        
   5840 ****         0.2500 -20.0000 -15.7500 Du        
   5841 ****         0.2500 -20.0000 -15.5000 Du        
   5842 ****         0.2500 -20.0000 -15.2500 Du        
   5843 ****         0.2500 -20.0000 -15.0000 Du        
   5844 ****         0.2500 -20.0000 -14.7500 Du        
   5845 ****         0.2500 -19.7500 -16.0000 Du        
   5846 ****         0.2500 -19.7500 -15.7500 Du        
   5847 ****         0.2500 -19.7500 -15.5000 Du        
   5848 ****         0.2500 -19.7500 -15.2500 Du        
   5849 ****         0.2500 -19.7500 -15.0000 Du        
   5850 ****         0.2500 -19.7500 -14.7500 Du        
   5851 ****         0.2500 -19.5000 -15.7500 Du        
   5852 ****         0.2500 -19.5000 -15.5000 Du        
   5853 ****         0.2500 -19.5000 -15.2500 Du        
   5854 ****         0.2500 -19.5000 -15.0000 Du        
   5855 ****         0.2500 -19.5000 -14.7500 Du        
   5856 ****         0.2500 -19.5000 -14.5000 Du        
   5857 ****         0.2500 -19.2500 -15.7500 Du        
   5858 ****         0.2500 -19.2500 -15.5000 Du        
   5859 ****         0.2500 -19.2500 -15.2500 Du        
   5860 ****         0.2500 -19.2500 -15.0000 Du        
   5861 ****         0.2500 -19.2500 -14.7500 Du        
   5862 ****         0.2500 -19.2500 -14.5000 Du        
   5863 ****         0.2500 -19.0000 -15.7500 Du        
   5864 ****         0.2500 -19.0000 -15.5000 Du        
   5865 ****         0.2500 -19.0000 -15.2500 Du        
   5866 ****         0.2500 -19.0000 -15.0000 Du        
   5867 ****         0.2500 -19.0000 -14.7500 Du        
   5868 ****         0.2500 -19.0000 -14.5000 Du        
   5869 ****         0.2500 -18.7500 -15.7500 Du        
   5870 ****         0.2500 -18.7500 -15.5000 Du        
   5871 ****         0.2500 -18.7500 -15.2500 Du        
   5872 ****         0.2500 -18.7500 -15.0000 Du        
   5873 ****         0.2500 -18.7500 -14.7500 Du        
   5874 ****         0.2500 -18.7500 -14.5000 Du        
   5875 ****         0.2500 -18.5000 -15.5000 Du        
   5876 ****         0.2500 -18.5000 -15.2500 Du        
   5877 ****         0.2500 -18.5000 -15.0000 Du        
   5878 ****         0.2500 -18.5000 -14.7500 Du        
   5879 ****         0.2500 -18.5000 -14.5000 Du        
   5880 ****         0.2500 -18.2500 -15.5000 Du        
   5881 ****         0.2500 -18.2500 -15.2500 Du        
   5882 ****         0.2500 -18.2500 -15.0000 Du        
   5883 ****         0.2500 -18.2500 -14.7500 Du        
   5884 ****         0.2500 -18.2500 -14.5000 Du        
   5885 ****         0.2500 -18.0000 -15.5000 Du        
   5886 ****         0.2500 -18.0000 -15.2500 Du        
   5887 ****         0.2500 -18.0000 -15.0000 Du        
   5888 ****         0.2500 -18.0000 -14.7500 Du        
   5889 ****         0.2500 -17.7500 -15.5000 Du        
   5890 ****         0.2500 -17.7500 -15.2500 Du        
   5891 ****         0.2500 -17.7500 -15.0000 Du        
   5892 ****         0.5000 -32.5000 -16.0000 Du        
   5893 ****         0.5000 -32.5000 -15.7500 Du        
   5894 ****         0.5000 -32.2500 -16.0000 Du        
   5895 ****         0.5000 -32.2500 -15.7500 Du        
   5896 ****         0.5000 -32.2500 -15.5000 Du        
   5897 ****         0.5000 -32.2500 -15.2500 Du        
   5898 ****         0.5000 -32.0000 -16.0000 Du        
   5899 ****         0.5000 -32.0000 -15.7500 Du        
   5900 ****         0.5000 -32.0000 -15.5000 Du        
   5901 ****         0.5000 -32.0000 -15.2500 Du        
   5902 ****         0.5000 -32.0000 -15.0000 Du        
   5903 ****         0.5000 -32.0000 -14.7500 Du        
   5904 ****         0.5000 -31.7500 -16.2500 Du        
   5905 ****         0.5000 -31.7500 -16.0000 Du        
   5906 ****         0.5000 -31.7500 -15.7500 Du        
   5907 ****         0.5000 -31.7500 -15.5000 Du        
   5908 ****         0.5000 -31.7500 -15.2500 Du        
   5909 ****         0.5000 -31.7500 -15.0000 Du        
   5910 ****         0.5000 -31.7500 -14.7500 Du        
   5911 ****         0.5000 -31.5000 -16.2500 Du        
   5912 ****         0.5000 -31.5000 -16.0000 Du        
   5913 ****         0.5000 -31.5000 -15.7500 Du        
   5914 ****         0.5000 -31.5000 -15.5000 Du        
   5915 ****         0.5000 -31.5000 -15.2500 Du        
   5916 ****         0.5000 -31.5000 -15.0000 Du        
   5917 ****         0.5000 -31.5000 -14.7500 Du        
   5918 ****         0.5000 -31.5000 -14.5000 Du        
   5919 ****         0.5000 -31.2500 -16.2500 Du        
   5920 ****         0.5000 -31.2500 -16.0000 Du        
   5921 ****         0.5000 -31.2500 -15.7500 Du        
   5922 ****         0.5000 -31.2500 -15.5000 Du        
   5923 ****         0.5000 -31.2500 -15.2500 Du        
   5924 ****         0.5000 -31.2500 -15.0000 Du        
   5925 ****         0.5000 -31.2500 -14.7500 Du        
   5926 ****         0.5000 -31.2500 -14.5000 Du        
   5927 ****         0.5000 -31.0000 -16.2500 Du        
   5928 ****         0.5000 -31.0000 -16.0000 Du        
   5929 ****         0.5000 -31.0000 -15.7500 Du        
   5930 ****         0.5000 -31.0000 -15.5000 Du        
   5931 ****         0.5000 -31.0000 -15.2500 Du        
   5932 ****         0.5000 -31.0000 -15.0000 Du        
   5933 ****         0.5000 -31.0000 -14.7500 Du        
   5934 ****         0.5000 -31.0000 -14.5000 Du        
   5935 ****         0.5000 -30.7500 -15.7500 Du        
   5936 ****         0.5000 -30.7500 -15.5000 Du        
   5937 ****         0.5000 -30.7500 -15.2500 Du        
   5938 ****         0.5000 -30.7500 -15.0000 Du        
   5939 ****         0.5000 -30.7500 -14.7500 Du        
   5940 ****         0.5000 -30.7500 -14.5000 Du        
   5941 ****         0.5000 -30.5000 -15.7500 Du        
   5942 ****         0.5000 -30.5000 -15.5000 Du        
   5943 ****         0.5000 -30.5000 -15.2500 Du        
   5944 ****         0.5000 -30.5000 -15.0000 Du        
   5945 ****         0.5000 -30.5000 -14.7500 Du        
   5946 ****         0.5000 -30.5000 -14.5000 Du        
   5947 ****         0.5000 -30.2500 -15.5000 Du        
   5948 ****         0.5000 -30.2500 -15.2500 Du        
   5949 ****         0.5000 -30.2500 -15.0000 Du        
   5950 ****         0.5000 -30.2500 -14.7500 Du        
   5951 ****         0.5000 -30.2500 -14.5000 Du        
   5952 ****         0.5000 -30.0000 -15.2500 Du        
   5953 ****         0.5000 -30.0000 -15.0000 Du        
   5954 ****         0.5000 -30.0000 -14.7500 Du        
   5955 ****         0.5000 -30.0000 -14.5000 Du        
   5956 ****         0.5000 -29.7500 -15.0000 Du        
   5957 ****         0.5000 -29.7500 -14.7500 Du        
   5958 ****         0.5000 -29.7500 -14.5000 Du        
   5959 ****         0.5000 -29.5000 -14.7500 Du        
   5960 ****         0.5000 -29.5000 -14.5000 Du        
   5961 ****         0.5000 -29.2500 -14.7500 Du        
   5962 ****         0.5000 -29.2500 -14.5000 Du        
   5963 ****         0.5000 -29.0000 -14.7500 Du        
   5964 ****         0.5000 -29.0000 -14.5000 Du        
   5965 ****         0.5000 -28.7500 -14.5000 Du        
   5966 ****         0.5000 -28.7500 -14.2500 Du        
   5967 ****         0.5000 -28.5000 -14.5000 Du        
   5968 ****         0.5000 -28.5000 -14.2500 Du        
   5969 ****         0.5000 -28.2500 -14.5000 Du        
   5970 ****         0.5000 -28.2500 -14.2500 Du        
   5971 ****         0.5000 -28.0000 -14.5000 Du        
   5972 ****         0.5000 -28.0000 -14.2500 Du        
   5973 ****         0.5000 -27.7500 -14.5000 Du        
   5974 ****         0.5000 -27.7500 -14.2500 Du        
   5975 ****         0.5000 -27.5000 -14.5000 Du        
   5976 ****         0.5000 -27.5000 -14.2500 Du        
   5977 ****         0.5000 -27.5000 -14.0000 Du        
   5978 ****         0.5000 -27.2500 -14.5000 Du        
   5979 ****         0.5000 -27.2500 -14.2500 Du        
   5980 ****         0.5000 -27.2500 -14.0000 Du        
   5981 ****         0.5000 -27.0000 -14.5000 Du        
   5982 ****         0.5000 -27.0000 -14.2500 Du        
   5983 ****         0.5000 -27.0000 -14.0000 Du        
   5984 ****         0.5000 -26.7500 -14.5000 Du        
   5985 ****         0.5000 -26.7500 -14.2500 Du        
   5986 ****         0.5000 -26.7500 -14.0000 Du        
   5987 ****         0.5000 -26.5000 -14.5000 Du        
   5988 ****         0.5000 -26.5000 -14.2500 Du        
   5989 ****         0.5000 -26.5000 -14.0000 Du        
   5990 ****         0.5000 -26.5000 -13.7500 Du        
   5991 ****         0.5000 -26.5000 -13.5000 Du        
   5992 ****         0.5000 -26.2500 -14.5000 Du        
   5993 ****         0.5000 -26.2500 -14.2500 Du        
   5994 ****         0.5000 -26.2500 -14.0000 Du        
   5995 ****         0.5000 -26.2500 -13.7500 Du        
   5996 ****         0.5000 -26.2500 -13.5000 Du        
   5997 ****         0.5000 -26.0000 -14.5000 Du        
   5998 ****         0.5000 -26.0000 -14.2500 Du        
   5999 ****         0.5000 -26.0000 -14.0000 Du        
   6000 ****         0.5000 -26.0000 -13.7500 Du        
   6001 ****         0.5000 -26.0000 -13.5000 Du        
   6002 ****         0.5000 -26.0000 -13.2500 Du        
   6003 ****         0.5000 -26.0000 -13.0000 Du        
   6004 ****         0.5000 -25.7500 -14.5000 Du        
   6005 ****         0.5000 -25.7500 -14.2500 Du        
   6006 ****         0.5000 -25.7500 -14.0000 Du        
   6007 ****         0.5000 -25.7500 -13.7500 Du        
   6008 ****         0.5000 -25.7500 -13.5000 Du        
   6009 ****         0.5000 -25.7500 -13.2500 Du        
   6010 ****         0.5000 -25.7500 -13.0000 Du        
   6011 ****         0.5000 -25.7500 -12.7500 Du        
   6012 ****         0.5000 -25.5000 -14.5000 Du        
   6013 ****         0.5000 -25.5000 -14.2500 Du        
   6014 ****         0.5000 -25.5000 -14.0000 Du        
   6015 ****         0.5000 -25.5000 -13.7500 Du        
   6016 ****         0.5000 -25.5000 -13.5000 Du        
   6017 ****         0.5000 -25.5000 -13.2500 Du        
   6018 ****         0.5000 -25.5000 -13.0000 Du        
   6019 ****         0.5000 -25.5000 -12.7500 Du        
   6020 ****         0.5000 -25.5000 -12.5000 Du        
   6021 ****         0.5000 -25.5000 -12.2500 Du        
   6022 ****         0.5000 -25.2500 -14.5000 Du        
   6023 ****         0.5000 -25.2500 -14.2500 Du        
   6024 ****         0.5000 -25.2500 -14.0000 Du        
   6025 ****         0.5000 -25.2500 -13.7500 Du        
   6026 ****         0.5000 -25.2500 -13.5000 Du        
   6027 ****         0.5000 -25.2500 -13.2500 Du        
   6028 ****         0.5000 -25.2500 -13.0000 Du        
   6029 ****         0.5000 -25.2500 -12.7500 Du        
   6030 ****         0.5000 -25.2500 -12.5000 Du        
   6031 ****         0.5000 -25.2500 -12.2500 Du        
   6032 ****         0.5000 -25.0000 -14.5000 Du        
   6033 ****         0.5000 -25.0000 -14.2500 Du        
   6034 ****         0.5000 -25.0000 -14.0000 Du        
   6035 ****         0.5000 -25.0000 -13.7500 Du        
   6036 ****         0.5000 -25.0000 -13.5000 Du        
   6037 ****         0.5000 -25.0000 -13.2500 Du        
   6038 ****         0.5000 -25.0000 -13.0000 Du        
   6039 ****         0.5000 -25.0000 -12.7500 Du        
   6040 ****         0.5000 -24.7500 -14.5000 Du        
   6041 ****         0.5000 -24.7500 -14.2500 Du        
   6042 ****         0.5000 -24.7500 -14.0000 Du        
   6043 ****         0.5000 -24.7500 -13.7500 Du        
   6044 ****         0.5000 -24.7500 -13.5000 Du        
   6045 ****         0.5000 -24.7500 -13.2500 Du        
   6046 ****         0.5000 -24.5000 -15.0000 Du        
   6047 ****         0.5000 -24.5000 -14.7500 Du        
   6048 ****         0.5000 -24.5000 -14.5000 Du        
   6049 ****         0.5000 -24.5000 -14.2500 Du        
   6050 ****         0.5000 -24.5000 -14.0000 Du        
   6051 ****         0.5000 -24.5000 -13.7500 Du        
   6052 ****         0.5000 -24.2500 -15.2500 Du        
   6053 ****         0.5000 -24.2500 -15.0000 Du        
   6054 ****         0.5000 -24.2500 -14.7500 Du        
   6055 ****         0.5000 -24.2500 -14.5000 Du        
   6056 ****         0.5000 -24.2500 -14.2500 Du        
   6057 ****         0.5000 -24.2500 -14.0000 Du        
   6058 ****         0.5000 -24.0000 -15.2500 Du        
   6059 ****         0.5000 -24.0000 -15.0000 Du        
   6060 ****         0.5000 -24.0000 -14.7500 Du        
   6061 ****         0.5000 -24.0000 -14.5000 Du        
   6062 ****         0.5000 -24.0000 -14.2500 Du        
   6063 ****         0.5000 -23.7500 -15.7500 Du        
   6064 ****         0.5000 -23.7500 -15.5000 Du        
   6065 ****         0.5000 -23.7500 -15.2500 Du        
   6066 ****         0.5000 -23.7500 -15.0000 Du        
   6067 ****         0.5000 -23.7500 -14.7500 Du        
   6068 ****         0.5000 -23.5000 -15.7500 Du        
   6069 ****         0.5000 -23.5000 -15.5000 Du        
   6070 ****         0.5000 -23.5000 -15.2500 Du        
   6071 ****         0.5000 -23.5000 -15.0000 Du        
   6072 ****         0.5000 -23.5000 -14.7500 Du        
   6073 ****         0.5000 -23.2500 -16.0000 Du        
   6074 ****         0.5000 -23.2500 -15.7500 Du        
   6075 ****         0.5000 -23.2500 -15.5000 Du        
   6076 ****         0.5000 -23.2500 -15.2500 Du        
   6077 ****         0.5000 -23.2500 -15.0000 Du        
   6078 ****         0.5000 -23.2500 -14.7500 Du        
   6079 ****         0.5000 -23.0000 -16.2500 Du        
   6080 ****         0.5000 -23.0000 -16.0000 Du        
   6081 ****         0.5000 -23.0000 -15.7500 Du        
   6082 ****         0.5000 -23.0000 -15.5000 Du        
   6083 ****         0.5000 -23.0000 -15.2500 Du        
   6084 ****         0.5000 -23.0000 -15.0000 Du        
   6085 ****         0.5000 -23.0000 -14.7500 Du        
   6086 ****         0.5000 -22.7500 -16.5000 Du        
   6087 ****         0.5000 -22.7500 -16.2500 Du        
   6088 ****         0.5000 -22.7500 -16.0000 Du        
   6089 ****         0.5000 -22.7500 -15.7500 Du        
   6090 ****         0.5000 -22.7500 -15.5000 Du        
   6091 ****         0.5000 -22.7500 -15.2500 Du        
   6092 ****         0.5000 -22.7500 -15.0000 Du        
   6093 ****         0.5000 -22.5000 -16.5000 Du        
   6094 ****         0.5000 -22.5000 -16.2500 Du        
   6095 ****         0.5000 -22.5000 -16.0000 Du        
   6096 ****         0.5000 -22.5000 -15.7500 Du        
   6097 ****         0.5000 -22.5000 -15.5000 Du        
   6098 ****         0.5000 -22.5000 -15.2500 Du        
   6099 ****         0.5000 -22.2500 -16.7500 Du        
   6100 ****         0.5000 -22.2500 -16.5000 Du        
   6101 ****         0.5000 -22.2500 -16.2500 Du        
   6102 ****         0.5000 -22.2500 -16.0000 Du        
   6103 ****         0.5000 -22.2500 -15.7500 Du        
   6104 ****         0.5000 -22.2500 -15.5000 Du        
   6105 ****         0.5000 -22.2500 -15.2500 Du        
   6106 ****         0.5000 -22.0000 -16.7500 Du        
   6107 ****         0.5000 -22.0000 -16.5000 Du        
   6108 ****         0.5000 -22.0000 -16.2500 Du        
   6109 ****         0.5000 -22.0000 -16.0000 Du        
   6110 ****         0.5000 -22.0000 -15.7500 Du        
   6111 ****         0.5000 -22.0000 -15.5000 Du        
   6112 ****         0.5000 -22.0000 -15.2500 Du        
   6113 ****         0.5000 -21.7500 -16.7500 Du        
   6114 ****         0.5000 -21.7500 -16.5000 Du        
   6115 ****         0.5000 -21.7500 -16.2500 Du        
   6116 ****         0.5000 -21.7500 -16.0000 Du        
   6117 ****         0.5000 -21.7500 -15.7500 Du        
   6118 ****         0.5000 -21.7500 -15.5000 Du        
   6119 ****         0.5000 -21.7500 -15.2500 Du        
   6120 ****         0.5000 -21.5000 -16.7500 Du        
   6121 ****         0.5000 -21.5000 -16.5000 Du        
   6122 ****         0.5000 -21.5000 -16.2500 Du        
   6123 ****         0.5000 -21.5000 -16.0000 Du        
   6124 ****         0.5000 -21.5000 -15.7500 Du        
   6125 ****         0.5000 -21.2500 -16.7500 Du        
   6126 ****         0.5000 -21.2500 -16.5000 Du        
   6127 ****         0.5000 -21.2500 -16.2500 Du        
   6128 ****         0.5000 -21.2500 -16.0000 Du        
   6129 ****         0.5000 -21.2500 -15.7500 Du        
   6130 ****         0.5000 -21.0000 -16.7500 Du        
   6131 ****         0.5000 -21.0000 -16.5000 Du        
   6132 ****         0.5000 -21.0000 -16.2500 Du        
   6133 ****         0.5000 -21.0000 -16.0000 Du        
   6134 ****         0.5000 -21.0000 -15.7500 Du        
   6135 ****         0.5000 -20.7500 -16.5000 Du        
   6136 ****         0.5000 -20.7500 -16.2500 Du        
   6137 ****         0.5000 -20.7500 -16.0000 Du        
   6138 ****         0.5000 -20.7500 -15.7500 Du        
   6139 ****         0.5000 -20.5000 -16.2500 Du        
   6140 ****         0.5000 -20.5000 -16.0000 Du        
   6141 ****         0.5000 -20.2500 -16.0000 Du        
   6142 ****         0.5000 -20.2500 -15.0000 Du        
   6143 ****         0.5000 -20.0000 -15.2500 Du        
   6144 ****         0.5000 -20.0000 -15.0000 Du        
   6145 ****         0.5000 -19.7500 -15.5000 Du        
   6146 ****         0.5000 -19.7500 -15.2500 Du        
   6147 ****         0.5000 -19.7500 -15.0000 Du        
   6148 ****         0.5000 -19.7500 -14.7500 Du        
   6149 ****         0.5000 -19.5000 -15.2500 Du        
   6150 ****         0.5000 -19.5000 -15.0000 Du        
   6151 ****         0.5000 -19.5000 -14.7500 Du        
   6152 ****         0.5000 -19.5000 -14.5000 Du        
   6153 ****         0.5000 -19.2500 -15.5000 Du        
   6154 ****         0.5000 -19.2500 -15.2500 Du        
   6155 ****         0.5000 -19.2500 -15.0000 Du        
   6156 ****         0.5000 -19.2500 -14.7500 Du        
   6157 ****         0.5000 -19.2500 -14.5000 Du        
   6158 ****         0.5000 -19.2500 -14.2500 Du        
   6159 ****         0.5000 -19.0000 -15.5000 Du        
   6160 ****         0.5000 -19.0000 -15.2500 Du        
   6161 ****         0.5000 -19.0000 -15.0000 Du        
   6162 ****         0.5000 -19.0000 -14.7500 Du        
   6163 ****         0.5000 -19.0000 -14.5000 Du        
   6164 ****         0.5000 -19.0000 -14.2500 Du        
   6165 ****         0.5000 -18.7500 -15.5000 Du        
   6166 ****         0.5000 -18.7500 -15.2500 Du        
   6167 ****         0.5000 -18.7500 -15.0000 Du        
   6168 ****         0.5000 -18.7500 -14.7500 Du        
   6169 ****         0.5000 -18.7500 -14.5000 Du        
   6170 ****         0.5000 -18.7500 -14.2500 Du        
   6171 ****         0.5000 -18.5000 -15.5000 Du        
   6172 ****         0.5000 -18.5000 -15.2500 Du        
   6173 ****         0.5000 -18.5000 -15.0000 Du        
   6174 ****         0.5000 -18.5000 -14.7500 Du        
   6175 ****         0.5000 -18.5000 -14.5000 Du        
   6176 ****         0.5000 -18.5000 -14.2500 Du        
   6177 ****         0.5000 -18.2500 -15.5000 Du        
   6178 ****         0.5000 -18.2500 -15.2500 Du        
   6179 ****         0.5000 -18.2500 -15.0000 Du        
   6180 ****         0.5000 -18.2500 -14.7500 Du        
   6181 ****         0.5000 -18.2500 -14.5000 Du        
   6182 ****         0.5000 -18.0000 -15.5000 Du        
   6183 ****         0.5000 -18.0000 -15.2500 Du        
   6184 ****         0.5000 -18.0000 -15.0000 Du        
   6185 ****         0.5000 -18.0000 -14.7500 Du        
   6186 ****         0.5000 -17.7500 -15.5000 Du        
   6187 ****         0.5000 -17.7500 -15.2500 Du        
   6188 ****         0.5000 -17.7500 -15.0000 Du        
   6189 ****         0.7500 -33.2500 -15.7500 Du        
   6190 ****         0.7500 -33.0000 -15.7500 Du        
   6191 ****         0.7500 -32.7500 -16.0000 Du        
   6192 ****         0.7500 -32.7500 -15.7500 Du        
   6193 ****         0.7500 -32.5000 -16.0000 Du        
   6194 ****         0.7500 -32.5000 -15.7500 Du        
   6195 ****         0.7500 -32.5000 -15.2500 Du        
   6196 ****         0.7500 -32.2500 -16.0000 Du        
   6197 ****         0.7500 -32.2500 -15.7500 Du        
   6198 ****         0.7500 -32.2500 -15.5000 Du        
   6199 ****         0.7500 -32.2500 -15.2500 Du        
   6200 ****         0.7500 -32.2500 -15.0000 Du        
   6201 ****         0.7500 -32.2500 -14.7500 Du        
   6202 ****         0.7500 -32.0000 -16.2500 Du        
   6203 ****         0.7500 -32.0000 -16.0000 Du        
   6204 ****         0.7500 -32.0000 -15.7500 Du        
   6205 ****         0.7500 -32.0000 -15.5000 Du        
   6206 ****         0.7500 -32.0000 -15.2500 Du        
   6207 ****         0.7500 -32.0000 -15.0000 Du        
   6208 ****         0.7500 -32.0000 -14.7500 Du        
   6209 ****         0.7500 -31.7500 -16.2500 Du        
   6210 ****         0.7500 -31.7500 -16.0000 Du        
   6211 ****         0.7500 -31.7500 -15.7500 Du        
   6212 ****         0.7500 -31.7500 -15.5000 Du        
   6213 ****         0.7500 -31.7500 -15.2500 Du        
   6214 ****         0.7500 -31.7500 -15.0000 Du        
   6215 ****         0.7500 -31.7500 -14.7500 Du        
   6216 ****         0.7500 -31.5000 -16.2500 Du        
   6217 ****         0.7500 -31.5000 -16.0000 Du        
   6218 ****         0.7500 -31.5000 -15.7500 Du        
   6219 ****         0.7500 -31.5000 -15.5000 Du        
   6220 ****         0.7500 -31.5000 -15.2500 Du        
   6221 ****         0.7500 -31.5000 -15.0000 Du        
   6222 ****         0.7500 -31.5000 -14.7500 Du        
   6223 ****         0.7500 -31.5000 -14.5000 Du        
   6224 ****         0.7500 -31.2500 -16.2500 Du        
   6225 ****         0.7500 -31.2500 -16.0000 Du        
   6226 ****         0.7500 -31.2500 -15.7500 Du        
   6227 ****         0.7500 -31.2500 -15.5000 Du        
   6228 ****         0.7500 -31.2500 -15.2500 Du        
   6229 ****         0.7500 -31.2500 -15.0000 Du        
   6230 ****         0.7500 -31.2500 -14.7500 Du        
   6231 ****         0.7500 -31.2500 -14.5000 Du        
   6232 ****         0.7500 -31.0000 -16.0000 Du        
   6233 ****         0.7500 -31.0000 -15.7500 Du        
   6234 ****         0.7500 -31.0000 -15.5000 Du        
   6235 ****         0.7500 -31.0000 -15.2500 Du        
   6236 ****         0.7500 -31.0000 -15.0000 Du        
   6237 ****         0.7500 -31.0000 -14.7500 Du        
   6238 ****         0.7500 -31.0000 -14.5000 Du        
   6239 ****         0.7500 -30.7500 -15.7500 Du        
   6240 ****         0.7500 -30.7500 -15.5000 Du        
   6241 ****         0.7500 -30.7500 -15.2500 Du        
   6242 ****         0.7500 -30.7500 -15.0000 Du        
   6243 ****         0.7500 -30.7500 -14.7500 Du        
   6244 ****         0.7500 -30.7500 -14.5000 Du        
   6245 ****         0.7500 -30.5000 -15.7500 Du        
   6246 ****         0.7500 -30.5000 -15.5000 Du        
   6247 ****         0.7500 -30.5000 -15.2500 Du        
   6248 ****         0.7500 -30.5000 -15.0000 Du        
   6249 ****         0.7500 -30.5000 -14.7500 Du        
   6250 ****         0.7500 -30.5000 -14.5000 Du        
   6251 ****         0.7500 -30.2500 -15.5000 Du        
   6252 ****         0.7500 -30.2500 -15.2500 Du        
   6253 ****         0.7500 -30.2500 -15.0000 Du        
   6254 ****         0.7500 -30.2500 -14.7500 Du        
   6255 ****         0.7500 -30.2500 -14.5000 Du        
   6256 ****         0.7500 -30.0000 -15.2500 Du        
   6257 ****         0.7500 -30.0000 -15.0000 Du        
   6258 ****         0.7500 -30.0000 -14.7500 Du        
   6259 ****         0.7500 -30.0000 -14.5000 Du        
   6260 ****         0.7500 -29.7500 -15.0000 Du        
   6261 ****         0.7500 -29.7500 -14.7500 Du        
   6262 ****         0.7500 -29.7500 -14.5000 Du        
   6263 ****         0.7500 -29.7500 -14.2500 Du        
   6264 ****         0.7500 -29.5000 -15.0000 Du        
   6265 ****         0.7500 -29.5000 -14.7500 Du        
   6266 ****         0.7500 -29.5000 -14.5000 Du        
   6267 ****         0.7500 -29.5000 -14.2500 Du        
   6268 ****         0.7500 -29.2500 -14.7500 Du        
   6269 ****         0.7500 -29.2500 -14.5000 Du        
   6270 ****         0.7500 -29.2500 -14.2500 Du        
   6271 ****         0.7500 -29.0000 -14.7500 Du        
   6272 ****         0.7500 -29.0000 -14.5000 Du        
   6273 ****         0.7500 -29.0000 -14.2500 Du        
   6274 ****         0.7500 -28.7500 -14.5000 Du        
   6275 ****         0.7500 -28.7500 -14.2500 Du        
   6276 ****         0.7500 -28.5000 -14.5000 Du        
   6277 ****         0.7500 -28.5000 -14.2500 Du        
   6278 ****         0.7500 -28.2500 -14.5000 Du        
   6279 ****         0.7500 -28.2500 -14.2500 Du        
   6280 ****         0.7500 -28.0000 -14.5000 Du        
   6281 ****         0.7500 -28.0000 -14.2500 Du        
   6282 ****         0.7500 -27.7500 -14.5000 Du        
   6283 ****         0.7500 -27.7500 -14.2500 Du        
   6284 ****         0.7500 -27.5000 -14.5000 Du        
   6285 ****         0.7500 -27.5000 -14.2500 Du        
   6286 ****         0.7500 -27.2500 -14.5000 Du        
   6287 ****         0.7500 -27.2500 -14.2500 Du        
   6288 ****         0.7500 -27.0000 -14.5000 Du        
   6289 ****         0.7500 -27.0000 -14.2500 Du        
   6290 ****         0.7500 -27.0000 -14.0000 Du        
   6291 ****         0.7500 -26.7500 -14.5000 Du        
   6292 ****         0.7500 -26.7500 -14.2500 Du        
   6293 ****         0.7500 -26.7500 -14.0000 Du        
   6294 ****         0.7500 -26.5000 -14.5000 Du        
   6295 ****         0.7500 -26.5000 -14.2500 Du        
   6296 ****         0.7500 -26.5000 -14.0000 Du        
   6297 ****         0.7500 -26.5000 -13.7500 Du        
   6298 ****         0.7500 -26.2500 -14.5000 Du        
   6299 ****         0.7500 -26.2500 -14.2500 Du        
   6300 ****         0.7500 -26.2500 -14.0000 Du        
   6301 ****         0.7500 -26.2500 -13.7500 Du        
   6302 ****         0.7500 -26.0000 -14.5000 Du        
   6303 ****         0.7500 -26.0000 -14.2500 Du        
   6304 ****         0.7500 -26.0000 -14.0000 Du        
   6305 ****         0.7500 -26.0000 -13.7500 Du        
   6306 ****         0.7500 -26.0000 -13.5000 Du        
   6307 ****         0.7500 -26.0000 -13.2500 Du        
   6308 ****         0.7500 -25.7500 -14.5000 Du        
   6309 ****         0.7500 -25.7500 -14.2500 Du        
   6310 ****         0.7500 -25.7500 -14.0000 Du        
   6311 ****         0.7500 -25.7500 -13.7500 Du        
   6312 ****         0.7500 -25.7500 -13.5000 Du        
   6313 ****         0.7500 -25.7500 -13.2500 Du        
   6314 ****         0.7500 -25.7500 -13.0000 Du        
   6315 ****         0.7500 -25.5000 -14.5000 Du        
   6316 ****         0.7500 -25.5000 -14.2500 Du        
   6317 ****         0.7500 -25.5000 -14.0000 Du        
   6318 ****         0.7500 -25.5000 -13.7500 Du        
   6319 ****         0.7500 -25.5000 -13.5000 Du        
   6320 ****         0.7500 -25.5000 -13.2500 Du        
   6321 ****         0.7500 -25.5000 -13.0000 Du        
   6322 ****         0.7500 -25.5000 -12.7500 Du        
   6323 ****         0.7500 -25.5000 -12.5000 Du        
   6324 ****         0.7500 -25.2500 -14.5000 Du        
   6325 ****         0.7500 -25.2500 -14.2500 Du        
   6326 ****         0.7500 -25.2500 -14.0000 Du        
   6327 ****         0.7500 -25.2500 -13.7500 Du        
   6328 ****         0.7500 -25.2500 -13.5000 Du        
   6329 ****         0.7500 -25.2500 -13.2500 Du        
   6330 ****         0.7500 -25.2500 -13.0000 Du        
   6331 ****         0.7500 -25.2500 -12.7500 Du        
   6332 ****         0.7500 -25.2500 -12.5000 Du        
   6333 ****         0.7500 -25.0000 -14.7500 Du        
   6334 ****         0.7500 -25.0000 -14.5000 Du        
   6335 ****         0.7500 -25.0000 -14.2500 Du        
   6336 ****         0.7500 -25.0000 -14.0000 Du        
   6337 ****         0.7500 -25.0000 -13.7500 Du        
   6338 ****         0.7500 -25.0000 -13.5000 Du        
   6339 ****         0.7500 -25.0000 -13.2500 Du        
   6340 ****         0.7500 -25.0000 -13.0000 Du        
   6341 ****         0.7500 -25.0000 -12.7500 Du        
   6342 ****         0.7500 -24.7500 -14.7500 Du        
   6343 ****         0.7500 -24.7500 -14.5000 Du        
   6344 ****         0.7500 -24.7500 -14.2500 Du        
   6345 ****         0.7500 -24.7500 -14.0000 Du        
   6346 ****         0.7500 -24.7500 -13.7500 Du        
   6347 ****         0.7500 -24.7500 -13.5000 Du        
   6348 ****         0.7500 -24.7500 -13.2500 Du        
   6349 ****         0.7500 -24.5000 -15.0000 Du        
   6350 ****         0.7500 -24.5000 -14.7500 Du        
   6351 ****         0.7500 -24.5000 -14.5000 Du        
   6352 ****         0.7500 -24.5000 -14.2500 Du        
   6353 ****         0.7500 -24.5000 -14.0000 Du        
   6354 ****         0.7500 -24.5000 -13.7500 Du        
   6355 ****         0.7500 -24.2500 -15.0000 Du        
   6356 ****         0.7500 -24.2500 -14.7500 Du        
   6357 ****         0.7500 -24.2500 -14.5000 Du        
   6358 ****         0.7500 -24.2500 -14.2500 Du        
   6359 ****         0.7500 -24.2500 -14.0000 Du        
   6360 ****         0.7500 -24.0000 -15.2500 Du        
   6361 ****         0.7500 -24.0000 -15.0000 Du        
   6362 ****         0.7500 -24.0000 -14.7500 Du        
   6363 ****         0.7500 -24.0000 -14.5000 Du        
   6364 ****         0.7500 -24.0000 -14.2500 Du        
   6365 ****         0.7500 -23.7500 -15.7500 Du        
   6366 ****         0.7500 -23.7500 -15.5000 Du        
   6367 ****         0.7500 -23.7500 -15.2500 Du        
   6368 ****         0.7500 -23.7500 -15.0000 Du        
   6369 ****         0.7500 -23.7500 -14.7500 Du        
   6370 ****         0.7500 -23.5000 -15.7500 Du        
   6371 ****         0.7500 -23.5000 -15.5000 Du        
   6372 ****         0.7500 -23.5000 -15.2500 Du        
   6373 ****         0.7500 -23.5000 -15.0000 Du        
   6374 ****         0.7500 -23.5000 -14.7500 Du        
   6375 ****         0.7500 -23.2500 -16.2500 Du        
   6376 ****         0.7500 -23.2500 -16.0000 Du        
   6377 ****         0.7500 -23.2500 -15.7500 Du        
   6378 ****         0.7500 -23.2500 -15.5000 Du        
   6379 ****         0.7500 -23.2500 -15.2500 Du        
   6380 ****         0.7500 -23.2500 -15.0000 Du        
   6381 ****         0.7500 -23.2500 -14.7500 Du        
   6382 ****         0.7500 -23.0000 -16.2500 Du        
   6383 ****         0.7500 -23.0000 -16.0000 Du        
   6384 ****         0.7500 -23.0000 -15.7500 Du        
   6385 ****         0.7500 -23.0000 -15.5000 Du        
   6386 ****         0.7500 -23.0000 -15.2500 Du        
   6387 ****         0.7500 -23.0000 -15.0000 Du        
   6388 ****         0.7500 -23.0000 -14.7500 Du        
   6389 ****         0.7500 -22.7500 -16.5000 Du        
   6390 ****         0.7500 -22.7500 -16.2500 Du        
   6391 ****         0.7500 -22.7500 -16.0000 Du        
   6392 ****         0.7500 -22.7500 -15.7500 Du        
   6393 ****         0.7500 -22.7500 -15.5000 Du        
   6394 ****         0.7500 -22.7500 -15.2500 Du        
   6395 ****         0.7500 -22.7500 -15.0000 Du        
   6396 ****         0.7500 -22.5000 -16.7500 Du        
   6397 ****         0.7500 -22.5000 -16.5000 Du        
   6398 ****         0.7500 -22.5000 -16.2500 Du        
   6399 ****         0.7500 -22.5000 -16.0000 Du        
   6400 ****         0.7500 -22.5000 -15.7500 Du        
   6401 ****         0.7500 -22.5000 -15.5000 Du        
   6402 ****         0.7500 -22.5000 -15.2500 Du        
   6403 ****         0.7500 -22.2500 -16.7500 Du        
   6404 ****         0.7500 -22.2500 -16.5000 Du        
   6405 ****         0.7500 -22.2500 -16.2500 Du        
   6406 ****         0.7500 -22.2500 -16.0000 Du        
   6407 ****         0.7500 -22.2500 -15.7500 Du        
   6408 ****         0.7500 -22.2500 -15.5000 Du        
   6409 ****         0.7500 -22.2500 -15.2500 Du        
   6410 ****         0.7500 -22.0000 -17.0000 Du        
   6411 ****         0.7500 -22.0000 -16.7500 Du        
   6412 ****         0.7500 -22.0000 -16.5000 Du        
   6413 ****         0.7500 -22.0000 -16.2500 Du        
   6414 ****         0.7500 -22.0000 -16.0000 Du        
   6415 ****         0.7500 -22.0000 -15.7500 Du        
   6416 ****         0.7500 -22.0000 -15.5000 Du        
   6417 ****         0.7500 -22.0000 -15.2500 Du        
   6418 ****         0.7500 -21.7500 -17.0000 Du        
   6419 ****         0.7500 -21.7500 -16.7500 Du        
   6420 ****         0.7500 -21.7500 -16.5000 Du        
   6421 ****         0.7500 -21.7500 -16.2500 Du        
   6422 ****         0.7500 -21.7500 -16.0000 Du        
   6423 ****         0.7500 -21.7500 -15.7500 Du        
   6424 ****         0.7500 -21.7500 -15.5000 Du        
   6425 ****         0.7500 -21.7500 -15.2500 Du        
   6426 ****         0.7500 -21.5000 -17.0000 Du        
   6427 ****         0.7500 -21.5000 -16.7500 Du        
   6428 ****         0.7500 -21.5000 -16.5000 Du        
   6429 ****         0.7500 -21.5000 -16.2500 Du        
   6430 ****         0.7500 -21.5000 -16.0000 Du        
   6431 ****         0.7500 -21.5000 -15.7500 Du        
   6432 ****         0.7500 -21.2500 -16.7500 Du        
   6433 ****         0.7500 -21.2500 -16.5000 Du        
   6434 ****         0.7500 -21.2500 -16.2500 Du        
   6435 ****         0.7500 -21.2500 -16.0000 Du        
   6436 ****         0.7500 -21.2500 -15.7500 Du        
   6437 ****         0.7500 -21.0000 -16.7500 Du        
   6438 ****         0.7500 -21.0000 -16.5000 Du        
   6439 ****         0.7500 -21.0000 -16.2500 Du        
   6440 ****         0.7500 -21.0000 -16.0000 Du        
   6441 ****         0.7500 -21.0000 -15.7500 Du        
   6442 ****         0.7500 -20.7500 -16.7500 Du        
   6443 ****         0.7500 -20.7500 -16.5000 Du        
   6444 ****         0.7500 -20.7500 -16.2500 Du        
   6445 ****         0.7500 -20.7500 -16.0000 Du        
   6446 ****         0.7500 -20.7500 -15.7500 Du        
   6447 ****         0.7500 -20.5000 -16.0000 Du        
   6448 ****         0.7500 -20.5000 -15.7500 Du        
   6449 ****         0.7500 -20.2500 -16.2500 Du        
   6450 ****         0.7500 -20.2500 -16.0000 Du        
   6451 ****         0.7500 -20.2500 -15.7500 Du        
   6452 ****         0.7500 -20.2500 -15.0000 Du        
   6453 ****         0.7500 -20.0000 -15.2500 Du        
   6454 ****         0.7500 -20.0000 -15.0000 Du        
   6455 ****         0.7500 -20.0000 -14.7500 Du        
   6456 ****         0.7500 -19.7500 -15.5000 Du        
   6457 ****         0.7500 -19.7500 -15.2500 Du        
   6458 ****         0.7500 -19.7500 -15.0000 Du        
   6459 ****         0.7500 -19.7500 -14.7500 Du        
   6460 ****         0.7500 -19.7500 -14.5000 Du        
   6461 ****         0.7500 -19.5000 -15.2500 Du        
   6462 ****         0.7500 -19.5000 -15.0000 Du        
   6463 ****         0.7500 -19.5000 -14.7500 Du        
   6464 ****         0.7500 -19.5000 -14.5000 Du        
   6465 ****         0.7500 -19.5000 -14.2500 Du        
   6466 ****         0.7500 -19.2500 -15.5000 Du        
   6467 ****         0.7500 -19.2500 -15.2500 Du        
   6468 ****         0.7500 -19.2500 -15.0000 Du        
   6469 ****         0.7500 -19.2500 -14.7500 Du        
   6470 ****         0.7500 -19.2500 -14.5000 Du        
   6471 ****         0.7500 -19.2500 -14.2500 Du        
   6472 ****         0.7500 -19.0000 -15.5000 Du        
   6473 ****         0.7500 -19.0000 -15.2500 Du        
   6474 ****         0.7500 -19.0000 -15.0000 Du        
   6475 ****         0.7500 -19.0000 -14.7500 Du        
   6476 ****         0.7500 -19.0000 -14.5000 Du        
   6477 ****         0.7500 -19.0000 -14.2500 Du        
   6478 ****         0.7500 -19.0000 -14.0000 Du        
   6479 ****         0.7500 -18.7500 -15.5000 Du        
   6480 ****         0.7500 -18.7500 -15.2500 Du        
   6481 ****         0.7500 -18.7500 -15.0000 Du        
   6482 ****         0.7500 -18.7500 -14.7500 Du        
   6483 ****         0.7500 -18.7500 -14.5000 Du        
   6484 ****         0.7500 -18.7500 -14.2500 Du        
   6485 ****         0.7500 -18.7500 -14.0000 Du        
   6486 ****         0.7500 -18.5000 -15.5000 Du        
   6487 ****         0.7500 -18.5000 -15.2500 Du        
   6488 ****         0.7500 -18.5000 -15.0000 Du        
   6489 ****         0.7500 -18.5000 -14.7500 Du        
   6490 ****         0.7500 -18.5000 -14.5000 Du        
   6491 ****         0.7500 -18.5000 -14.2500 Du        
   6492 ****         0.7500 -18.2500 -15.5000 Du        
   6493 ****         0.7500 -18.2500 -15.2500 Du        
   6494 ****         0.7500 -18.2500 -15.0000 Du        
   6495 ****         0.7500 -18.2500 -14.7500 Du        
   6496 ****         0.7500 -18.2500 -14.5000 Du        
   6497 ****         0.7500 -18.2500 -14.2500 Du        
   6498 ****         0.7500 -18.0000 -15.5000 Du        
   6499 ****         0.7500 -18.0000 -15.2500 Du        
   6500 ****         0.7500 -18.0000 -15.0000 Du        
   6501 ****         0.7500 -18.0000 -14.7500 Du        
   6502 ****         0.7500 -18.0000 -14.5000 Du        
   6503 ****         0.7500 -17.7500 -15.2500 Du        
   6504 ****         0.7500 -17.7500 -15.0000 Du        
   6505 ****         1.0000 -34.0000 -15.7500 Du        
   6506 ****         1.0000 -33.7500 -15.7500 Du        
   6507 ****         1.0000 -33.5000 -15.7500 Du        
   6508 ****         1.0000 -33.5000 -15.2500 Du        
   6509 ****         1.0000 -33.5000 -15.0000 Du        
   6510 ****         1.0000 -33.2500 -15.7500 Du        
   6511 ****         1.0000 -33.2500 -15.2500 Du        
   6512 ****         1.0000 -33.2500 -15.0000 Du        
   6513 ****         1.0000 -33.0000 -15.7500 Du        
   6514 ****         1.0000 -33.0000 -15.2500 Du        
   6515 ****         1.0000 -33.0000 -15.0000 Du        
   6516 ****         1.0000 -32.7500 -15.7500 Du        
   6517 ****         1.0000 -32.7500 -15.2500 Du        
   6518 ****         1.0000 -32.7500 -15.0000 Du        
   6519 ****         1.0000 -32.5000 -15.7500 Du        
   6520 ****         1.0000 -32.5000 -15.5000 Du        
   6521 ****         1.0000 -32.5000 -15.2500 Du        
   6522 ****         1.0000 -32.5000 -15.0000 Du        
   6523 ****         1.0000 -32.5000 -14.7500 Du        
   6524 ****         1.0000 -32.2500 -15.7500 Du        
   6525 ****         1.0000 -32.2500 -15.5000 Du        
   6526 ****         1.0000 -32.2500 -15.2500 Du        
   6527 ****         1.0000 -32.2500 -15.0000 Du        
   6528 ****         1.0000 -32.2500 -14.7500 Du        
   6529 ****         1.0000 -32.0000 -16.0000 Du        
   6530 ****         1.0000 -32.0000 -15.7500 Du        
   6531 ****         1.0000 -32.0000 -15.5000 Du        
   6532 ****         1.0000 -32.0000 -15.2500 Du        
   6533 ****         1.0000 -32.0000 -15.0000 Du        
   6534 ****         1.0000 -32.0000 -14.7500 Du        
   6535 ****         1.0000 -31.7500 -16.0000 Du        
   6536 ****         1.0000 -31.7500 -15.7500 Du        
   6537 ****         1.0000 -31.7500 -15.5000 Du        
   6538 ****         1.0000 -31.7500 -15.2500 Du        
   6539 ****         1.0000 -31.7500 -15.0000 Du        
   6540 ****         1.0000 -31.7500 -14.7500 Du        
   6541 ****         1.0000 -31.5000 -16.2500 Du        
   6542 ****         1.0000 -31.5000 -16.0000 Du        
   6543 ****         1.0000 -31.5000 -15.7500 Du        
   6544 ****         1.0000 -31.5000 -15.5000 Du        
   6545 ****         1.0000 -31.5000 -15.2500 Du        
   6546 ****         1.0000 -31.5000 -15.0000 Du        
   6547 ****         1.0000 -31.5000 -14.7500 Du        
   6548 ****         1.0000 -31.2500 -16.2500 Du        
   6549 ****         1.0000 -31.2500 -16.0000 Du        
   6550 ****         1.0000 -31.2500 -15.7500 Du        
   6551 ****         1.0000 -31.2500 -15.5000 Du        
   6552 ****         1.0000 -31.2500 -15.2500 Du        
   6553 ****         1.0000 -31.2500 -15.0000 Du        
   6554 ****         1.0000 -31.2500 -14.7500 Du        
   6555 ****         1.0000 -31.2500 -14.5000 Du        
   6556 ****         1.0000 -31.0000 -16.0000 Du        
   6557 ****         1.0000 -31.0000 -15.7500 Du        
   6558 ****         1.0000 -31.0000 -15.5000 Du        
   6559 ****         1.0000 -31.0000 -15.2500 Du        
   6560 ****         1.0000 -31.0000 -15.0000 Du        
   6561 ****         1.0000 -31.0000 -14.7500 Du        
   6562 ****         1.0000 -31.0000 -14.5000 Du        
   6563 ****         1.0000 -30.7500 -16.0000 Du        
   6564 ****         1.0000 -30.7500 -15.7500 Du        
   6565 ****         1.0000 -30.7500 -15.5000 Du        
   6566 ****         1.0000 -30.7500 -15.2500 Du        
   6567 ****         1.0000 -30.7500 -15.0000 Du        
   6568 ****         1.0000 -30.7500 -14.7500 Du        
   6569 ****         1.0000 -30.7500 -14.5000 Du        
   6570 ****         1.0000 -30.5000 -15.7500 Du        
   6571 ****         1.0000 -30.5000 -15.5000 Du        
   6572 ****         1.0000 -30.5000 -15.2500 Du        
   6573 ****         1.0000 -30.5000 -15.0000 Du        
   6574 ****         1.0000 -30.5000 -14.7500 Du        
   6575 ****         1.0000 -30.5000 -14.5000 Du        
   6576 ****         1.0000 -30.2500 -15.5000 Du        
   6577 ****         1.0000 -30.2500 -15.2500 Du        
   6578 ****         1.0000 -30.2500 -15.0000 Du        
   6579 ****         1.0000 -30.2500 -14.7500 Du        
   6580 ****         1.0000 -30.2500 -14.5000 Du        
   6581 ****         1.0000 -30.2500 -14.2500 Du        
   6582 ****         1.0000 -30.0000 -15.2500 Du        
   6583 ****         1.0000 -30.0000 -15.0000 Du        
   6584 ****         1.0000 -30.0000 -14.7500 Du        
   6585 ****         1.0000 -30.0000 -14.5000 Du        
   6586 ****         1.0000 -30.0000 -14.2500 Du        
   6587 ****         1.0000 -29.7500 -15.0000 Du        
   6588 ****         1.0000 -29.7500 -14.7500 Du        
   6589 ****         1.0000 -29.7500 -14.5000 Du        
   6590 ****         1.0000 -29.7500 -14.2500 Du        
   6591 ****         1.0000 -29.5000 -15.0000 Du        
   6592 ****         1.0000 -29.5000 -14.7500 Du        
   6593 ****         1.0000 -29.5000 -14.5000 Du        
   6594 ****         1.0000 -29.5000 -14.2500 Du        
   6595 ****         1.0000 -29.2500 -15.0000 Du        
   6596 ****         1.0000 -29.2500 -14.7500 Du        
   6597 ****         1.0000 -29.2500 -14.5000 Du        
   6598 ****         1.0000 -29.2500 -14.2500 Du        
   6599 ****         1.0000 -29.0000 -14.7500 Du        
   6600 ****         1.0000 -29.0000 -14.5000 Du        
   6601 ****         1.0000 -29.0000 -14.2500 Du        
   6602 ****         1.0000 -28.7500 -14.7500 Du        
   6603 ****         1.0000 -28.7500 -14.5000 Du        
   6604 ****         1.0000 -28.7500 -14.2500 Du        
   6605 ****         1.0000 -28.5000 -14.5000 Du        
   6606 ****         1.0000 -28.5000 -14.2500 Du        
   6607 ****         1.0000 -28.2500 -14.5000 Du        
   6608 ****         1.0000 -28.2500 -14.2500 Du        
   6609 ****         1.0000 -28.0000 -14.5000 Du        
   6610 ****         1.0000 -28.0000 -14.2500 Du        
   6611 ****         1.0000 -27.7500 -14.5000 Du        
   6612 ****         1.0000 -27.7500 -14.2500 Du        
   6613 ****         1.0000 -27.5000 -14.5000 Du        
   6614 ****         1.0000 -27.5000 -14.2500 Du        
   6615 ****         1.0000 -27.2500 -14.2500 Du        
   6616 ****         1.0000 -27.0000 -14.5000 Du        
   6617 ****         1.0000 -27.0000 -14.2500 Du        
   6618 ****         1.0000 -26.7500 -14.5000 Du        
   6619 ****         1.0000 -26.7500 -14.2500 Du        
   6620 ****         1.0000 -26.5000 -14.5000 Du        
   6621 ****         1.0000 -26.5000 -14.2500 Du        
   6622 ****         1.0000 -26.5000 -14.0000 Du        
   6623 ****         1.0000 -26.2500 -14.5000 Du        
   6624 ****         1.0000 -26.2500 -14.2500 Du        
   6625 ****         1.0000 -26.2500 -14.0000 Du        
   6626 ****         1.0000 -26.2500 -13.7500 Du        
   6627 ****         1.0000 -26.0000 -14.5000 Du        
   6628 ****         1.0000 -26.0000 -14.2500 Du        
   6629 ****         1.0000 -26.0000 -14.0000 Du        
   6630 ****         1.0000 -26.0000 -13.7500 Du        
   6631 ****         1.0000 -26.0000 -13.5000 Du        
   6632 ****         1.0000 -25.7500 -14.5000 Du        
   6633 ****         1.0000 -25.7500 -14.2500 Du        
   6634 ****         1.0000 -25.7500 -14.0000 Du        
   6635 ****         1.0000 -25.7500 -13.7500 Du        
   6636 ****         1.0000 -25.7500 -13.5000 Du        
   6637 ****         1.0000 -25.7500 -13.2500 Du        
   6638 ****         1.0000 -25.5000 -14.5000 Du        
   6639 ****         1.0000 -25.5000 -14.2500 Du        
   6640 ****         1.0000 -25.5000 -14.0000 Du        
   6641 ****         1.0000 -25.5000 -13.7500 Du        
   6642 ****         1.0000 -25.5000 -13.5000 Du        
   6643 ****         1.0000 -25.5000 -13.2500 Du        
   6644 ****         1.0000 -25.5000 -13.0000 Du        
   6645 ****         1.0000 -25.2500 -14.7500 Du        
   6646 ****         1.0000 -25.2500 -14.5000 Du        
   6647 ****         1.0000 -25.2500 -14.2500 Du        
   6648 ****         1.0000 -25.2500 -14.0000 Du        
   6649 ****         1.0000 -25.2500 -13.7500 Du        
   6650 ****         1.0000 -25.2500 -13.5000 Du        
   6651 ****         1.0000 -25.2500 -13.2500 Du        
   6652 ****         1.0000 -25.2500 -13.0000 Du        
   6653 ****         1.0000 -25.2500 -12.7500 Du        
   6654 ****         1.0000 -25.0000 -14.7500 Du        
   6655 ****         1.0000 -25.0000 -14.5000 Du        
   6656 ****         1.0000 -25.0000 -14.2500 Du        
   6657 ****         1.0000 -25.0000 -14.0000 Du        
   6658 ****         1.0000 -25.0000 -13.7500 Du        
   6659 ****         1.0000 -25.0000 -13.5000 Du        
   6660 ****         1.0000 -25.0000 -13.2500 Du        
   6661 ****         1.0000 -25.0000 -13.0000 Du        
   6662 ****         1.0000 -24.7500 -14.7500 Du        
   6663 ****         1.0000 -24.7500 -14.5000 Du        
   6664 ****         1.0000 -24.7500 -14.2500 Du        
   6665 ****         1.0000 -24.7500 -14.0000 Du        
   6666 ****         1.0000 -24.7500 -13.7500 Du        
   6667 ****         1.0000 -24.7500 -13.5000 Du        
   6668 ****         1.0000 -24.5000 -15.0000 Du        
   6669 ****         1.0000 -24.5000 -14.7500 Du        
   6670 ****         1.0000 -24.5000 -14.5000 Du        
   6671 ****         1.0000 -24.5000 -14.2500 Du        
   6672 ****         1.0000 -24.5000 -14.0000 Du        
   6673 ****         1.0000 -24.5000 -13.7500 Du        
   6674 ****         1.0000 -24.2500 -15.0000 Du        
   6675 ****         1.0000 -24.2500 -14.7500 Du        
   6676 ****         1.0000 -24.2500 -14.5000 Du        
   6677 ****         1.0000 -24.2500 -14.2500 Du        
   6678 ****         1.0000 -24.2500 -14.0000 Du        
   6679 ****         1.0000 -24.0000 -15.2500 Du        
   6680 ****         1.0000 -24.0000 -15.0000 Du        
   6681 ****         1.0000 -24.0000 -14.7500 Du        
   6682 ****         1.0000 -23.7500 -15.7500 Du        
   6683 ****         1.0000 -23.7500 -15.5000 Du        
   6684 ****         1.0000 -23.7500 -15.2500 Du        
   6685 ****         1.0000 -23.7500 -15.0000 Du        
   6686 ****         1.0000 -23.7500 -14.7500 Du        
   6687 ****         1.0000 -23.5000 -15.7500 Du        
   6688 ****         1.0000 -23.5000 -15.5000 Du        
   6689 ****         1.0000 -23.5000 -15.2500 Du        
   6690 ****         1.0000 -23.5000 -15.0000 Du        
   6691 ****         1.0000 -23.5000 -14.7500 Du        
   6692 ****         1.0000 -23.2500 -16.2500 Du        
   6693 ****         1.0000 -23.2500 -16.0000 Du        
   6694 ****         1.0000 -23.2500 -15.7500 Du        
   6695 ****         1.0000 -23.2500 -15.5000 Du        
   6696 ****         1.0000 -23.2500 -15.2500 Du        
   6697 ****         1.0000 -23.2500 -15.0000 Du        
   6698 ****         1.0000 -23.2500 -14.7500 Du        
   6699 ****         1.0000 -23.0000 -16.5000 Du        
   6700 ****         1.0000 -23.0000 -16.2500 Du        
   6701 ****         1.0000 -23.0000 -16.0000 Du        
   6702 ****         1.0000 -23.0000 -15.7500 Du        
   6703 ****         1.0000 -23.0000 -15.5000 Du        
   6704 ****         1.0000 -23.0000 -15.2500 Du        
   6705 ****         1.0000 -23.0000 -15.0000 Du        
   6706 ****         1.0000 -23.0000 -14.7500 Du        
   6707 ****         1.0000 -22.7500 -16.7500 Du        
   6708 ****         1.0000 -22.7500 -16.5000 Du        
   6709 ****         1.0000 -22.7500 -16.2500 Du        
   6710 ****         1.0000 -22.7500 -16.0000 Du        
   6711 ****         1.0000 -22.7500 -15.7500 Du        
   6712 ****         1.0000 -22.7500 -15.5000 Du        
   6713 ****         1.0000 -22.7500 -15.2500 Du        
   6714 ****         1.0000 -22.7500 -15.0000 Du        
   6715 ****         1.0000 -22.5000 -16.7500 Du        
   6716 ****         1.0000 -22.5000 -16.5000 Du        
   6717 ****         1.0000 -22.5000 -16.2500 Du        
   6718 ****         1.0000 -22.5000 -16.0000 Du        
   6719 ****         1.0000 -22.5000 -15.7500 Du        
   6720 ****         1.0000 -22.5000 -15.5000 Du        
   6721 ****         1.0000 -22.5000 -15.2500 Du        
   6722 ****         1.0000 -22.2500 -17.0000 Du        
   6723 ****         1.0000 -22.2500 -16.7500 Du        
   6724 ****         1.0000 -22.2500 -16.5000 Du        
   6725 ****         1.0000 -22.2500 -16.2500 Du        
   6726 ****         1.0000 -22.2500 -16.0000 Du        
   6727 ****         1.0000 -22.2500 -15.7500 Du        
   6728 ****         1.0000 -22.2500 -15.5000 Du        
   6729 ****         1.0000 -22.2500 -15.2500 Du        
   6730 ****         1.0000 -22.0000 -17.0000 Du        
   6731 ****         1.0000 -22.0000 -16.7500 Du        
   6732 ****         1.0000 -22.0000 -16.5000 Du        
   6733 ****         1.0000 -22.0000 -16.2500 Du        
   6734 ****         1.0000 -22.0000 -16.0000 Du        
   6735 ****         1.0000 -22.0000 -15.7500 Du        
   6736 ****         1.0000 -22.0000 -15.5000 Du        
   6737 ****         1.0000 -22.0000 -15.2500 Du        
   6738 ****         1.0000 -21.7500 -17.0000 Du        
   6739 ****         1.0000 -21.7500 -16.7500 Du        
   6740 ****         1.0000 -21.7500 -16.5000 Du        
   6741 ****         1.0000 -21.7500 -16.2500 Du        
   6742 ****         1.0000 -21.7500 -16.0000 Du        
   6743 ****         1.0000 -21.7500 -15.7500 Du        
   6744 ****         1.0000 -21.7500 -15.5000 Du        
   6745 ****         1.0000 -21.7500 -15.2500 Du        
   6746 ****         1.0000 -21.5000 -17.0000 Du        
   6747 ****         1.0000 -21.5000 -16.7500 Du        
   6748 ****         1.0000 -21.5000 -16.5000 Du        
   6749 ****         1.0000 -21.5000 -16.2500 Du        
   6750 ****         1.0000 -21.5000 -16.0000 Du        
   6751 ****         1.0000 -21.5000 -15.7500 Du        
   6752 ****         1.0000 -21.2500 -16.7500 Du        
   6753 ****         1.0000 -21.2500 -16.5000 Du        
   6754 ****         1.0000 -21.2500 -16.2500 Du        
   6755 ****         1.0000 -21.2500 -16.0000 Du        
   6756 ****         1.0000 -21.0000 -16.7500 Du        
   6757 ****         1.0000 -21.0000 -16.5000 Du        
   6758 ****         1.0000 -21.0000 -16.2500 Du        
   6759 ****         1.0000 -21.0000 -16.0000 Du        
   6760 ****         1.0000 -20.7500 -16.5000 Du        
   6761 ****         1.0000 -20.2500 -16.2500 Du        
   6762 ****         1.0000 -20.2500 -15.7500 Du        
   6763 ****         1.0000 -20.0000 -15.0000 Du        
   6764 ****         1.0000 -20.0000 -14.7500 Du        
   6765 ****         1.0000 -19.7500 -15.2500 Du        
   6766 ****         1.0000 -19.7500 -15.0000 Du        
   6767 ****         1.0000 -19.7500 -14.7500 Du        
   6768 ****         1.0000 -19.7500 -14.5000 Du        
   6769 ****         1.0000 -19.5000 -15.2500 Du        
   6770 ****         1.0000 -19.5000 -15.0000 Du        
   6771 ****         1.0000 -19.5000 -14.7500 Du        
   6772 ****         1.0000 -19.5000 -14.5000 Du        
   6773 ****         1.0000 -19.5000 -14.2500 Du        
   6774 ****         1.0000 -19.2500 -15.5000 Du        
   6775 ****         1.0000 -19.2500 -15.2500 Du        
   6776 ****         1.0000 -19.2500 -15.0000 Du        
   6777 ****         1.0000 -19.2500 -14.7500 Du        
   6778 ****         1.0000 -19.2500 -14.5000 Du        
   6779 ****         1.0000 -19.2500 -14.2500 Du        
   6780 ****         1.0000 -19.2500 -14.0000 Du        
   6781 ****         1.0000 -19.0000 -15.5000 Du        
   6782 ****         1.0000 -19.0000 -15.2500 Du        
   6783 ****         1.0000 -19.0000 -15.0000 Du        
   6784 ****         1.0000 -19.0000 -14.7500 Du        
   6785 ****         1.0000 -19.0000 -14.5000 Du        
   6786 ****         1.0000 -19.0000 -14.2500 Du        
   6787 ****         1.0000 -19.0000 -14.0000 Du        
   6788 ****         1.0000 -18.7500 -15.5000 Du        
   6789 ****         1.0000 -18.7500 -15.2500 Du        
   6790 ****         1.0000 -18.7500 -15.0000 Du        
   6791 ****         1.0000 -18.7500 -14.7500 Du        
   6792 ****         1.0000 -18.7500 -14.5000 Du        
   6793 ****         1.0000 -18.7500 -14.2500 Du        
   6794 ****         1.0000 -18.7500 -14.0000 Du        
   6795 ****         1.0000 -18.5000 -15.5000 Du        
   6796 ****         1.0000 -18.5000 -15.2500 Du        
   6797 ****         1.0000 -18.5000 -15.0000 Du        
   6798 ****         1.0000 -18.5000 -14.7500 Du        
   6799 ****         1.0000 -18.5000 -14.5000 Du        
   6800 ****         1.0000 -18.5000 -14.2500 Du        
   6801 ****         1.0000 -18.5000 -14.0000 Du        
   6802 ****         1.0000 -18.2500 -15.5000 Du        
   6803 ****         1.0000 -18.2500 -15.2500 Du        
   6804 ****         1.0000 -18.2500 -15.0000 Du        
   6805 ****         1.0000 -18.2500 -14.7500 Du        
   6806 ****         1.0000 -18.2500 -14.5000 Du        
   6807 ****         1.0000 -18.2500 -14.2500 Du        
   6808 ****         1.0000 -18.0000 -15.2500 Du        
   6809 ****         1.0000 -18.0000 -15.0000 Du        
   6810 ****         1.0000 -18.0000 -14.7500 Du        
   6811 ****         1.0000 -18.0000 -14.5000 Du        
   6812 ****         1.2500 -33.5000 -15.2500 Du        
   6813 ****         1.2500 -33.5000 -15.0000 Du        
   6814 ****         1.2500 -33.5000 -14.7500 Du        
   6815 ****         1.2500 -33.2500 -15.2500 Du        
   6816 ****         1.2500 -33.2500 -15.0000 Du        
   6817 ****         1.2500 -33.0000 -15.0000 Du        
   6818 ****         1.2500 -33.0000 -14.7500 Du        
   6819 ****         1.2500 -32.7500 -14.7500 Du        
   6820 ****         1.2500 -32.5000 -15.0000 Du        
   6821 ****         1.2500 -32.5000 -14.7500 Du        
   6822 ****         1.2500 -32.2500 -15.2500 Du        
   6823 ****         1.2500 -32.2500 -15.0000 Du        
   6824 ****         1.2500 -32.2500 -14.7500 Du        
   6825 ****         1.2500 -32.0000 -15.2500 Du        
   6826 ****         1.2500 -32.0000 -15.0000 Du        
   6827 ****         1.2500 -32.0000 -14.7500 Du        
   6828 ****         1.2500 -31.7500 -15.5000 Du        
   6829 ****         1.2500 -31.7500 -15.2500 Du        
   6830 ****         1.2500 -31.7500 -15.0000 Du        
   6831 ****         1.2500 -31.7500 -14.7500 Du        
   6832 ****         1.2500 -31.5000 -15.7500 Du        
   6833 ****         1.2500 -31.5000 -15.5000 Du        
   6834 ****         1.2500 -31.5000 -15.2500 Du        
   6835 ****         1.2500 -31.5000 -15.0000 Du        
   6836 ****         1.2500 -31.5000 -14.7500 Du        
   6837 ****         1.2500 -31.2500 -16.0000 Du        
   6838 ****         1.2500 -31.2500 -15.7500 Du        
   6839 ****         1.2500 -31.2500 -15.5000 Du        
   6840 ****         1.2500 -31.2500 -15.2500 Du        
   6841 ****         1.2500 -31.2500 -15.0000 Du        
   6842 ****         1.2500 -31.2500 -14.7500 Du        
   6843 ****         1.2500 -31.0000 -16.0000 Du        
   6844 ****         1.2500 -31.0000 -15.7500 Du        
   6845 ****         1.2500 -31.0000 -15.5000 Du        
   6846 ****         1.2500 -31.0000 -15.2500 Du        
   6847 ****         1.2500 -31.0000 -15.0000 Du        
   6848 ****         1.2500 -31.0000 -14.7500 Du        
   6849 ****         1.2500 -31.0000 -14.5000 Du        
   6850 ****         1.2500 -30.7500 -15.7500 Du        
   6851 ****         1.2500 -30.7500 -15.5000 Du        
   6852 ****         1.2500 -30.7500 -15.2500 Du        
   6853 ****         1.2500 -30.7500 -15.0000 Du        
   6854 ****         1.2500 -30.7500 -14.7500 Du        
   6855 ****         1.2500 -30.7500 -14.5000 Du        
   6856 ****         1.2500 -30.5000 -15.5000 Du        
   6857 ****         1.2500 -30.5000 -15.2500 Du        
   6858 ****         1.2500 -30.5000 -15.0000 Du        
   6859 ****         1.2500 -30.5000 -14.7500 Du        
   6860 ****         1.2500 -30.5000 -14.5000 Du        
   6861 ****         1.2500 -30.2500 -15.5000 Du        
   6862 ****         1.2500 -30.2500 -15.2500 Du        
   6863 ****         1.2500 -30.2500 -15.0000 Du        
   6864 ****         1.2500 -30.2500 -14.7500 Du        
   6865 ****         1.2500 -30.2500 -14.5000 Du        
   6866 ****         1.2500 -30.2500 -14.2500 Du        
   6867 ****         1.2500 -30.0000 -15.2500 Du        
   6868 ****         1.2500 -30.0000 -15.0000 Du        
   6869 ****         1.2500 -30.0000 -14.7500 Du        
   6870 ****         1.2500 -30.0000 -14.5000 Du        
   6871 ****         1.2500 -30.0000 -14.2500 Du        
   6872 ****         1.2500 -29.7500 -15.2500 Du        
   6873 ****         1.2500 -29.7500 -15.0000 Du        
   6874 ****         1.2500 -29.7500 -14.7500 Du        
   6875 ****         1.2500 -29.7500 -14.5000 Du        
   6876 ****         1.2500 -29.7500 -14.2500 Du        
   6877 ****         1.2500 -29.5000 -15.0000 Du        
   6878 ****         1.2500 -29.5000 -14.7500 Du        
   6879 ****         1.2500 -29.5000 -14.5000 Du        
   6880 ****         1.2500 -29.5000 -14.2500 Du        
   6881 ****         1.2500 -29.2500 -14.7500 Du        
   6882 ****         1.2500 -29.2500 -14.5000 Du        
   6883 ****         1.2500 -29.2500 -14.2500 Du        
   6884 ****         1.2500 -29.0000 -14.7500 Du        
   6885 ****         1.2500 -29.0000 -14.5000 Du        
   6886 ****         1.2500 -29.0000 -14.2500 Du        
   6887 ****         1.2500 -28.7500 -14.7500 Du        
   6888 ****         1.2500 -28.7500 -14.5000 Du        
   6889 ****         1.2500 -28.7500 -14.2500 Du        
   6890 ****         1.2500 -28.5000 -14.5000 Du        
   6891 ****         1.2500 -28.5000 -14.2500 Du        
   6892 ****         1.2500 -28.2500 -14.5000 Du        
   6893 ****         1.2500 -28.2500 -14.2500 Du        
   6894 ****         1.2500 -28.0000 -14.5000 Du        
   6895 ****         1.2500 -26.7500 -14.2500 Du        
   6896 ****         1.2500 -26.5000 -14.5000 Du        
   6897 ****         1.2500 -26.5000 -14.2500 Du        
   6898 ****         1.2500 -26.5000 -14.0000 Du        
   6899 ****         1.2500 -26.2500 -14.5000 Du        
   6900 ****         1.2500 -26.2500 -14.2500 Du        
   6901 ****         1.2500 -26.2500 -14.0000 Du        
   6902 ****         1.2500 -26.0000 -14.5000 Du        
   6903 ****         1.2500 -26.0000 -14.2500 Du        
   6904 ****         1.2500 -26.0000 -14.0000 Du        
   6905 ****         1.2500 -26.0000 -13.7500 Du        
   6906 ****         1.2500 -25.7500 -14.5000 Du        
   6907 ****         1.2500 -25.7500 -14.2500 Du        
   6908 ****         1.2500 -25.7500 -14.0000 Du        
   6909 ****         1.2500 -25.7500 -13.7500 Du        
   6910 ****         1.2500 -25.7500 -13.5000 Du        
   6911 ****         1.2500 -25.5000 -14.5000 Du        
   6912 ****         1.2500 -25.5000 -14.2500 Du        
   6913 ****         1.2500 -25.5000 -14.0000 Du        
   6914 ****         1.2500 -25.5000 -13.7500 Du        
   6915 ****         1.2500 -25.5000 -13.5000 Du        
   6916 ****         1.2500 -25.5000 -13.2500 Du        
   6917 ****         1.2500 -25.2500 -14.7500 Du        
   6918 ****         1.2500 -25.2500 -14.5000 Du        
   6919 ****         1.2500 -25.2500 -14.2500 Du        
   6920 ****         1.2500 -25.2500 -14.0000 Du        
   6921 ****         1.2500 -25.2500 -13.7500 Du        
   6922 ****         1.2500 -25.2500 -13.5000 Du        
   6923 ****         1.2500 -25.2500 -13.2500 Du        
   6924 ****         1.2500 -25.2500 -13.0000 Du        
   6925 ****         1.2500 -25.0000 -14.7500 Du        
   6926 ****         1.2500 -25.0000 -14.5000 Du        
   6927 ****         1.2500 -25.0000 -14.2500 Du        
   6928 ****         1.2500 -25.0000 -14.0000 Du        
   6929 ****         1.2500 -25.0000 -13.7500 Du        
   6930 ****         1.2500 -25.0000 -13.5000 Du        
   6931 ****         1.2500 -25.0000 -13.2500 Du        
   6932 ****         1.2500 -24.7500 -14.7500 Du        
   6933 ****         1.2500 -24.7500 -14.5000 Du        
   6934 ****         1.2500 -24.7500 -14.2500 Du        
   6935 ****         1.2500 -24.7500 -14.0000 Du        
   6936 ****         1.2500 -24.7500 -13.7500 Du        
   6937 ****         1.2500 -24.7500 -13.5000 Du        
   6938 ****         1.2500 -24.5000 -14.7500 Du        
   6939 ****         1.2500 -24.5000 -14.5000 Du        
   6940 ****         1.2500 -24.5000 -14.2500 Du        
   6941 ****         1.2500 -24.5000 -14.0000 Du        
   6942 ****         1.2500 -24.2500 -15.0000 Du        
   6943 ****         1.2500 -24.2500 -14.7500 Du        
   6944 ****         1.2500 -24.2500 -14.5000 Du        
   6945 ****         1.2500 -24.2500 -14.2500 Du        
   6946 ****         1.2500 -24.0000 -15.2500 Du        
   6947 ****         1.2500 -24.0000 -15.0000 Du        
   6948 ****         1.2500 -24.0000 -14.7500 Du        
   6949 ****         1.2500 -23.7500 -15.5000 Du        
   6950 ****         1.2500 -23.7500 -15.2500 Du        
   6951 ****         1.2500 -23.7500 -15.0000 Du        
   6952 ****         1.2500 -23.5000 -15.7500 Du        
   6953 ****         1.2500 -23.5000 -15.5000 Du        
   6954 ****         1.2500 -23.5000 -15.2500 Du        
   6955 ****         1.2500 -23.5000 -15.0000 Du        
   6956 ****         1.2500 -23.5000 -14.7500 Du        
   6957 ****         1.2500 -23.2500 -16.2500 Du        
   6958 ****         1.2500 -23.2500 -16.0000 Du        
   6959 ****         1.2500 -23.2500 -15.7500 Du        
   6960 ****         1.2500 -23.2500 -15.5000 Du        
   6961 ****         1.2500 -23.2500 -15.2500 Du        
   6962 ****         1.2500 -23.2500 -15.0000 Du        
   6963 ****         1.2500 -23.0000 -16.5000 Du        
   6964 ****         1.2500 -23.0000 -16.2500 Du        
   6965 ****         1.2500 -23.0000 -16.0000 Du        
   6966 ****         1.2500 -23.0000 -15.7500 Du        
   6967 ****         1.2500 -23.0000 -15.5000 Du        
   6968 ****         1.2500 -23.0000 -15.2500 Du        
   6969 ****         1.2500 -23.0000 -15.0000 Du        
   6970 ****         1.2500 -22.7500 -16.7500 Du        
   6971 ****         1.2500 -22.7500 -16.5000 Du        
   6972 ****         1.2500 -22.7500 -16.2500 Du        
   6973 ****         1.2500 -22.7500 -16.0000 Du        
   6974 ****         1.2500 -22.7500 -15.7500 Du        
   6975 ****         1.2500 -22.7500 -15.5000 Du        
   6976 ****         1.2500 -22.7500 -15.2500 Du        
   6977 ****         1.2500 -22.7500 -15.0000 Du        
   6978 ****         1.2500 -22.5000 -17.0000 Du        
   6979 ****         1.2500 -22.5000 -16.7500 Du        
   6980 ****         1.2500 -22.5000 -16.5000 Du        
   6981 ****         1.2500 -22.5000 -16.2500 Du        
   6982 ****         1.2500 -22.5000 -16.0000 Du        
   6983 ****         1.2500 -22.5000 -15.7500 Du        
   6984 ****         1.2500 -22.5000 -15.5000 Du        
   6985 ****         1.2500 -22.5000 -15.2500 Du        
   6986 ****         1.2500 -22.2500 -17.0000 Du        
   6987 ****         1.2500 -22.2500 -16.7500 Du        
   6988 ****         1.2500 -22.2500 -16.5000 Du        
   6989 ****         1.2500 -22.2500 -16.2500 Du        
   6990 ****         1.2500 -22.2500 -16.0000 Du        
   6991 ****         1.2500 -22.2500 -15.7500 Du        
   6992 ****         1.2500 -22.2500 -15.5000 Du        
   6993 ****         1.2500 -22.2500 -15.2500 Du        
   6994 ****         1.2500 -22.0000 -17.0000 Du        
   6995 ****         1.2500 -22.0000 -16.7500 Du        
   6996 ****         1.2500 -22.0000 -16.5000 Du        
   6997 ****         1.2500 -22.0000 -16.2500 Du        
   6998 ****         1.2500 -22.0000 -16.0000 Du        
   6999 ****         1.2500 -22.0000 -15.7500 Du        
   7000 ****         1.2500 -22.0000 -15.5000 Du        
   7001 ****         1.2500 -22.0000 -15.2500 Du        
   7002 ****         1.2500 -21.7500 -17.0000 Du        
   7003 ****         1.2500 -21.7500 -16.7500 Du        
   7004 ****         1.2500 -21.7500 -16.5000 Du        
   7005 ****         1.2500 -21.7500 -16.2500 Du        
   7006 ****         1.2500 -21.7500 -16.0000 Du        
   7007 ****         1.2500 -21.7500 -15.7500 Du        
   7008 ****         1.2500 -21.7500 -15.5000 Du        
   7009 ****         1.2500 -21.7500 -15.2500 Du        
   7010 ****         1.2500 -21.5000 -16.5000 Du        
   7011 ****         1.2500 -21.5000 -16.2500 Du        
   7012 ****         1.2500 -21.5000 -16.0000 Du        
   7013 ****         1.2500 -21.5000 -15.7500 Du        
   7014 ****         1.2500 -21.2500 -16.7500 Du        
   7015 ****         1.2500 -21.2500 -16.5000 Du        
   7016 ****         1.2500 -21.2500 -16.0000 Du        
   7017 ****         1.2500 -21.0000 -16.0000 Du        
   7018 ****         1.2500 -20.5000 -16.0000 Du        
   7019 ****         1.2500 -20.0000 -14.5000 Du        
   7020 ****         1.2500 -19.7500 -14.7500 Du        
   7021 ****         1.2500 -19.7500 -14.5000 Du        
   7022 ****         1.2500 -19.5000 -15.2500 Du        
   7023 ****         1.2500 -19.5000 -15.0000 Du        
   7024 ****         1.2500 -19.5000 -14.7500 Du        
   7025 ****         1.2500 -19.5000 -14.5000 Du        
   7026 ****         1.2500 -19.5000 -14.2500 Du        
   7027 ****         1.2500 -19.5000 -14.0000 Du        
   7028 ****         1.2500 -19.2500 -15.2500 Du        
   7029 ****         1.2500 -19.2500 -15.0000 Du        
   7030 ****         1.2500 -19.2500 -14.7500 Du        
   7031 ****         1.2500 -19.2500 -14.5000 Du        
   7032 ****         1.2500 -19.2500 -14.2500 Du        
   7033 ****         1.2500 -19.2500 -14.0000 Du        
   7034 ****         1.2500 -19.0000 -15.5000 Du        
   7035 ****         1.2500 -19.0000 -15.2500 Du        
   7036 ****         1.2500 -19.0000 -15.0000 Du        
   7037 ****         1.2500 -19.0000 -14.7500 Du        
   7038 ****         1.2500 -19.0000 -14.5000 Du        
   7039 ****         1.2500 -19.0000 -14.2500 Du        
   7040 ****         1.2500 -19.0000 -14.0000 Du        
   7041 ****         1.2500 -19.0000 -13.7500 Du        
   7042 ****         1.2500 -18.7500 -15.5000 Du        
   7043 ****         1.2500 -18.7500 -15.2500 Du        
   7044 ****         1.2500 -18.7500 -15.0000 Du        
   7045 ****         1.2500 -18.7500 -14.7500 Du        
   7046 ****         1.2500 -18.7500 -14.5000 Du        
   7047 ****         1.2500 -18.7500 -14.2500 Du        
   7048 ****         1.2500 -18.7500 -14.0000 Du        
   7049 ****         1.2500 -18.7500 -13.7500 Du        
   7050 ****         1.2500 -18.5000 -15.2500 Du        
   7051 ****         1.2500 -18.5000 -15.0000 Du        
   7052 ****         1.2500 -18.5000 -14.7500 Du        
   7053 ****         1.2500 -18.5000 -14.5000 Du        
   7054 ****         1.2500 -18.5000 -14.2500 Du        
   7055 ****         1.2500 -18.5000 -14.0000 Du        
   7056 ****         1.2500 -18.2500 -15.2500 Du        
   7057 ****         1.2500 -18.2500 -15.0000 Du        
   7058 ****         1.2500 -18.2500 -14.7500 Du        
   7059 ****         1.2500 -18.2500 -14.5000 Du        
   7060 ****         1.2500 -18.2500 -14.2500 Du        
   7061 ****         1.2500 -18.0000 -15.0000 Du        
   7062 ****         1.2500 -18.0000 -14.7500 Du        
   7063 ****         1.5000 -34.0000 -15.0000 Du        
   7064 ****         1.5000 -34.0000 -14.7500 Du        
   7065 ****         1.5000 -33.7500 -15.0000 Du        
   7066 ****         1.5000 -33.7500 -14.7500 Du        
   7067 ****         1.5000 -33.5000 -15.0000 Du        
   7068 ****         1.5000 -33.5000 -14.7500 Du        
   7069 ****         1.5000 -33.2500 -15.0000 Du        
   7070 ****         1.5000 -33.2500 -14.7500 Du        
   7071 ****         1.5000 -32.5000 -15.0000 Du        
   7072 ****         1.5000 -32.5000 -14.7500 Du        
   7073 ****         1.5000 -32.2500 -15.0000 Du        
   7074 ****         1.5000 -32.2500 -14.7500 Du        
   7075 ****         1.5000 -32.0000 -15.2500 Du        
   7076 ****         1.5000 -32.0000 -15.0000 Du        
   7077 ****         1.5000 -32.0000 -14.7500 Du        
   7078 ****         1.5000 -31.7500 -15.2500 Du        
   7079 ****         1.5000 -31.7500 -15.0000 Du        
   7080 ****         1.5000 -31.7500 -14.7500 Du        
   7081 ****         1.5000 -31.5000 -15.2500 Du        
   7082 ****         1.5000 -31.5000 -15.0000 Du        
   7083 ****         1.5000 -31.5000 -14.7500 Du        
   7084 ****         1.5000 -31.2500 -15.5000 Du        
   7085 ****         1.5000 -31.2500 -15.2500 Du        
   7086 ****         1.5000 -31.2500 -15.0000 Du        
   7087 ****         1.5000 -31.2500 -14.7500 Du        
   7088 ****         1.5000 -31.0000 -15.7500 Du        
   7089 ****         1.5000 -31.0000 -15.5000 Du        
   7090 ****         1.5000 -31.0000 -15.2500 Du        
   7091 ****         1.5000 -31.0000 -15.0000 Du        
   7092 ****         1.5000 -31.0000 -14.7500 Du        
   7093 ****         1.5000 -30.7500 -15.7500 Du        
   7094 ****         1.5000 -30.7500 -15.5000 Du        
   7095 ****         1.5000 -30.7500 -15.2500 Du        
   7096 ****         1.5000 -30.7500 -15.0000 Du        
   7097 ****         1.5000 -30.7500 -14.7500 Du        
   7098 ****         1.5000 -30.7500 -14.5000 Du        
   7099 ****         1.5000 -30.5000 -15.5000 Du        
   7100 ****         1.5000 -30.5000 -15.2500 Du        
   7101 ****         1.5000 -30.5000 -15.0000 Du        
   7102 ****         1.5000 -30.5000 -14.7500 Du        
   7103 ****         1.5000 -30.5000 -14.5000 Du        
   7104 ****         1.5000 -30.2500 -15.5000 Du        
   7105 ****         1.5000 -30.2500 -15.2500 Du        
   7106 ****         1.5000 -30.2500 -15.0000 Du        
   7107 ****         1.5000 -30.2500 -14.7500 Du        
   7108 ****         1.5000 -30.2500 -14.5000 Du        
   7109 ****         1.5000 -30.2500 -14.2500 Du        
   7110 ****         1.5000 -30.0000 -15.2500 Du        
   7111 ****         1.5000 -30.0000 -15.0000 Du        
   7112 ****         1.5000 -30.0000 -14.7500 Du        
   7113 ****         1.5000 -30.0000 -14.5000 Du        
   7114 ****         1.5000 -30.0000 -14.2500 Du        
   7115 ****         1.5000 -29.7500 -15.2500 Du        
   7116 ****         1.5000 -29.7500 -15.0000 Du        
   7117 ****         1.5000 -29.7500 -14.7500 Du        
   7118 ****         1.5000 -29.7500 -14.5000 Du        
   7119 ****         1.5000 -29.7500 -14.2500 Du        
   7120 ****         1.5000 -29.5000 -15.0000 Du        
   7121 ****         1.5000 -29.5000 -14.7500 Du        
   7122 ****         1.5000 -29.5000 -14.5000 Du        
   7123 ****         1.5000 -29.5000 -14.2500 Du        
   7124 ****         1.5000 -29.2500 -15.0000 Du        
   7125 ****         1.5000 -29.2500 -14.7500 Du        
   7126 ****         1.5000 -29.2500 -14.5000 Du        
   7127 ****         1.5000 -29.2500 -14.2500 Du        
   7128 ****         1.5000 -29.0000 -14.7500 Du        
   7129 ****         1.5000 -29.0000 -14.5000 Du        
   7130 ****         1.5000 -29.0000 -14.2500 Du        
   7131 ****         1.5000 -28.7500 -14.7500 Du        
   7132 ****         1.5000 -28.7500 -14.5000 Du        
   7133 ****         1.5000 -28.7500 -14.2500 Du        
   7134 ****         1.5000 -28.5000 -14.5000 Du        
   7135 ****         1.5000 -28.5000 -14.2500 Du        
   7136 ****         1.5000 -26.5000 -14.2500 Du        
   7137 ****         1.5000 -26.2500 -14.5000 Du        
   7138 ****         1.5000 -26.2500 -14.2500 Du        
   7139 ****         1.5000 -26.2500 -14.0000 Du        
   7140 ****         1.5000 -26.0000 -14.5000 Du        
   7141 ****         1.5000 -26.0000 -14.2500 Du        
   7142 ****         1.5000 -26.0000 -14.0000 Du        
   7143 ****         1.5000 -26.0000 -13.7500 Du        
   7144 ****         1.5000 -25.7500 -14.5000 Du        
   7145 ****         1.5000 -25.7500 -14.2500 Du        
   7146 ****         1.5000 -25.7500 -14.0000 Du        
   7147 ****         1.5000 -25.7500 -13.7500 Du        
   7148 ****         1.5000 -25.7500 -13.5000 Du        
   7149 ****         1.5000 -25.5000 -14.5000 Du        
   7150 ****         1.5000 -25.5000 -14.2500 Du        
   7151 ****         1.5000 -25.5000 -14.0000 Du        
   7152 ****         1.5000 -25.5000 -13.7500 Du        
   7153 ****         1.5000 -25.5000 -13.5000 Du        
   7154 ****         1.5000 -25.5000 -13.2500 Du        
   7155 ****         1.5000 -25.2500 -14.5000 Du        
   7156 ****         1.5000 -25.2500 -14.2500 Du        
   7157 ****         1.5000 -25.2500 -14.0000 Du        
   7158 ****         1.5000 -25.2500 -13.7500 Du        
   7159 ****         1.5000 -25.2500 -13.5000 Du        
   7160 ****         1.5000 -25.2500 -13.2500 Du        
   7161 ****         1.5000 -25.0000 -14.7500 Du        
   7162 ****         1.5000 -25.0000 -14.5000 Du        
   7163 ****         1.5000 -25.0000 -14.2500 Du        
   7164 ****         1.5000 -25.0000 -14.0000 Du        
   7165 ****         1.5000 -25.0000 -13.7500 Du        
   7166 ****         1.5000 -25.0000 -13.5000 Du        
   7167 ****         1.5000 -25.0000 -13.2500 Du        
   7168 ****         1.5000 -24.7500 -14.7500 Du        
   7169 ****         1.5000 -24.7500 -14.5000 Du        
   7170 ****         1.5000 -24.7500 -14.2500 Du        
   7171 ****         1.5000 -24.7500 -14.0000 Du        
   7172 ****         1.5000 -24.7500 -13.7500 Du        
   7173 ****         1.5000 -24.5000 -15.0000 Du        
   7174 ****         1.5000 -24.5000 -14.7500 Du        
   7175 ****         1.5000 -24.5000 -14.5000 Du        
   7176 ****         1.5000 -24.5000 -14.2500 Du        
   7177 ****         1.5000 -24.5000 -14.0000 Du        
   7178 ****         1.5000 -24.2500 -15.0000 Du        
   7179 ****         1.5000 -24.2500 -14.7500 Du        
   7180 ****         1.5000 -24.2500 -14.5000 Du        
   7181 ****         1.5000 -24.2500 -14.2500 Du        
   7182 ****         1.5000 -24.0000 -15.0000 Du        
   7183 ****         1.5000 -24.0000 -14.7500 Du        
   7184 ****         1.5000 -24.0000 -14.5000 Du        
   7185 ****         1.5000 -23.7500 -15.2500 Du        
   7186 ****         1.5000 -23.7500 -15.0000 Du        
   7187 ****         1.5000 -23.7500 -14.7500 Du        
   7188 ****         1.5000 -23.5000 -15.7500 Du        
   7189 ****         1.5000 -23.5000 -15.5000 Du        
   7190 ****         1.5000 -23.5000 -15.2500 Du        
   7191 ****         1.5000 -23.5000 -15.0000 Du        
   7192 ****         1.5000 -23.2500 -16.2500 Du        
   7193 ****         1.5000 -23.2500 -16.0000 Du        
   7194 ****         1.5000 -23.2500 -15.7500 Du        
   7195 ****         1.5000 -23.2500 -15.5000 Du        
   7196 ****         1.5000 -23.2500 -15.2500 Du        
   7197 ****         1.5000 -23.2500 -15.0000 Du        
   7198 ****         1.5000 -23.0000 -16.5000 Du        
   7199 ****         1.5000 -23.0000 -16.2500 Du        
   7200 ****         1.5000 -23.0000 -16.0000 Du        
   7201 ****         1.5000 -23.0000 -15.7500 Du        
   7202 ****         1.5000 -23.0000 -15.5000 Du        
   7203 ****         1.5000 -23.0000 -15.2500 Du        
   7204 ****         1.5000 -22.7500 -17.0000 Du        
   7205 ****         1.5000 -22.7500 -16.7500 Du        
   7206 ****         1.5000 -22.7500 -16.5000 Du        
   7207 ****         1.5000 -22.7500 -16.2500 Du        
   7208 ****         1.5000 -22.7500 -16.0000 Du        
   7209 ****         1.5000 -22.7500 -15.7500 Du        
   7210 ****         1.5000 -22.7500 -15.5000 Du        
   7211 ****         1.5000 -22.5000 -17.0000 Du        
   7212 ****         1.5000 -22.5000 -16.7500 Du        
   7213 ****         1.5000 -22.5000 -16.5000 Du        
   7214 ****         1.5000 -22.5000 -16.2500 Du        
   7215 ****         1.5000 -22.5000 -16.0000 Du        
   7216 ****         1.5000 -22.5000 -15.7500 Du        
   7217 ****         1.5000 -22.2500 -17.0000 Du        
   7218 ****         1.5000 -22.2500 -16.7500 Du        
   7219 ****         1.5000 -22.2500 -16.5000 Du        
   7220 ****         1.5000 -22.2500 -16.2500 Du        
   7221 ****         1.5000 -22.2500 -16.0000 Du        
   7222 ****         1.5000 -22.2500 -15.7500 Du        
   7223 ****         1.5000 -22.0000 -17.0000 Du        
   7224 ****         1.5000 -22.0000 -16.7500 Du        
   7225 ****         1.5000 -22.0000 -16.5000 Du        
   7226 ****         1.5000 -22.0000 -16.2500 Du        
   7227 ****         1.5000 -22.0000 -16.0000 Du        
   7228 ****         1.5000 -21.7500 -17.0000 Du        
   7229 ****         1.5000 -21.7500 -16.7500 Du        
   7230 ****         1.5000 -21.7500 -16.5000 Du        
   7231 ****         1.5000 -21.7500 -16.2500 Du        
   7232 ****         1.5000 -21.7500 -16.0000 Du        
   7233 ****         1.5000 -19.7500 -15.0000 Du        
   7234 ****         1.5000 -19.7500 -14.7500 Du        
   7235 ****         1.5000 -19.7500 -14.5000 Du        
   7236 ****         1.5000 -19.5000 -15.0000 Du        
   7237 ****         1.5000 -19.5000 -14.7500 Du        
   7238 ****         1.5000 -19.5000 -14.5000 Du        
   7239 ****         1.5000 -19.5000 -14.2500 Du        
   7240 ****         1.5000 -19.2500 -15.2500 Du        
   7241 ****         1.5000 -19.2500 -15.0000 Du        
   7242 ****         1.5000 -19.2500 -14.7500 Du        
   7243 ****         1.5000 -19.2500 -14.5000 Du        
   7244 ****         1.5000 -19.2500 -14.2500 Du        
   7245 ****         1.5000 -19.2500 -14.0000 Du        
   7246 ****         1.5000 -19.0000 -15.2500 Du        
   7247 ****         1.5000 -19.0000 -15.0000 Du        
   7248 ****         1.5000 -19.0000 -14.7500 Du        
   7249 ****         1.5000 -19.0000 -14.5000 Du        
   7250 ****         1.5000 -19.0000 -14.2500 Du        
   7251 ****         1.5000 -19.0000 -14.0000 Du        
   7252 ****         1.5000 -19.0000 -13.7500 Du        
   7253 ****         1.5000 -18.7500 -15.2500 Du        
   7254 ****         1.5000 -18.7500 -15.0000 Du        
   7255 ****         1.5000 -18.7500 -14.7500 Du        
   7256 ****         1.5000 -18.7500 -14.5000 Du        
   7257 ****         1.5000 -18.7500 -14.2500 Du        
   7258 ****         1.5000 -18.7500 -14.0000 Du        
   7259 ****         1.5000 -18.7500 -13.7500 Du        
   7260 ****         1.5000 -18.5000 -15.0000 Du        
   7261 ****         1.5000 -18.5000 -14.7500 Du        
   7262 ****         1.5000 -18.5000 -14.5000 Du        
   7263 ****         1.5000 -18.5000 -14.2500 Du        
   7264 ****         1.5000 -18.5000 -14.0000 Du        
   7265 ****         1.5000 -18.2500 -14.5000 Du        
   7266 ****         1.7500 -34.0000 -15.0000 Du        
   7267 ****         1.7500 -34.0000 -14.7500 Du        
   7268 ****         1.7500 -33.7500 -14.7500 Du        
   7269 ****         1.7500 -33.5000 -14.7500 Du        
   7270 ****         1.7500 -31.5000 -15.0000 Du        
   7271 ****         1.7500 -31.2500 -15.0000 Du        
   7272 ****         1.7500 -31.2500 -14.7500 Du        
   7273 ****         1.7500 -31.0000 -15.2500 Du        
   7274 ****         1.7500 -31.0000 -15.0000 Du        
   7275 ****         1.7500 -31.0000 -14.7500 Du        
   7276 ****         1.7500 -30.7500 -15.2500 Du        
   7277 ****         1.7500 -30.7500 -15.0000 Du        
   7278 ****         1.7500 -30.7500 -14.7500 Du        
   7279 ****         1.7500 -30.5000 -15.2500 Du        
   7280 ****         1.7500 -30.5000 -15.0000 Du        
   7281 ****         1.7500 -30.5000 -14.7500 Du        
   7282 ****         1.7500 -30.5000 -14.5000 Du        
   7283 ****         1.7500 -30.2500 -15.2500 Du        
   7284 ****         1.7500 -30.2500 -15.0000 Du        
   7285 ****         1.7500 -30.2500 -14.7500 Du        
   7286 ****         1.7500 -30.2500 -14.5000 Du        
   7287 ****         1.7500 -30.0000 -15.0000 Du        
   7288 ****         1.7500 -30.0000 -14.7500 Du        
   7289 ****         1.7500 -30.0000 -14.5000 Du        
   7290 ****         1.7500 -29.7500 -15.0000 Du        
   7291 ****         1.7500 -29.7500 -14.7500 Du        
   7292 ****         1.7500 -29.7500 -14.5000 Du        
   7293 ****         1.7500 -29.7500 -14.2500 Du        
   7294 ****         1.7500 -29.5000 -15.0000 Du        
   7295 ****         1.7500 -29.5000 -14.7500 Du        
   7296 ****         1.7500 -29.5000 -14.5000 Du        
   7297 ****         1.7500 -29.5000 -14.2500 Du        
   7298 ****         1.7500 -29.2500 -14.7500 Du        
   7299 ****         1.7500 -29.2500 -14.5000 Du        
   7300 ****         1.7500 -29.2500 -14.2500 Du        
   7301 ****         1.7500 -29.0000 -14.7500 Du        
   7302 ****         1.7500 -29.0000 -14.5000 Du        
   7303 ****         1.7500 -29.0000 -14.2500 Du        
   7304 ****         1.7500 -28.7500 -14.5000 Du        
   7305 ****         1.7500 -28.7500 -14.2500 Du        
   7306 ****         1.7500 -26.2500 -14.2500 Du        
   7307 ****         1.7500 -26.2500 -14.0000 Du        
   7308 ****         1.7500 -26.0000 -14.5000 Du        
   7309 ****         1.7500 -26.0000 -14.2500 Du        
   7310 ****         1.7500 -26.0000 -14.0000 Du        
   7311 ****         1.7500 -25.7500 -14.5000 Du        
   7312 ****         1.7500 -25.7500 -14.2500 Du        
   7313 ****         1.7500 -25.7500 -14.0000 Du        
   7314 ****         1.7500 -25.7500 -13.7500 Du        
   7315 ****         1.7500 -25.5000 -14.5000 Du        
   7316 ****         1.7500 -25.5000 -14.2500 Du        
   7317 ****         1.7500 -25.5000 -14.0000 Du        
   7318 ****         1.7500 -25.5000 -13.7500 Du        
   7319 ****         1.7500 -25.5000 -13.5000 Du        
   7320 ****         1.7500 -25.2500 -14.5000 Du        
   7321 ****         1.7500 -25.2500 -14.2500 Du        
   7322 ****         1.7500 -25.2500 -14.0000 Du        
   7323 ****         1.7500 -25.2500 -13.7500 Du        
   7324 ****         1.7500 -25.2500 -13.5000 Du        
   7325 ****         1.7500 -25.2500 -13.2500 Du        
   7326 ****         1.7500 -25.0000 -14.7500 Du        
   7327 ****         1.7500 -25.0000 -14.5000 Du        
   7328 ****         1.7500 -25.0000 -14.2500 Du        
   7329 ****         1.7500 -25.0000 -14.0000 Du        
   7330 ****         1.7500 -25.0000 -13.7500 Du        
   7331 ****         1.7500 -25.0000 -13.5000 Du        
   7332 ****         1.7500 -24.7500 -15.0000 Du        
   7333 ****         1.7500 -24.7500 -14.7500 Du        
   7334 ****         1.7500 -24.7500 -14.5000 Du        
   7335 ****         1.7500 -24.7500 -14.2500 Du        
   7336 ****         1.7500 -24.7500 -14.0000 Du        
   7337 ****         1.7500 -24.7500 -13.7500 Du        
   7338 ****         1.7500 -24.5000 -15.0000 Du        
   7339 ****         1.7500 -24.5000 -14.7500 Du        
   7340 ****         1.7500 -24.5000 -14.5000 Du        
   7341 ****         1.7500 -24.5000 -14.2500 Du        
   7342 ****         1.7500 -24.5000 -14.0000 Du        
   7343 ****         1.7500 -24.2500 -15.0000 Du        
   7344 ****         1.7500 -24.2500 -14.7500 Du        
   7345 ****         1.7500 -24.2500 -14.5000 Du        
   7346 ****         1.7500 -24.2500 -14.2500 Du        
   7347 ****         1.7500 -24.0000 -15.2500 Du        
   7348 ****         1.7500 -24.0000 -15.0000 Du        
   7349 ****         1.7500 -24.0000 -14.7500 Du        
   7350 ****         1.7500 -24.0000 -14.5000 Du        
   7351 ****         1.7500 -23.7500 -15.5000 Du        
   7352 ****         1.7500 -23.7500 -15.2500 Du        
   7353 ****         1.7500 -23.7500 -15.0000 Du        
   7354 ****         1.7500 -23.7500 -14.7500 Du        
   7355 ****         1.7500 -23.5000 -16.0000 Du        
   7356 ****         1.7500 -23.5000 -15.7500 Du        
   7357 ****         1.7500 -23.5000 -15.5000 Du        
   7358 ****         1.7500 -23.5000 -15.2500 Du        
   7359 ****         1.7500 -23.5000 -15.0000 Du        
   7360 ****         1.7500 -23.2500 -16.2500 Du        
   7361 ****         1.7500 -23.2500 -16.0000 Du        
   7362 ****         1.7500 -23.2500 -15.7500 Du        
   7363 ****         1.7500 -23.2500 -15.5000 Du        
   7364 ****         1.7500 -23.2500 -15.2500 Du        
   7365 ****         1.7500 -23.2500 -15.0000 Du        
   7366 ****         1.7500 -23.0000 -16.7500 Du        
   7367 ****         1.7500 -23.0000 -16.5000 Du        
   7368 ****         1.7500 -23.0000 -16.2500 Du        
   7369 ****         1.7500 -23.0000 -16.0000 Du        
   7370 ****         1.7500 -23.0000 -15.7500 Du        
   7371 ****         1.7500 -23.0000 -15.5000 Du        
   7372 ****         1.7500 -23.0000 -15.2500 Du        
   7373 ****         1.7500 -23.0000 -15.0000 Du        
   7374 ****         1.7500 -22.7500 -17.0000 Du        
   7375 ****         1.7500 -22.7500 -16.7500 Du        
   7376 ****         1.7500 -22.7500 -16.5000 Du        
   7377 ****         1.7500 -22.7500 -16.2500 Du        
   7378 ****         1.7500 -22.7500 -16.0000 Du        
   7379 ****         1.7500 -22.7500 -15.7500 Du        
   7380 ****         1.7500 -22.7500 -15.5000 Du        
   7381 ****         1.7500 -22.7500 -15.2500 Du        
   7382 ****         1.7500 -22.7500 -15.0000 Du        
   7383 ****         1.7500 -22.5000 -17.0000 Du        
   7384 ****         1.7500 -22.5000 -16.7500 Du        
   7385 ****         1.7500 -22.5000 -16.5000 Du        
   7386 ****         1.7500 -22.5000 -16.2500 Du        
   7387 ****         1.7500 -22.5000 -16.0000 Du        
   7388 ****         1.7500 -22.5000 -15.7500 Du        
   7389 ****         1.7500 -22.2500 -17.2500 Du        
   7390 ****         1.7500 -22.2500 -17.0000 Du        
   7391 ****         1.7500 -22.2500 -16.7500 Du        
   7392 ****         1.7500 -22.2500 -16.5000 Du        
   7393 ****         1.7500 -22.2500 -16.2500 Du        
   7394 ****         1.7500 -22.2500 -16.0000 Du        
   7395 ****         1.7500 -22.2500 -15.7500 Du        
   7396 ****         1.7500 -22.0000 -17.2500 Du        
   7397 ****         1.7500 -22.0000 -17.0000 Du        
   7398 ****         1.7500 -22.0000 -16.7500 Du        
   7399 ****         1.7500 -22.0000 -16.5000 Du        
   7400 ****         1.7500 -22.0000 -16.2500 Du        
   7401 ****         1.7500 -22.0000 -16.0000 Du        
   7402 ****         1.7500 -21.7500 -17.2500 Du        
   7403 ****         1.7500 -21.7500 -17.0000 Du        
   7404 ****         1.7500 -21.7500 -16.7500 Du        
   7405 ****         1.7500 -21.7500 -16.5000 Du        
   7406 ****         1.7500 -21.7500 -16.2500 Du        
   7407 ****         1.7500 -21.7500 -16.0000 Du        
   7408 ****         1.7500 -20.0000 -15.0000 Du        
   7409 ****         1.7500 -19.7500 -15.2500 Du        
   7410 ****         1.7500 -19.7500 -15.0000 Du        
   7411 ****         1.7500 -19.7500 -14.7500 Du        
   7412 ****         1.7500 -19.7500 -14.5000 Du        
   7413 ****         1.7500 -19.5000 -15.2500 Du        
   7414 ****         1.7500 -19.5000 -15.0000 Du        
   7415 ****         1.7500 -19.5000 -14.7500 Du        
   7416 ****         1.7500 -19.5000 -14.5000 Du        
   7417 ****         1.7500 -19.5000 -14.2500 Du        
   7418 ****         1.7500 -19.5000 -14.0000 Du        
   7419 ****         1.7500 -19.2500 -15.2500 Du        
   7420 ****         1.7500 -19.2500 -15.0000 Du        
   7421 ****         1.7500 -19.2500 -14.7500 Du        
   7422 ****         1.7500 -19.2500 -14.5000 Du        
   7423 ****         1.7500 -19.2500 -14.2500 Du        
   7424 ****         1.7500 -19.2500 -14.0000 Du        
   7425 ****         1.7500 -19.2500 -13.7500 Du        
   7426 ****         1.7500 -19.0000 -15.2500 Du        
   7427 ****         1.7500 -19.0000 -15.0000 Du        
   7428 ****         1.7500 -19.0000 -14.7500 Du        
   7429 ****         1.7500 -19.0000 -14.5000 Du        
   7430 ****         1.7500 -19.0000 -14.2500 Du        
   7431 ****         1.7500 -19.0000 -14.0000 Du        
   7432 ****         1.7500 -19.0000 -13.7500 Du        
   7433 ****         1.7500 -19.0000 -13.5000 Du        
   7434 ****         1.7500 -18.7500 -15.2500 Du        
   7435 ****         1.7500 -18.7500 -15.0000 Du        
   7436 ****         1.7500 -18.7500 -14.7500 Du        
   7437 ****         1.7500 -18.7500 -14.5000 Du        
   7438 ****         1.7500 -18.7500 -14.2500 Du        
   7439 ****         1.7500 -18.7500 -14.0000 Du        
   7440 ****         1.7500 -18.7500 -13.7500 Du        
   7441 ****         1.7500 -18.7500 -13.5000 Du        
   7442 ****         1.7500 -18.5000 -14.5000 Du        
   7443 ****         1.7500 -18.5000 -14.2500 Du        
   7444 ****         1.7500 -18.5000 -14.0000 Du        
   7445 ****         2.0000 -34.0000 -14.7500 Du        
   7446 ****         2.0000 -26.2500 -14.2500 Du        
   7447 ****         2.0000 -26.0000 -14.2500 Du        
   7448 ****         2.0000 -26.0000 -14.0000 Du        
   7449 ****         2.0000 -25.7500 -14.5000 Du        
   7450 ****         2.0000 -25.7500 -14.2500 Du        
   7451 ****         2.0000 -25.7500 -14.0000 Du        
   7452 ****         2.0000 -25.7500 -13.7500 Du        
   7453 ****         2.0000 -25.5000 -14.5000 Du        
   7454 ****         2.0000 -25.5000 -14.2500 Du        
   7455 ****         2.0000 -25.5000 -14.0000 Du        
   7456 ****         2.0000 -25.5000 -13.7500 Du        
   7457 ****         2.0000 -25.5000 -13.5000 Du        
   7458 ****         2.0000 -25.2500 -14.5000 Du        
   7459 ****         2.0000 -25.2500 -14.2500 Du        
   7460 ****         2.0000 -25.2500 -14.0000 Du        
   7461 ****         2.0000 -25.2500 -13.7500 Du        
   7462 ****         2.0000 -25.2500 -13.5000 Du        
   7463 ****         2.0000 -25.2500 -13.2500 Du        
   7464 ****         2.0000 -25.0000 -14.7500 Du        
   7465 ****         2.0000 -25.0000 -14.5000 Du        
   7466 ****         2.0000 -25.0000 -14.2500 Du        
   7467 ****         2.0000 -25.0000 -14.0000 Du        
   7468 ****         2.0000 -25.0000 -13.7500 Du        
   7469 ****         2.0000 -25.0000 -13.5000 Du        
   7470 ****         2.0000 -24.7500 -15.0000 Du        
   7471 ****         2.0000 -24.7500 -14.7500 Du        
   7472 ****         2.0000 -24.7500 -14.5000 Du        
   7473 ****         2.0000 -24.7500 -14.2500 Du        
   7474 ****         2.0000 -24.7500 -14.0000 Du        
   7475 ****         2.0000 -24.7500 -13.7500 Du        
   7476 ****         2.0000 -24.5000 -15.0000 Du        
   7477 ****         2.0000 -24.5000 -14.7500 Du        
   7478 ****         2.0000 -24.5000 -14.5000 Du        
   7479 ****         2.0000 -24.5000 -14.2500 Du        
   7480 ****         2.0000 -24.5000 -14.0000 Du        
   7481 ****         2.0000 -24.2500 -15.2500 Du        
   7482 ****         2.0000 -24.2500 -15.0000 Du        
   7483 ****         2.0000 -24.2500 -14.7500 Du        
   7484 ****         2.0000 -24.2500 -14.5000 Du        
   7485 ****         2.0000 -24.2500 -14.2500 Du        
   7486 ****         2.0000 -24.0000 -15.2500 Du        
   7487 ****         2.0000 -24.0000 -15.0000 Du        
   7488 ****         2.0000 -24.0000 -14.7500 Du        
   7489 ****         2.0000 -24.0000 -14.5000 Du        
   7490 ****         2.0000 -23.7500 -15.7500 Du        
   7491 ****         2.0000 -23.7500 -15.5000 Du        
   7492 ****         2.0000 -23.7500 -15.2500 Du        
   7493 ****         2.0000 -23.7500 -15.0000 Du        
   7494 ****         2.0000 -23.7500 -14.7500 Du        
   7495 ****         2.0000 -23.5000 -16.0000 Du        
   7496 ****         2.0000 -23.5000 -15.7500 Du        
   7497 ****         2.0000 -23.5000 -15.5000 Du        
   7498 ****         2.0000 -23.5000 -15.2500 Du        
   7499 ****         2.0000 -23.5000 -15.0000 Du        
   7500 ****         2.0000 -23.2500 -16.2500 Du        
   7501 ****         2.0000 -23.2500 -16.0000 Du        
   7502 ****         2.0000 -23.2500 -15.7500 Du        
   7503 ****         2.0000 -23.2500 -15.5000 Du        
   7504 ****         2.0000 -23.2500 -15.2500 Du        
   7505 ****         2.0000 -23.2500 -15.0000 Du        
   7506 ****         2.0000 -23.0000 -16.7500 Du        
   7507 ****         2.0000 -23.0000 -16.5000 Du        
   7508 ****         2.0000 -23.0000 -16.2500 Du        
   7509 ****         2.0000 -23.0000 -16.0000 Du        
   7510 ****         2.0000 -23.0000 -15.7500 Du        
   7511 ****         2.0000 -23.0000 -15.5000 Du        
   7512 ****         2.0000 -23.0000 -15.2500 Du        
   7513 ****         2.0000 -23.0000 -15.0000 Du        
   7514 ****         2.0000 -22.7500 -17.0000 Du        
   7515 ****         2.0000 -22.7500 -16.7500 Du        
   7516 ****         2.0000 -22.7500 -16.5000 Du        
   7517 ****         2.0000 -22.7500 -16.2500 Du        
   7518 ****         2.0000 -22.7500 -16.0000 Du        
   7519 ****         2.0000 -22.7500 -15.7500 Du        
   7520 ****         2.0000 -22.7500 -15.5000 Du        
   7521 ****         2.0000 -22.7500 -15.2500 Du        
   7522 ****         2.0000 -22.7500 -15.0000 Du        
   7523 ****         2.0000 -22.5000 -17.0000 Du        
   7524 ****         2.0000 -22.5000 -16.7500 Du        
   7525 ****         2.0000 -22.5000 -16.5000 Du        
   7526 ****         2.0000 -22.5000 -16.2500 Du        
   7527 ****         2.0000 -22.5000 -16.0000 Du        
   7528 ****         2.0000 -22.5000 -15.7500 Du        
   7529 ****         2.0000 -22.2500 -17.2500 Du        
   7530 ****         2.0000 -22.2500 -17.0000 Du        
   7531 ****         2.0000 -22.2500 -16.7500 Du        
   7532 ****         2.0000 -22.2500 -16.5000 Du        
   7533 ****         2.0000 -22.2500 -16.2500 Du        
   7534 ****         2.0000 -22.2500 -16.0000 Du        
   7535 ****         2.0000 -22.2500 -15.7500 Du        
   7536 ****         2.0000 -22.0000 -17.2500 Du        
   7537 ****         2.0000 -22.0000 -17.0000 Du        
   7538 ****         2.0000 -22.0000 -16.7500 Du        
   7539 ****         2.0000 -22.0000 -16.5000 Du        
   7540 ****         2.0000 -22.0000 -16.2500 Du        
   7541 ****         2.0000 -22.0000 -16.0000 Du        
   7542 ****         2.0000 -21.7500 -17.2500 Du        
   7543 ****         2.0000 -21.7500 -17.0000 Du        
   7544 ****         2.0000 -21.7500 -16.7500 Du        
   7545 ****         2.0000 -21.7500 -16.5000 Du        
   7546 ****         2.0000 -21.7500 -16.2500 Du        
   7547 ****         2.0000 -21.7500 -16.0000 Du        
   7548 ****         2.0000 -20.0000 -15.0000 Du        
   7549 ****         2.0000 -20.0000 -14.7500 Du        
   7550 ****         2.0000 -19.7500 -15.0000 Du        
   7551 ****         2.0000 -19.7500 -14.7500 Du        
   7552 ****         2.0000 -19.7500 -14.5000 Du        
   7553 ****         2.0000 -19.5000 -15.0000 Du        
   7554 ****         2.0000 -19.5000 -14.7500 Du        
   7555 ****         2.0000 -19.5000 -14.5000 Du        
   7556 ****         2.0000 -19.5000 -14.2500 Du        
   7557 ****         2.0000 -19.5000 -14.0000 Du        
   7558 ****         2.0000 -19.2500 -15.2500 Du        
   7559 ****         2.0000 -19.2500 -15.0000 Du        
   7560 ****         2.0000 -19.2500 -14.7500 Du        
   7561 ****         2.0000 -19.2500 -14.5000 Du        
   7562 ****         2.0000 -19.2500 -14.2500 Du        
   7563 ****         2.0000 -19.2500 -14.0000 Du        
   7564 ****         2.0000 -19.2500 -13.7500 Du        
   7565 ****         2.0000 -19.0000 -15.2500 Du        
   7566 ****         2.0000 -19.0000 -15.0000 Du        
   7567 ****         2.0000 -19.0000 -14.7500 Du        
   7568 ****         2.0000 -19.0000 -14.5000 Du        
   7569 ****         2.0000 -19.0000 -14.2500 Du        
   7570 ****         2.0000 -19.0000 -14.0000 Du        
   7571 ****         2.0000 -19.0000 -13.7500 Du        
   7572 ****         2.0000 -18.7500 -18.7500 Du        
   7573 ****         2.0000 -18.7500 -15.0000 Du        
   7574 ****         2.0000 -18.7500 -14.5000 Du        
   7575 ****         2.0000 -18.7500 -14.2500 Du        
   7576 ****         2.0000 -18.7500 -14.0000 Du        
   7577 ****         2.0000 -18.7500 -13.7500 Du        
   7578 ****         2.2500 -26.0000 -14.2500 Du        
   7579 ****         2.2500 -26.0000 -14.0000 Du        
   7580 ****         2.2500 -25.7500 -14.2500 Du        
   7581 ****         2.2500 -25.7500 -14.0000 Du        
   7582 ****         2.2500 -25.7500 -13.7500 Du        
   7583 ****         2.2500 -25.5000 -14.5000 Du        
   7584 ****         2.2500 -25.5000 -14.2500 Du        
   7585 ****         2.2500 -25.5000 -14.0000 Du        
   7586 ****         2.2500 -25.5000 -13.7500 Du        
   7587 ****         2.2500 -25.5000 -13.5000 Du        
   7588 ****         2.2500 -25.2500 -14.5000 Du        
   7589 ****         2.2500 -25.2500 -14.2500 Du        
   7590 ****         2.2500 -25.2500 -14.0000 Du        
   7591 ****         2.2500 -25.2500 -13.7500 Du        
   7592 ****         2.2500 -25.2500 -13.5000 Du        
   7593 ****         2.2500 -25.0000 -14.7500 Du        
   7594 ****         2.2500 -25.0000 -14.5000 Du        
   7595 ****         2.2500 -25.0000 -14.2500 Du        
   7596 ****         2.2500 -25.0000 -14.0000 Du        
   7597 ****         2.2500 -25.0000 -13.7500 Du        
   7598 ****         2.2500 -25.0000 -13.5000 Du        
   7599 ****         2.2500 -24.7500 -15.0000 Du        
   7600 ****         2.2500 -24.7500 -14.7500 Du        
   7601 ****         2.2500 -24.7500 -14.5000 Du        
   7602 ****         2.2500 -24.7500 -14.2500 Du        
   7603 ****         2.2500 -24.7500 -14.0000 Du        
   7604 ****         2.2500 -24.7500 -13.7500 Du        
   7605 ****         2.2500 -24.5000 -15.0000 Du        
   7606 ****         2.2500 -24.5000 -14.7500 Du        
   7607 ****         2.2500 -24.5000 -14.5000 Du        
   7608 ****         2.2500 -24.5000 -14.2500 Du        
   7609 ****         2.2500 -24.5000 -14.0000 Du        
   7610 ****         2.2500 -24.2500 -15.2500 Du        
   7611 ****         2.2500 -24.2500 -15.0000 Du        
   7612 ****         2.2500 -24.2500 -14.7500 Du        
   7613 ****         2.2500 -24.2500 -14.5000 Du        
   7614 ****         2.2500 -24.2500 -14.2500 Du        
   7615 ****         2.2500 -24.0000 -15.5000 Du        
   7616 ****         2.2500 -24.0000 -15.2500 Du        
   7617 ****         2.2500 -24.0000 -15.0000 Du        
   7618 ****         2.2500 -24.0000 -14.7500 Du        
   7619 ****         2.2500 -24.0000 -14.5000 Du        
   7620 ****         2.2500 -23.7500 -15.7500 Du        
   7621 ****         2.2500 -23.7500 -15.5000 Du        
   7622 ****         2.2500 -23.7500 -15.2500 Du        
   7623 ****         2.2500 -23.7500 -15.0000 Du        
   7624 ****         2.2500 -23.7500 -14.7500 Du        
   7625 ****         2.2500 -23.5000 -16.0000 Du        
   7626 ****         2.2500 -23.5000 -15.7500 Du        
   7627 ****         2.2500 -23.5000 -15.5000 Du        
   7628 ****         2.2500 -23.5000 -15.2500 Du        
   7629 ****         2.2500 -23.5000 -15.0000 Du        
   7630 ****         2.2500 -23.2500 -16.2500 Du        
   7631 ****         2.2500 -23.2500 -16.0000 Du        
   7632 ****         2.2500 -23.2500 -15.7500 Du        
   7633 ****         2.2500 -23.2500 -15.5000 Du        
   7634 ****         2.2500 -23.2500 -15.2500 Du        
   7635 ****         2.2500 -23.2500 -15.0000 Du        
   7636 ****         2.2500 -23.0000 -16.5000 Du        
   7637 ****         2.2500 -23.0000 -16.2500 Du        
   7638 ****         2.2500 -23.0000 -16.0000 Du        
   7639 ****         2.2500 -23.0000 -15.7500 Du        
   7640 ****         2.2500 -23.0000 -15.5000 Du        
   7641 ****         2.2500 -23.0000 -15.2500 Du        
   7642 ****         2.2500 -23.0000 -15.0000 Du        
   7643 ****         2.2500 -22.7500 -16.7500 Du        
   7644 ****         2.2500 -22.7500 -16.5000 Du        
   7645 ****         2.2500 -22.7500 -16.2500 Du        
   7646 ****         2.2500 -22.7500 -16.0000 Du        
   7647 ****         2.2500 -22.7500 -15.7500 Du        
   7648 ****         2.2500 -22.7500 -15.2500 Du        
   7649 ****         2.2500 -22.7500 -15.0000 Du        
   7650 ****         2.2500 -22.5000 -16.7500 Du        
   7651 ****         2.2500 -22.5000 -16.5000 Du        
   7652 ****         2.2500 -22.5000 -16.2500 Du        
   7653 ****         2.2500 -22.5000 -16.0000 Du        
   7654 ****         2.2500 -22.2500 -17.0000 Du        
   7655 ****         2.2500 -22.2500 -16.7500 Du        
   7656 ****         2.2500 -22.2500 -16.5000 Du        
   7657 ****         2.2500 -22.2500 -16.2500 Du        
   7658 ****         2.2500 -22.2500 -16.0000 Du        
   7659 ****         2.2500 -22.0000 -17.0000 Du        
   7660 ****         2.2500 -22.0000 -16.7500 Du        
   7661 ****         2.2500 -22.0000 -16.5000 Du        
   7662 ****         2.2500 -22.0000 -16.2500 Du        
   7663 ****         2.2500 -22.0000 -16.0000 Du        
   7664 ****         2.2500 -21.7500 -17.0000 Du        
   7665 ****         2.2500 -21.7500 -16.7500 Du        
   7666 ****         2.2500 -21.7500 -16.5000 Du        
   7667 ****         2.2500 -21.7500 -16.2500 Du        
   7668 ****         2.2500 -21.7500 -16.0000 Du        
   7669 ****         2.2500 -19.7500 -15.0000 Du        
   7670 ****         2.2500 -19.7500 -14.7500 Du        
   7671 ****         2.2500 -19.7500 -14.5000 Du        
   7672 ****         2.2500 -19.5000 -15.0000 Du        
   7673 ****         2.2500 -19.5000 -14.7500 Du        
   7674 ****         2.2500 -19.5000 -14.5000 Du        
   7675 ****         2.2500 -19.5000 -14.2500 Du        
   7676 ****         2.2500 -19.2500 -15.2500 Du        
   7677 ****         2.2500 -19.2500 -15.0000 Du        
   7678 ****         2.2500 -19.2500 -14.7500 Du        
   7679 ****         2.2500 -19.2500 -14.5000 Du        
   7680 ****         2.2500 -19.2500 -14.2500 Du        
   7681 ****         2.2500 -19.2500 -14.0000 Du        
   7682 ****         2.2500 -19.0000 -15.0000 Du        
   7683 ****         2.2500 -19.0000 -14.7500 Du        
   7684 ****         2.2500 -19.0000 -14.5000 Du        
   7685 ****         2.2500 -19.0000 -14.2500 Du        
   7686 ****         2.2500 -19.0000 -14.0000 Du        
   7687 ****         2.2500 -18.7500 -19.0000 Du        
   7688 ****         2.2500 -18.7500 -18.7500 Du        
   7689 ****         2.5000 -26.0000 -14.2500 Du        
   7690 ****         2.5000 -26.0000 -14.0000 Du        
   7691 ****         2.5000 -25.7500 -14.2500 Du        
   7692 ****         2.5000 -25.7500 -14.0000 Du        
   7693 ****         2.5000 -25.7500 -13.7500 Du        
   7694 ****         2.5000 -25.5000 -14.5000 Du        
   7695 ****         2.5000 -25.5000 -14.2500 Du        
   7696 ****         2.5000 -25.5000 -14.0000 Du        
   7697 ****         2.5000 -25.5000 -13.7500 Du        
   7698 ****         2.5000 -25.5000 -13.5000 Du        
   7699 ****         2.5000 -25.2500 -14.5000 Du        
   7700 ****         2.5000 -25.2500 -14.2500 Du        
   7701 ****         2.5000 -25.2500 -14.0000 Du        
   7702 ****         2.5000 -25.2500 -13.7500 Du        
   7703 ****         2.5000 -25.2500 -13.5000 Du        
   7704 ****         2.5000 -25.0000 -14.7500 Du        
   7705 ****         2.5000 -25.0000 -14.5000 Du        
   7706 ****         2.5000 -25.0000 -14.2500 Du        
   7707 ****         2.5000 -25.0000 -14.0000 Du        
   7708 ****         2.5000 -25.0000 -13.7500 Du        
   7709 ****         2.5000 -25.0000 -13.5000 Du        
   7710 ****         2.5000 -24.7500 -15.0000 Du        
   7711 ****         2.5000 -24.7500 -14.7500 Du        
   7712 ****         2.5000 -24.7500 -14.5000 Du        
   7713 ****         2.5000 -24.7500 -14.2500 Du        
   7714 ****         2.5000 -24.7500 -14.0000 Du        
   7715 ****         2.5000 -24.7500 -13.7500 Du        
   7716 ****         2.5000 -24.5000 -15.2500 Du        
   7717 ****         2.5000 -24.5000 -15.0000 Du        
   7718 ****         2.5000 -24.5000 -14.7500 Du        
   7719 ****         2.5000 -24.5000 -14.5000 Du        
   7720 ****         2.5000 -24.5000 -14.2500 Du        
   7721 ****         2.5000 -24.5000 -14.0000 Du        
   7722 ****         2.5000 -24.2500 -15.2500 Du        
   7723 ****         2.5000 -24.2500 -15.0000 Du        
   7724 ****         2.5000 -24.2500 -14.7500 Du        
   7725 ****         2.5000 -24.2500 -14.5000 Du        
   7726 ****         2.5000 -24.2500 -14.2500 Du        
   7727 ****         2.5000 -24.0000 -15.5000 Du        
   7728 ****         2.5000 -24.0000 -15.2500 Du        
   7729 ****         2.5000 -24.0000 -15.0000 Du        
   7730 ****         2.5000 -24.0000 -14.7500 Du        
   7731 ****         2.5000 -23.7500 -15.7500 Du        
   7732 ****         2.5000 -23.7500 -15.5000 Du        
   7733 ****         2.5000 -23.7500 -15.2500 Du        
   7734 ****         2.5000 -23.7500 -15.0000 Du        
   7735 ****         2.5000 -23.7500 -14.7500 Du        
   7736 ****         2.5000 -23.5000 -16.0000 Du        
   7737 ****         2.5000 -23.5000 -15.7500 Du        
   7738 ****         2.5000 -23.5000 -15.5000 Du        
   7739 ****         2.5000 -23.5000 -15.2500 Du        
   7740 ****         2.5000 -23.5000 -15.0000 Du        
   7741 ****         2.5000 -23.2500 -16.0000 Du        
   7742 ****         2.5000 -23.2500 -15.7500 Du        
   7743 ****         2.5000 -23.2500 -15.5000 Du        
   7744 ****         2.5000 -23.2500 -15.2500 Du        
   7745 ****         2.5000 -23.2500 -15.0000 Du        
   7746 ****         2.5000 -23.0000 -16.2500 Du        
   7747 ****         2.5000 -23.0000 -16.0000 Du        
   7748 ****         2.5000 -23.0000 -15.7500 Du        
   7749 ****         2.5000 -23.0000 -15.2500 Du        
   7750 ****         2.5000 -22.7500 -16.2500 Du        
   7751 ****         2.5000 -22.7500 -16.0000 Du        
   7752 ****         2.5000 -22.7500 -15.7500 Du        
   7753 ****         2.5000 -22.5000 -16.0000 Du        
   7754 ****         2.5000 -22.5000 -15.7500 Du        
   7755 ****         2.5000 -22.2500 -15.7500 Du        
   7756 ****         2.5000 -19.7500 -14.5000 Du        
   7757 ****         2.5000 -19.5000 -15.0000 Du        
   7758 ****         2.5000 -19.5000 -14.7500 Du        
   7759 ****         2.5000 -19.5000 -14.5000 Du        
   7760 ****         2.5000 -19.5000 -14.2500 Du        
   7761 ****         2.5000 -19.2500 -15.2500 Du        
   7762 ****         2.5000 -19.2500 -15.0000 Du        
   7763 ****         2.5000 -19.2500 -14.7500 Du        
   7764 ****         2.5000 -19.2500 -14.5000 Du        
   7765 ****         2.5000 -19.2500 -14.2500 Du        
   7766 ****         2.5000 -18.2500 -19.2500 Du        
   7767 ****         2.5000 -18.2500 -19.0000 Du        
   7768 ****         2.5000 -18.0000 -19.0000 Du        
   7769 ****         2.7500 -26.0000 -14.0000 Du        
   7770 ****         2.7500 -26.0000 -13.7500 Du        
   7771 ****         2.7500 -25.7500 -14.2500 Du        
   7772 ****         2.7500 -25.7500 -14.0000 Du        
   7773 ****         2.7500 -25.7500 -13.7500 Du        
   7774 ****         2.7500 -25.5000 -14.5000 Du        
   7775 ****         2.7500 -25.5000 -14.2500 Du        
   7776 ****         2.7500 -25.5000 -14.0000 Du        
   7777 ****         2.7500 -25.5000 -13.7500 Du        
   7778 ****         2.7500 -25.5000 -13.5000 Du        
   7779 ****         2.7500 -25.2500 -14.5000 Du        
   7780 ****         2.7500 -25.2500 -14.2500 Du        
   7781 ****         2.7500 -25.2500 -14.0000 Du        
   7782 ****         2.7500 -25.2500 -13.7500 Du        
   7783 ****         2.7500 -25.2500 -13.5000 Du        
   7784 ****         2.7500 -25.0000 -14.7500 Du        
   7785 ****         2.7500 -25.0000 -14.5000 Du        
   7786 ****         2.7500 -25.0000 -14.2500 Du        
   7787 ****         2.7500 -25.0000 -14.0000 Du        
   7788 ****         2.7500 -25.0000 -13.7500 Du        
   7789 ****         2.7500 -25.0000 -13.5000 Du        
   7790 ****         2.7500 -24.7500 -15.0000 Du        
   7791 ****         2.7500 -24.7500 -14.7500 Du        
   7792 ****         2.7500 -24.7500 -14.5000 Du        
   7793 ****         2.7500 -24.7500 -14.2500 Du        
   7794 ****         2.7500 -24.7500 -14.0000 Du        
   7795 ****         2.7500 -24.7500 -13.7500 Du        
   7796 ****         2.7500 -24.5000 -15.2500 Du        
   7797 ****         2.7500 -24.5000 -15.0000 Du        
   7798 ****         2.7500 -24.5000 -14.7500 Du        
   7799 ****         2.7500 -24.5000 -14.5000 Du        
   7800 ****         2.7500 -24.5000 -14.2500 Du        
   7801 ****         2.7500 -24.5000 -14.0000 Du        
   7802 ****         2.7500 -24.2500 -15.2500 Du        
   7803 ****         2.7500 -24.2500 -15.0000 Du        
   7804 ****         2.7500 -24.2500 -14.7500 Du        
   7805 ****         2.7500 -24.2500 -14.5000 Du        
   7806 ****         2.7500 -24.2500 -14.2500 Du        
   7807 ****         2.7500 -24.0000 -15.7500 Du        
   7808 ****         2.7500 -24.0000 -15.5000 Du        
   7809 ****         2.7500 -24.0000 -15.2500 Du        
   7810 ****         2.7500 -24.0000 -15.0000 Du        
   7811 ****         2.7500 -24.0000 -14.7500 Du        
   7812 ****         2.7500 -24.0000 -14.5000 Du        
   7813 ****         2.7500 -24.0000 -14.2500 Du        
   7814 ****         2.7500 -23.7500 -15.7500 Du        
   7815 ****         2.7500 -23.7500 -15.5000 Du        
   7816 ****         2.7500 -23.7500 -15.2500 Du        
   7817 ****         2.7500 -23.7500 -15.0000 Du        
   7818 ****         2.7500 -23.7500 -14.7500 Du        
   7819 ****         2.7500 -23.5000 -15.7500 Du        
   7820 ****         2.7500 -23.5000 -15.5000 Du        
   7821 ****         2.7500 -23.5000 -15.2500 Du        
   7822 ****         2.7500 -23.5000 -15.0000 Du        
   7823 ****         2.7500 -23.2500 -15.7500 Du        
   7824 ****         2.7500 -23.2500 -15.5000 Du        
   7825 ****         2.7500 -23.2500 -15.2500 Du        
   7826 ****         2.7500 -23.2500 -15.0000 Du        
   7827 ****         2.7500 -23.0000 -15.7500 Du        
   7828 ****         2.7500 -23.0000 -15.2500 Du        
   7829 ****         2.7500 -23.0000 -15.0000 Du        
   7830 ****         2.7500 -19.7500 -14.5000 Du        
   7831 ****         2.7500 -19.5000 -15.0000 Du        
   7832 ****         2.7500 -19.5000 -14.7500 Du        
   7833 ****         2.7500 -19.5000 -14.5000 Du        
   7834 ****         2.7500 -19.5000 -14.2500 Du        
   7835 ****         2.7500 -19.2500 -15.0000 Du        
   7836 ****         2.7500 -19.2500 -14.7500 Du        
   7837 ****         2.7500 -19.2500 -14.5000 Du        
   7838 ****         2.7500 -19.2500 -14.2500 Du        
   7839 ****         2.7500 -18.2500 -19.2500 Du        
   7840 ****         2.7500 -18.2500 -19.0000 Du        
   7841 ****         2.7500 -18.2500 -18.7500 Du        
   7842 ****         2.7500 -18.0000 -19.2500 Du        
   7843 ****         2.7500 -18.0000 -19.0000 Du        
   7844 ****         3.0000 -26.0000 -14.0000 Du        
   7845 ****         3.0000 -26.0000 -13.7500 Du        
   7846 ****         3.0000 -25.7500 -14.2500 Du        
   7847 ****         3.0000 -25.7500 -14.0000 Du        
   7848 ****         3.0000 -25.7500 -13.7500 Du        
   7849 ****         3.0000 -25.7500 -13.5000 Du        
   7850 ****         3.0000 -25.5000 -14.5000 Du        
   7851 ****         3.0000 -25.5000 -14.2500 Du        
   7852 ****         3.0000 -25.5000 -14.0000 Du        
   7853 ****         3.0000 -25.5000 -13.7500 Du        
   7854 ****         3.0000 -25.5000 -13.5000 Du        
   7855 ****         3.0000 -25.2500 -14.5000 Du        
   7856 ****         3.0000 -25.2500 -14.2500 Du        
   7857 ****         3.0000 -25.2500 -14.0000 Du        
   7858 ****         3.0000 -25.2500 -13.7500 Du        
   7859 ****         3.0000 -25.2500 -13.5000 Du        
   7860 ****         3.0000 -25.2500 -13.2500 Du        
   7861 ****         3.0000 -25.0000 -14.7500 Du        
   7862 ****         3.0000 -25.0000 -14.5000 Du        
   7863 ****         3.0000 -25.0000 -14.2500 Du        
   7864 ****         3.0000 -25.0000 -14.0000 Du        
   7865 ****         3.0000 -25.0000 -13.7500 Du        
   7866 ****         3.0000 -25.0000 -13.5000 Du        
   7867 ****         3.0000 -24.7500 -15.0000 Du        
   7868 ****         3.0000 -24.7500 -14.7500 Du        
   7869 ****         3.0000 -24.7500 -14.5000 Du        
   7870 ****         3.0000 -24.7500 -14.2500 Du        
   7871 ****         3.0000 -24.7500 -14.0000 Du        
   7872 ****         3.0000 -24.7500 -13.7500 Du        
   7873 ****         3.0000 -24.7500 -13.5000 Du        
   7874 ****         3.0000 -24.5000 -15.2500 Du        
   7875 ****         3.0000 -24.5000 -15.0000 Du        
   7876 ****         3.0000 -24.5000 -14.7500 Du        
   7877 ****         3.0000 -24.5000 -14.5000 Du        
   7878 ****         3.0000 -24.5000 -14.2500 Du        
   7879 ****         3.0000 -24.5000 -14.0000 Du        
   7880 ****         3.0000 -24.5000 -13.7500 Du        
   7881 ****         3.0000 -24.2500 -15.5000 Du        
   7882 ****         3.0000 -24.2500 -15.2500 Du        
   7883 ****         3.0000 -24.2500 -15.0000 Du        
   7884 ****         3.0000 -24.2500 -14.7500 Du        
   7885 ****         3.0000 -24.2500 -14.5000 Du        
   7886 ****         3.0000 -24.2500 -14.2500 Du        
   7887 ****         3.0000 -24.2500 -14.0000 Du        
   7888 ****         3.0000 -24.0000 -15.7500 Du        
   7889 ****         3.0000 -24.0000 -15.5000 Du        
   7890 ****         3.0000 -24.0000 -15.2500 Du        
   7891 ****         3.0000 -24.0000 -15.0000 Du        
   7892 ****         3.0000 -24.0000 -14.7500 Du        
   7893 ****         3.0000 -24.0000 -14.5000 Du        
   7894 ****         3.0000 -24.0000 -14.2500 Du        
   7895 ****         3.0000 -23.7500 -15.7500 Du        
   7896 ****         3.0000 -23.7500 -15.5000 Du        
   7897 ****         3.0000 -23.7500 -15.2500 Du        
   7898 ****         3.0000 -23.7500 -15.0000 Du        
   7899 ****         3.0000 -23.7500 -14.7500 Du        
   7900 ****         3.0000 -23.7500 -14.5000 Du        
   7901 ****         3.0000 -23.5000 -15.2500 Du        
   7902 ****         3.0000 -23.5000 -15.0000 Du        
   7903 ****         3.0000 -23.5000 -14.7500 Du        
   7904 ****         3.0000 -23.2500 -15.2500 Du        
   7905 ****         3.0000 -23.2500 -15.0000 Du        
   7906 ****         3.0000 -23.0000 -15.0000 Du        
   7907 ****         3.0000 -19.5000 -15.0000 Du        
   7908 ****         3.0000 -19.5000 -14.7500 Du        
   7909 ****         3.0000 -19.5000 -14.5000 Du        
   7910 ****         3.0000 -19.2500 -14.7500 Du        
   7911 ****         3.0000 -18.2500 -19.5000 Du        
   7912 ****         3.0000 -18.2500 -19.2500 Du        
   7913 ****         3.0000 -18.2500 -19.0000 Du        
   7914 ****         3.0000 -18.2500 -18.7500 Du        
   7915 ****         3.0000 -18.0000 -19.7500 Du        
   7916 ****         3.0000 -18.0000 -19.5000 Du        
   7917 ****         3.0000 -18.0000 -19.2500 Du        
   7918 ****         3.0000 -18.0000 -19.0000 Du        
   7919 ****         3.0000 -18.0000 -18.7500 Du        
   7920 ****         3.0000 -17.7500 -19.5000 Du        
   7921 ****         3.0000 -17.7500 -19.2500 Du        
   7922 ****         3.0000 -17.7500 -19.0000 Du        
   7923 ****         3.0000 -12.2500 -18.0000 Du        
   7924 ****         3.0000 -12.0000 -18.0000 Du        
   7925 ****         3.0000 -12.0000 -17.7500 Du        
   7926 ****         3.0000 -12.0000 -17.5000 Du        
   7927 ****         3.2500 -26.0000 -14.0000 Du        
   7928 ****         3.2500 -26.0000 -13.7500 Du        
   7929 ****         3.2500 -25.7500 -14.2500 Du        
   7930 ****         3.2500 -25.7500 -14.0000 Du        
   7931 ****         3.2500 -25.7500 -13.7500 Du        
   7932 ****         3.2500 -25.5000 -14.5000 Du        
   7933 ****         3.2500 -25.5000 -14.2500 Du        
   7934 ****         3.2500 -25.5000 -14.0000 Du        
   7935 ****         3.2500 -25.5000 -13.7500 Du        
   7936 ****         3.2500 -25.5000 -13.5000 Du        
   7937 ****         3.2500 -25.2500 -14.5000 Du        
   7938 ****         3.2500 -25.2500 -14.2500 Du        
   7939 ****         3.2500 -25.2500 -14.0000 Du        
   7940 ****         3.2500 -25.2500 -13.7500 Du        
   7941 ****         3.2500 -25.2500 -13.5000 Du        
   7942 ****         3.2500 -25.2500 -13.2500 Du        
   7943 ****         3.2500 -25.0000 -14.7500 Du        
   7944 ****         3.2500 -25.0000 -14.5000 Du        
   7945 ****         3.2500 -25.0000 -14.2500 Du        
   7946 ****         3.2500 -25.0000 -14.0000 Du        
   7947 ****         3.2500 -25.0000 -13.7500 Du        
   7948 ****         3.2500 -25.0000 -13.5000 Du        
   7949 ****         3.2500 -25.0000 -13.2500 Du        
   7950 ****         3.2500 -24.7500 -15.0000 Du        
   7951 ****         3.2500 -24.7500 -14.7500 Du        
   7952 ****         3.2500 -24.7500 -14.5000 Du        
   7953 ****         3.2500 -24.7500 -14.2500 Du        
   7954 ****         3.2500 -24.7500 -14.0000 Du        
   7955 ****         3.2500 -24.7500 -13.7500 Du        
   7956 ****         3.2500 -24.7500 -13.5000 Du        
   7957 ****         3.2500 -24.5000 -15.2500 Du        
   7958 ****         3.2500 -24.5000 -15.0000 Du        
   7959 ****         3.2500 -24.5000 -14.7500 Du        
   7960 ****         3.2500 -24.5000 -14.5000 Du        
   7961 ****         3.2500 -24.5000 -14.2500 Du        
   7962 ****         3.2500 -24.5000 -14.0000 Du        
   7963 ****         3.2500 -24.5000 -13.7500 Du        
   7964 ****         3.2500 -24.2500 -15.5000 Du        
   7965 ****         3.2500 -24.2500 -15.2500 Du        
   7966 ****         3.2500 -24.2500 -15.0000 Du        
   7967 ****         3.2500 -24.2500 -14.7500 Du        
   7968 ****         3.2500 -24.2500 -14.5000 Du        
   7969 ****         3.2500 -24.2500 -14.2500 Du        
   7970 ****         3.2500 -24.2500 -14.0000 Du        
   7971 ****         3.2500 -24.0000 -15.5000 Du        
   7972 ****         3.2500 -24.0000 -15.2500 Du        
   7973 ****         3.2500 -24.0000 -15.0000 Du        
   7974 ****         3.2500 -24.0000 -14.7500 Du        
   7975 ****         3.2500 -24.0000 -14.5000 Du        
   7976 ****         3.2500 -24.0000 -14.2500 Du        
   7977 ****         3.2500 -24.0000 -14.0000 Du        
   7978 ****         3.2500 -23.7500 -15.5000 Du        
   7979 ****         3.2500 -23.7500 -15.2500 Du        
   7980 ****         3.2500 -23.7500 -15.0000 Du        
   7981 ****         3.2500 -23.7500 -14.7500 Du        
   7982 ****         3.2500 -23.7500 -14.5000 Du        
   7983 ****         3.2500 -23.7500 -14.2500 Du        
   7984 ****         3.2500 -23.5000 -15.0000 Du        
   7985 ****         3.2500 -23.5000 -14.7500 Du        
   7986 ****         3.2500 -23.0000 -15.0000 Du        
   7987 ****         3.2500 -19.7500 -15.0000 Du        
   7988 ****         3.2500 -19.5000 -15.0000 Du        
   7989 ****         3.2500 -19.5000 -14.7500 Du        
   7990 ****         3.2500 -18.2500 -19.7500 Du        
   7991 ****         3.2500 -18.0000 -20.0000 Du        
   7992 ****         3.2500 -18.0000 -19.7500 Du        
   7993 ****         3.2500 -18.0000 -19.5000 Du        
   7994 ****         3.2500 -18.0000 -19.2500 Du        
   7995 ****         3.2500 -18.0000 -19.0000 Du        
   7996 ****         3.2500 -18.0000 -18.7500 Du        
   7997 ****         3.2500 -17.7500 -20.0000 Du        
   7998 ****         3.2500 -17.7500 -19.7500 Du        
   7999 ****         3.2500 -17.7500 -19.5000 Du        
   8000 ****         3.2500 -17.7500 -19.2500 Du        
   8001 ****         3.2500 -17.7500 -19.0000 Du        
   8002 ****         3.2500 -17.5000 -19.7500 Du        
   8003 ****         3.2500 -17.5000 -19.5000 Du        
   8004 ****         3.2500 -17.5000 -19.2500 Du        
   8005 ****         3.2500 -17.5000 -19.0000 Du        
   8006 ****         3.2500 -17.2500 -19.7500 Du        
   8007 ****         3.2500 -17.2500 -19.5000 Du        
   8008 ****         3.2500 -17.2500 -19.2500 Du        
   8009 ****         3.2500 -17.2500 -19.0000 Du        
   8010 ****         3.2500 -17.0000 -20.0000 Du        
   8011 ****         3.2500 -17.0000 -19.7500 Du        
   8012 ****         3.2500 -16.7500 -19.7500 Du        
   8013 ****         3.2500 -12.2500 -18.2500 Du        
   8014 ****         3.2500 -12.2500 -18.0000 Du        
   8015 ****         3.2500 -12.0000 -18.0000 Du        
   8016 ****         3.2500 -12.0000 -17.7500 Du        
   8017 ****         3.5000 -26.0000 -14.0000 Du        
   8018 ****         3.5000 -25.7500 -14.2500 Du        
   8019 ****         3.5000 -25.7500 -14.0000 Du        
   8020 ****         3.5000 -25.7500 -13.7500 Du        
   8021 ****         3.5000 -25.5000 -14.5000 Du        
   8022 ****         3.5000 -25.5000 -14.2500 Du        
   8023 ****         3.5000 -25.5000 -14.0000 Du        
   8024 ****         3.5000 -25.5000 -13.7500 Du        
   8025 ****         3.5000 -25.5000 -13.5000 Du        
   8026 ****         3.5000 -25.2500 -14.7500 Du        
   8027 ****         3.5000 -25.2500 -14.5000 Du        
   8028 ****         3.5000 -25.2500 -14.2500 Du        
   8029 ****         3.5000 -25.2500 -14.0000 Du        
   8030 ****         3.5000 -25.2500 -13.7500 Du        
   8031 ****         3.5000 -25.2500 -13.5000 Du        
   8032 ****         3.5000 -25.2500 -13.2500 Du        
   8033 ****         3.5000 -25.0000 -14.7500 Du        
   8034 ****         3.5000 -25.0000 -14.5000 Du        
   8035 ****         3.5000 -25.0000 -14.2500 Du        
   8036 ****         3.5000 -25.0000 -14.0000 Du        
   8037 ****         3.5000 -25.0000 -13.7500 Du        
   8038 ****         3.5000 -25.0000 -13.5000 Du        
   8039 ****         3.5000 -25.0000 -13.2500 Du        
   8040 ****         3.5000 -24.7500 -15.0000 Du        
   8041 ****         3.5000 -24.7500 -14.7500 Du        
   8042 ****         3.5000 -24.7500 -14.5000 Du        
   8043 ****         3.5000 -24.7500 -14.2500 Du        
   8044 ****         3.5000 -24.7500 -14.0000 Du        
   8045 ****         3.5000 -24.7500 -13.7500 Du        
   8046 ****         3.5000 -24.7500 -13.5000 Du        
   8047 ****         3.5000 -24.7500 -13.2500 Du        
   8048 ****         3.5000 -24.5000 -15.2500 Du        
   8049 ****         3.5000 -24.5000 -15.0000 Du        
   8050 ****         3.5000 -24.5000 -14.7500 Du        
   8051 ****         3.5000 -24.5000 -14.5000 Du        
   8052 ****         3.5000 -24.5000 -14.2500 Du        
   8053 ****         3.5000 -24.5000 -14.0000 Du        
   8054 ****         3.5000 -24.5000 -13.7500 Du        
   8055 ****         3.5000 -24.5000 -13.5000 Du        
   8056 ****         3.5000 -24.2500 -15.2500 Du        
   8057 ****         3.5000 -24.2500 -15.0000 Du        
   8058 ****         3.5000 -24.2500 -14.7500 Du        
   8059 ****         3.5000 -24.2500 -14.5000 Du        
   8060 ****         3.5000 -24.2500 -14.2500 Du        
   8061 ****         3.5000 -24.2500 -14.0000 Du        
   8062 ****         3.5000 -24.2500 -13.7500 Du        
   8063 ****         3.5000 -24.0000 -15.2500 Du        
   8064 ****         3.5000 -24.0000 -15.0000 Du        
   8065 ****         3.5000 -24.0000 -14.7500 Du        
   8066 ****         3.5000 -24.0000 -14.5000 Du        
   8067 ****         3.5000 -24.0000 -14.2500 Du        
   8068 ****         3.5000 -24.0000 -14.0000 Du        
   8069 ****         3.5000 -23.7500 -15.2500 Du        
   8070 ****         3.5000 -23.7500 -15.0000 Du        
   8071 ****         3.5000 -23.7500 -14.7500 Du        
   8072 ****         3.5000 -23.7500 -14.5000 Du        
   8073 ****         3.5000 -23.7500 -14.2500 Du        
   8074 ****         3.5000 -23.7500 -14.0000 Du        
   8075 ****         3.5000 -23.5000 -15.0000 Du        
   8076 ****         3.5000 -23.5000 -14.7500 Du        
   8077 ****         3.5000 -23.5000 -14.5000 Du        
   8078 ****         3.5000 -23.2500 -15.0000 Du        
   8079 ****         3.5000 -23.2500 -14.7500 Du        
   8080 ****         3.5000 -18.0000 -20.2500 Du        
   8081 ****         3.5000 -18.0000 -20.0000 Du        
   8082 ****         3.5000 -18.0000 -19.7500 Du        
   8083 ****         3.5000 -18.0000 -19.5000 Du        
   8084 ****         3.5000 -18.0000 -19.2500 Du        
   8085 ****         3.5000 -18.0000 -19.0000 Du        
   8086 ****         3.5000 -18.0000 -18.7500 Du        
   8087 ****         3.5000 -17.7500 -20.2500 Du        
   8088 ****         3.5000 -17.7500 -20.0000 Du        
   8089 ****         3.5000 -17.7500 -19.7500 Du        
   8090 ****         3.5000 -17.7500 -19.5000 Du        
   8091 ****         3.5000 -17.7500 -19.2500 Du        
   8092 ****         3.5000 -17.7500 -19.0000 Du        
   8093 ****         3.5000 -17.7500 -18.7500 Du        
   8094 ****         3.5000 -17.5000 -20.2500 Du        
   8095 ****         3.5000 -17.5000 -20.0000 Du        
   8096 ****         3.5000 -17.5000 -19.7500 Du        
   8097 ****         3.5000 -17.5000 -19.5000 Du        
   8098 ****         3.5000 -17.5000 -19.2500 Du        
   8099 ****         3.5000 -17.5000 -19.0000 Du        
   8100 ****         3.5000 -17.5000 -18.7500 Du        
   8101 ****         3.5000 -17.2500 -20.2500 Du        
   8102 ****         3.5000 -17.2500 -20.0000 Du        
   8103 ****         3.5000 -17.2500 -19.7500 Du        
   8104 ****         3.5000 -17.2500 -19.5000 Du        
   8105 ****         3.5000 -17.2500 -19.2500 Du        
   8106 ****         3.5000 -17.2500 -19.0000 Du        
   8107 ****         3.5000 -17.0000 -20.2500 Du        
   8108 ****         3.5000 -17.0000 -20.0000 Du        
   8109 ****         3.5000 -17.0000 -19.7500 Du        
   8110 ****         3.5000 -17.0000 -19.5000 Du        
   8111 ****         3.5000 -17.0000 -19.2500 Du        
   8112 ****         3.5000 -17.0000 -19.0000 Du        
   8113 ****         3.5000 -16.7500 -20.0000 Du        
   8114 ****         3.5000 -16.7500 -19.7500 Du        
   8115 ****         3.5000 -16.7500 -19.5000 Du        
   8116 ****         3.5000 -16.7500 -19.2500 Du        
   8117 ****         3.5000 -16.5000 -20.0000 Du        
   8118 ****         3.5000 -16.5000 -19.7500 Du        
   8119 ****         3.5000 -16.2500 -20.0000 Du        
   8120 ****         3.5000 -16.2500 -19.7500 Du        
   8121 ****         3.5000 -16.0000 -19.7500 Du        
   8122 ****         3.5000 -12.2500 -18.2500 Du        
   8123 ****         3.5000 -12.2500 -18.0000 Du        
   8124 ****         3.5000 -12.0000 -18.2500 Du        
   8125 ****         3.5000 -12.0000 -18.0000 Du        
   8126 ****         3.7500 -25.7500 -14.2500 Du        
   8127 ****         3.7500 -25.7500 -14.0000 Du        
   8128 ****         3.7500 -25.7500 -13.7500 Du        
   8129 ****         3.7500 -25.5000 -14.2500 Du        
   8130 ****         3.7500 -25.5000 -14.0000 Du        
   8131 ****         3.7500 -25.5000 -13.7500 Du        
   8132 ****         3.7500 -25.2500 -14.5000 Du        
   8133 ****         3.7500 -25.2500 -14.2500 Du        
   8134 ****         3.7500 -25.2500 -14.0000 Du        
   8135 ****         3.7500 -25.2500 -13.7500 Du        
   8136 ****         3.7500 -25.2500 -13.5000 Du        
   8137 ****         3.7500 -25.0000 -14.7500 Du        
   8138 ****         3.7500 -25.0000 -14.5000 Du        
   8139 ****         3.7500 -25.0000 -14.2500 Du        
   8140 ****         3.7500 -25.0000 -14.0000 Du        
   8141 ****         3.7500 -25.0000 -13.7500 Du        
   8142 ****         3.7500 -25.0000 -13.5000 Du        
   8143 ****         3.7500 -25.0000 -13.2500 Du        
   8144 ****         3.7500 -24.7500 -15.0000 Du        
   8145 ****         3.7500 -24.7500 -14.7500 Du        
   8146 ****         3.7500 -24.7500 -14.5000 Du        
   8147 ****         3.7500 -24.7500 -14.2500 Du        
   8148 ****         3.7500 -24.7500 -14.0000 Du        
   8149 ****         3.7500 -24.7500 -13.7500 Du        
   8150 ****         3.7500 -24.7500 -13.5000 Du        
   8151 ****         3.7500 -24.7500 -13.2500 Du        
   8152 ****         3.7500 -24.5000 -15.2500 Du        
   8153 ****         3.7500 -24.5000 -15.0000 Du        
   8154 ****         3.7500 -24.5000 -14.7500 Du        
   8155 ****         3.7500 -24.5000 -14.5000 Du        
   8156 ****         3.7500 -24.5000 -14.2500 Du        
   8157 ****         3.7500 -24.5000 -14.0000 Du        
   8158 ****         3.7500 -24.5000 -13.7500 Du        
   8159 ****         3.7500 -24.5000 -13.5000 Du        
   8160 ****         3.7500 -24.2500 -15.2500 Du        
   8161 ****         3.7500 -24.2500 -15.0000 Du        
   8162 ****         3.7500 -24.2500 -14.7500 Du        
   8163 ****         3.7500 -24.2500 -14.5000 Du        
   8164 ****         3.7500 -24.2500 -14.2500 Du        
   8165 ****         3.7500 -24.2500 -14.0000 Du        
   8166 ****         3.7500 -24.2500 -13.7500 Du        
   8167 ****         3.7500 -24.2500 -13.5000 Du        
   8168 ****         3.7500 -24.0000 -15.2500 Du        
   8169 ****         3.7500 -24.0000 -15.0000 Du        
   8170 ****         3.7500 -24.0000 -14.7500 Du        
   8171 ****         3.7500 -24.0000 -14.5000 Du        
   8172 ****         3.7500 -24.0000 -14.2500 Du        
   8173 ****         3.7500 -24.0000 -14.0000 Du        
   8174 ****         3.7500 -24.0000 -13.7500 Du        
   8175 ****         3.7500 -23.7500 -15.2500 Du        
   8176 ****         3.7500 -23.7500 -15.0000 Du        
   8177 ****         3.7500 -23.7500 -14.7500 Du        
   8178 ****         3.7500 -23.7500 -14.5000 Du        
   8179 ****         3.7500 -23.7500 -14.2500 Du        
   8180 ****         3.7500 -23.7500 -14.0000 Du        
   8181 ****         3.7500 -23.5000 -15.0000 Du        
   8182 ****         3.7500 -23.5000 -14.7500 Du        
   8183 ****         3.7500 -23.5000 -14.5000 Du        
   8184 ****         3.7500 -23.5000 -14.2500 Du        
   8185 ****         3.7500 -23.2500 -14.7500 Du        
   8186 ****         3.7500 -23.2500 -14.5000 Du        
   8187 ****         3.7500 -23.2500 -14.2500 Du        
   8188 ****         3.7500 -19.7500 -15.0000 Du        
   8189 ****         3.7500 -19.5000 -15.0000 Du        
   8190 ****         3.7500 -18.0000 -20.5000 Du        
   8191 ****         3.7500 -18.0000 -20.2500 Du        
   8192 ****         3.7500 -18.0000 -20.0000 Du        
   8193 ****         3.7500 -18.0000 -19.7500 Du        
   8194 ****         3.7500 -18.0000 -19.5000 Du        
   8195 ****         3.7500 -18.0000 -19.2500 Du        
   8196 ****         3.7500 -18.0000 -19.0000 Du        
   8197 ****         3.7500 -18.0000 -18.7500 Du        
   8198 ****         3.7500 -17.7500 -20.5000 Du        
   8199 ****         3.7500 -17.7500 -20.2500 Du        
   8200 ****         3.7500 -17.7500 -20.0000 Du        
   8201 ****         3.7500 -17.7500 -19.7500 Du        
   8202 ****         3.7500 -17.7500 -19.5000 Du        
   8203 ****         3.7500 -17.7500 -19.2500 Du        
   8204 ****         3.7500 -17.7500 -19.0000 Du        
   8205 ****         3.7500 -17.7500 -18.7500 Du        
   8206 ****         3.7500 -17.5000 -20.5000 Du        
   8207 ****         3.7500 -17.5000 -20.2500 Du        
   8208 ****         3.7500 -17.5000 -20.0000 Du        
   8209 ****         3.7500 -17.5000 -19.7500 Du        
   8210 ****         3.7500 -17.5000 -19.5000 Du        
   8211 ****         3.7500 -17.5000 -19.2500 Du        
   8212 ****         3.7500 -17.5000 -19.0000 Du        
   8213 ****         3.7500 -17.5000 -18.7500 Du        
   8214 ****         3.7500 -17.2500 -20.5000 Du        
   8215 ****         3.7500 -17.2500 -20.2500 Du        
   8216 ****         3.7500 -17.2500 -20.0000 Du        
   8217 ****         3.7500 -17.2500 -19.7500 Du        
   8218 ****         3.7500 -17.2500 -19.5000 Du        
   8219 ****         3.7500 -17.2500 -19.2500 Du        
   8220 ****         3.7500 -17.2500 -19.0000 Du        
   8221 ****         3.7500 -17.2500 -18.7500 Du        
   8222 ****         3.7500 -17.0000 -20.5000 Du        
   8223 ****         3.7500 -17.0000 -20.2500 Du        
   8224 ****         3.7500 -17.0000 -20.0000 Du        
   8225 ****         3.7500 -17.0000 -19.7500 Du        
   8226 ****         3.7500 -17.0000 -19.5000 Du        
   8227 ****         3.7500 -17.0000 -19.2500 Du        
   8228 ****         3.7500 -17.0000 -19.0000 Du        
   8229 ****         3.7500 -16.7500 -20.2500 Du        
   8230 ****         3.7500 -16.7500 -20.0000 Du        
   8231 ****         3.7500 -16.7500 -19.7500 Du        
   8232 ****         3.7500 -16.7500 -19.5000 Du        
   8233 ****         3.7500 -16.7500 -19.2500 Du        
   8234 ****         3.7500 -16.5000 -20.0000 Du        
   8235 ****         3.7500 -16.5000 -19.7500 Du        
   8236 ****         3.7500 -16.2500 -20.0000 Du        
   8237 ****         3.7500 -16.2500 -19.7500 Du        
   8238 ****         3.7500 -16.0000 -20.0000 Du        
   8239 ****         3.7500 -16.0000 -19.7500 Du        
   8240 ****         3.7500 -15.7500 -20.0000 Du        
   8241 ****         3.7500 -15.7500 -19.7500 Du        
   8242 ****         3.7500 -12.5000 -18.5000 Du        
   8243 ****         3.7500 -12.2500 -18.5000 Du        
   8244 ****         3.7500 -12.2500 -18.2500 Du        
   8245 ****         3.7500 -12.2500 -18.0000 Du        
   8246 ****         3.7500 -12.0000 -18.2500 Du        
   8247 ****         3.7500 -12.0000 -18.0000 Du        
   8248 ****         4.0000 -25.5000 -14.2500 Du        
   8249 ****         4.0000 -25.5000 -14.0000 Du        
   8250 ****         4.0000 -25.5000 -13.7500 Du        
   8251 ****         4.0000 -25.2500 -14.5000 Du        
   8252 ****         4.0000 -25.2500 -14.2500 Du        
   8253 ****         4.0000 -25.2500 -14.0000 Du        
   8254 ****         4.0000 -25.2500 -13.7500 Du        
   8255 ****         4.0000 -25.2500 -13.5000 Du        
   8256 ****         4.0000 -25.0000 -14.7500 Du        
   8257 ****         4.0000 -25.0000 -14.5000 Du        
   8258 ****         4.0000 -25.0000 -14.2500 Du        
   8259 ****         4.0000 -25.0000 -14.0000 Du        
   8260 ****         4.0000 -25.0000 -13.7500 Du        
   8261 ****         4.0000 -25.0000 -13.5000 Du        
   8262 ****         4.0000 -25.0000 -13.2500 Du        
   8263 ****         4.0000 -24.7500 -15.0000 Du        
   8264 ****         4.0000 -24.7500 -14.7500 Du        
   8265 ****         4.0000 -24.7500 -14.5000 Du        
   8266 ****         4.0000 -24.7500 -14.2500 Du        
   8267 ****         4.0000 -24.7500 -14.0000 Du        
   8268 ****         4.0000 -24.7500 -13.7500 Du        
   8269 ****         4.0000 -24.7500 -13.5000 Du        
   8270 ****         4.0000 -24.7500 -13.2500 Du        
   8271 ****         4.0000 -24.5000 -15.0000 Du        
   8272 ****         4.0000 -24.5000 -14.7500 Du        
   8273 ****         4.0000 -24.5000 -14.5000 Du        
   8274 ****         4.0000 -24.5000 -14.2500 Du        
   8275 ****         4.0000 -24.5000 -14.0000 Du        
   8276 ****         4.0000 -24.5000 -13.7500 Du        
   8277 ****         4.0000 -24.5000 -13.5000 Du        
   8278 ****         4.0000 -24.5000 -13.2500 Du        
   8279 ****         4.0000 -24.2500 -15.0000 Du        
   8280 ****         4.0000 -24.2500 -14.7500 Du        
   8281 ****         4.0000 -24.2500 -14.5000 Du        
   8282 ****         4.0000 -24.2500 -14.2500 Du        
   8283 ****         4.0000 -24.2500 -14.0000 Du        
   8284 ****         4.0000 -24.2500 -13.7500 Du        
   8285 ****         4.0000 -24.2500 -13.5000 Du        
   8286 ****         4.0000 -24.2500 -13.2500 Du        
   8287 ****         4.0000 -24.0000 -15.0000 Du        
   8288 ****         4.0000 -24.0000 -14.7500 Du        
   8289 ****         4.0000 -24.0000 -14.5000 Du        
   8290 ****         4.0000 -24.0000 -14.2500 Du        
   8291 ****         4.0000 -24.0000 -14.0000 Du        
   8292 ****         4.0000 -24.0000 -13.7500 Du        
   8293 ****         4.0000 -24.0000 -13.5000 Du        
   8294 ****         4.0000 -23.7500 -15.0000 Du        
   8295 ****         4.0000 -23.7500 -14.7500 Du        
   8296 ****         4.0000 -23.7500 -14.5000 Du        
   8297 ****         4.0000 -23.7500 -14.2500 Du        
   8298 ****         4.0000 -23.7500 -14.0000 Du        
   8299 ****         4.0000 -23.7500 -13.7500 Du        
   8300 ****         4.0000 -23.5000 -15.0000 Du        
   8301 ****         4.0000 -23.5000 -14.7500 Du        
   8302 ****         4.0000 -23.5000 -14.5000 Du        
   8303 ****         4.0000 -23.5000 -14.2500 Du        
   8304 ****         4.0000 -23.5000 -14.0000 Du        
   8305 ****         4.0000 -23.2500 -15.0000 Du        
   8306 ****         4.0000 -23.2500 -14.7500 Du        
   8307 ****         4.0000 -23.2500 -14.5000 Du        
   8308 ****         4.0000 -23.2500 -14.2500 Du        
   8309 ****         4.0000 -23.2500 -14.0000 Du        
   8310 ****         4.0000 -23.0000 -14.5000 Du        
   8311 ****         4.0000 -23.0000 -14.2500 Du        
   8312 ****         4.0000 -22.7500 -14.5000 Du        
   8313 ****         4.0000 -20.2500 -15.0000 Du        
   8314 ****         4.0000 -19.7500 -15.2500 Du        
   8315 ****         4.0000 -19.7500 -15.0000 Du        
   8316 ****         4.0000 -18.0000 -20.7500 Du        
   8317 ****         4.0000 -18.0000 -20.5000 Du        
   8318 ****         4.0000 -18.0000 -20.2500 Du        
   8319 ****         4.0000 -18.0000 -20.0000 Du        
   8320 ****         4.0000 -18.0000 -19.7500 Du        
   8321 ****         4.0000 -18.0000 -19.5000 Du        
   8322 ****         4.0000 -18.0000 -19.2500 Du        
   8323 ****         4.0000 -18.0000 -19.0000 Du        
   8324 ****         4.0000 -18.0000 -18.7500 Du        
   8325 ****         4.0000 -17.7500 -20.7500 Du        
   8326 ****         4.0000 -17.7500 -20.5000 Du        
   8327 ****         4.0000 -17.7500 -20.2500 Du        
   8328 ****         4.0000 -17.7500 -20.0000 Du        
   8329 ****         4.0000 -17.7500 -19.7500 Du        
   8330 ****         4.0000 -17.7500 -19.5000 Du        
   8331 ****         4.0000 -17.7500 -19.2500 Du        
   8332 ****         4.0000 -17.7500 -19.0000 Du        
   8333 ****         4.0000 -17.7500 -18.7500 Du        
   8334 ****         4.0000 -17.7500 -18.5000 Du        
   8335 ****         4.0000 -17.5000 -20.7500 Du        
   8336 ****         4.0000 -17.5000 -20.5000 Du        
   8337 ****         4.0000 -17.5000 -20.2500 Du        
   8338 ****         4.0000 -17.5000 -20.0000 Du        
   8339 ****         4.0000 -17.5000 -19.7500 Du        
   8340 ****         4.0000 -17.5000 -19.5000 Du        
   8341 ****         4.0000 -17.5000 -19.2500 Du        
   8342 ****         4.0000 -17.5000 -19.0000 Du        
   8343 ****         4.0000 -17.5000 -18.7500 Du        
   8344 ****         4.0000 -17.2500 -20.7500 Du        
   8345 ****         4.0000 -17.2500 -20.5000 Du        
   8346 ****         4.0000 -17.2500 -20.2500 Du        
   8347 ****         4.0000 -17.2500 -20.0000 Du        
   8348 ****         4.0000 -17.2500 -19.7500 Du        
   8349 ****         4.0000 -17.2500 -19.5000 Du        
   8350 ****         4.0000 -17.2500 -19.2500 Du        
   8351 ****         4.0000 -17.2500 -19.0000 Du        
   8352 ****         4.0000 -17.2500 -18.7500 Du        
   8353 ****         4.0000 -17.0000 -20.5000 Du        
   8354 ****         4.0000 -17.0000 -20.2500 Du        
   8355 ****         4.0000 -17.0000 -20.0000 Du        
   8356 ****         4.0000 -17.0000 -19.7500 Du        
   8357 ****         4.0000 -17.0000 -19.5000 Du        
   8358 ****         4.0000 -17.0000 -19.2500 Du        
   8359 ****         4.0000 -17.0000 -19.0000 Du        
   8360 ****         4.0000 -17.0000 -18.7500 Du        
   8361 ****         4.0000 -16.7500 -20.5000 Du        
   8362 ****         4.0000 -16.7500 -20.2500 Du        
   8363 ****         4.0000 -16.7500 -20.0000 Du        
   8364 ****         4.0000 -16.7500 -19.7500 Du        
   8365 ****         4.0000 -16.7500 -19.5000 Du        
   8366 ****         4.0000 -16.7500 -19.2500 Du        
   8367 ****         4.0000 -16.7500 -19.0000 Du        
   8368 ****         4.0000 -16.5000 -20.2500 Du        
   8369 ****         4.0000 -16.5000 -20.0000 Du        
   8370 ****         4.0000 -16.5000 -19.7500 Du        
   8371 ****         4.0000 -16.5000 -19.5000 Du        
   8372 ****         4.0000 -16.2500 -20.2500 Du        
   8373 ****         4.0000 -16.2500 -20.0000 Du        
   8374 ****         4.0000 -16.2500 -19.7500 Du        
   8375 ****         4.0000 -16.2500 -19.5000 Du        
   8376 ****         4.0000 -16.0000 -20.2500 Du        
   8377 ****         4.0000 -16.0000 -20.0000 Du        
   8378 ****         4.0000 -16.0000 -19.7500 Du        
   8379 ****         4.0000 -15.7500 -20.2500 Du        
   8380 ****         4.0000 -15.7500 -20.0000 Du        
   8381 ****         4.0000 -15.7500 -19.7500 Du        
   8382 ****         4.0000 -15.5000 -19.7500 Du        
   8383 ****         4.0000 -15.2500 -20.0000 Du        
   8384 ****         4.0000 -12.5000 -18.5000 Du        
   8385 ****         4.0000 -12.5000 -18.2500 Du        
   8386 ****         4.0000 -12.2500 -18.5000 Du        
   8387 ****         4.0000 -12.2500 -18.2500 Du        
   8388 ****         4.0000 -12.2500 -18.0000 Du        
   8389 ****         4.0000 -12.0000 -18.5000 Du        
   8390 ****         4.0000 -12.0000 -18.2500 Du        
   8391 ****         4.2500 -25.2500 -14.2500 Du        
   8392 ****         4.2500 -25.2500 -14.0000 Du        
   8393 ****         4.2500 -25.2500 -13.7500 Du        
   8394 ****         4.2500 -25.2500 -13.5000 Du        
   8395 ****         4.2500 -25.0000 -14.2500 Du        
   8396 ****         4.2500 -25.0000 -14.0000 Du        
   8397 ****         4.2500 -25.0000 -13.7500 Du        
   8398 ****         4.2500 -25.0000 -13.5000 Du        
   8399 ****         4.2500 -25.0000 -13.2500 Du        
   8400 ****         4.2500 -24.7500 -14.5000 Du        
   8401 ****         4.2500 -24.7500 -14.2500 Du        
   8402 ****         4.2500 -24.7500 -14.0000 Du        
   8403 ****         4.2500 -24.7500 -13.7500 Du        
   8404 ****         4.2500 -24.7500 -13.5000 Du        
   8405 ****         4.2500 -24.7500 -13.2500 Du        
   8406 ****         4.2500 -24.7500 -13.0000 Du        
   8407 ****         4.2500 -24.5000 -14.7500 Du        
   8408 ****         4.2500 -24.5000 -14.5000 Du        
   8409 ****         4.2500 -24.5000 -14.2500 Du        
   8410 ****         4.2500 -24.5000 -14.0000 Du        
   8411 ****         4.2500 -24.5000 -13.7500 Du        
   8412 ****         4.2500 -24.5000 -13.5000 Du        
   8413 ****         4.2500 -24.5000 -13.2500 Du        
   8414 ****         4.2500 -24.5000 -13.0000 Du        
   8415 ****         4.2500 -24.2500 -15.0000 Du        
   8416 ****         4.2500 -24.2500 -14.7500 Du        
   8417 ****         4.2500 -24.2500 -14.5000 Du        
   8418 ****         4.2500 -24.2500 -14.2500 Du        
   8419 ****         4.2500 -24.2500 -14.0000 Du        
   8420 ****         4.2500 -24.2500 -13.7500 Du        
   8421 ****         4.2500 -24.2500 -13.5000 Du        
   8422 ****         4.2500 -24.2500 -13.2500 Du        
   8423 ****         4.2500 -24.2500 -13.0000 Du        
   8424 ****         4.2500 -24.0000 -15.0000 Du        
   8425 ****         4.2500 -24.0000 -14.7500 Du        
   8426 ****         4.2500 -24.0000 -14.5000 Du        
   8427 ****         4.2500 -24.0000 -14.2500 Du        
   8428 ****         4.2500 -24.0000 -14.0000 Du        
   8429 ****         4.2500 -24.0000 -13.7500 Du        
   8430 ****         4.2500 -24.0000 -13.5000 Du        
   8431 ****         4.2500 -24.0000 -13.2500 Du        
   8432 ****         4.2500 -23.7500 -15.0000 Du        
   8433 ****         4.2500 -23.7500 -14.7500 Du        
   8434 ****         4.2500 -23.7500 -14.5000 Du        
   8435 ****         4.2500 -23.7500 -14.2500 Du        
   8436 ****         4.2500 -23.7500 -14.0000 Du        
   8437 ****         4.2500 -23.7500 -13.7500 Du        
   8438 ****         4.2500 -23.7500 -13.5000 Du        
   8439 ****         4.2500 -23.5000 -14.7500 Du        
   8440 ****         4.2500 -23.5000 -14.5000 Du        
   8441 ****         4.2500 -23.5000 -14.2500 Du        
   8442 ****         4.2500 -23.5000 -14.0000 Du        
   8443 ****         4.2500 -23.5000 -13.7500 Du        
   8444 ****         4.2500 -23.2500 -14.7500 Du        
   8445 ****         4.2500 -23.2500 -14.5000 Du        
   8446 ****         4.2500 -23.2500 -14.2500 Du        
   8447 ****         4.2500 -23.2500 -14.0000 Du        
   8448 ****         4.2500 -23.0000 -14.7500 Du        
   8449 ****         4.2500 -23.0000 -14.5000 Du        
   8450 ****         4.2500 -23.0000 -14.2500 Du        
   8451 ****         4.2500 -23.0000 -14.0000 Du        
   8452 ****         4.2500 -22.7500 -14.5000 Du        
   8453 ****         4.2500 -22.7500 -14.2500 Du        
   8454 ****         4.2500 -20.2500 -15.2500 Du        
   8455 ****         4.2500 -20.2500 -15.0000 Du        
   8456 ****         4.2500 -20.2500 -14.7500 Du        
   8457 ****         4.2500 -20.0000 -15.2500 Du        
   8458 ****         4.2500 -20.0000 -15.0000 Du        
   8459 ****         4.2500 -20.0000 -14.7500 Du        
   8460 ****         4.2500 -19.7500 -15.2500 Du        
   8461 ****         4.2500 -19.7500 -15.0000 Du        
   8462 ****         4.2500 -19.7500 -14.7500 Du        
   8463 ****         4.2500 -19.5000 -15.2500 Du        
   8464 ****         4.2500 -18.0000 -20.7500 Du        
   8465 ****         4.2500 -18.0000 -20.5000 Du        
   8466 ****         4.2500 -18.0000 -20.2500 Du        
   8467 ****         4.2500 -18.0000 -20.0000 Du        
   8468 ****         4.2500 -18.0000 -19.7500 Du        
   8469 ****         4.2500 -18.0000 -19.0000 Du        
   8470 ****         4.2500 -17.7500 -21.0000 Du        
   8471 ****         4.2500 -17.7500 -20.7500 Du        
   8472 ****         4.2500 -17.7500 -20.5000 Du        
   8473 ****         4.2500 -17.7500 -20.2500 Du        
   8474 ****         4.2500 -17.7500 -20.0000 Du        
   8475 ****         4.2500 -17.7500 -19.7500 Du        
   8476 ****         4.2500 -17.7500 -19.5000 Du        
   8477 ****         4.2500 -17.7500 -19.2500 Du        
   8478 ****         4.2500 -17.7500 -19.0000 Du        
   8479 ****         4.2500 -17.7500 -18.7500 Du        
   8480 ****         4.2500 -17.7500 -18.5000 Du        
   8481 ****         4.2500 -17.5000 -20.7500 Du        
   8482 ****         4.2500 -17.5000 -20.5000 Du        
   8483 ****         4.2500 -17.5000 -20.2500 Du        
   8484 ****         4.2500 -17.5000 -20.0000 Du        
   8485 ****         4.2500 -17.5000 -19.7500 Du        
   8486 ****         4.2500 -17.5000 -19.5000 Du        
   8487 ****         4.2500 -17.5000 -19.2500 Du        
   8488 ****         4.2500 -17.5000 -19.0000 Du        
   8489 ****         4.2500 -17.5000 -18.7500 Du        
   8490 ****         4.2500 -17.2500 -20.7500 Du        
   8491 ****         4.2500 -17.2500 -20.5000 Du        
   8492 ****         4.2500 -17.2500 -20.2500 Du        
   8493 ****         4.2500 -17.2500 -20.0000 Du        
   8494 ****         4.2500 -17.2500 -19.7500 Du        
   8495 ****         4.2500 -17.2500 -19.5000 Du        
   8496 ****         4.2500 -17.2500 -19.2500 Du        
   8497 ****         4.2500 -17.2500 -19.0000 Du        
   8498 ****         4.2500 -17.2500 -18.7500 Du        
   8499 ****         4.2500 -17.0000 -20.7500 Du        
   8500 ****         4.2500 -17.0000 -20.5000 Du        
   8501 ****         4.2500 -17.0000 -20.2500 Du        
   8502 ****         4.2500 -17.0000 -20.0000 Du        
   8503 ****         4.2500 -17.0000 -19.7500 Du        
   8504 ****         4.2500 -17.0000 -19.5000 Du        
   8505 ****         4.2500 -17.0000 -19.2500 Du        
   8506 ****         4.2500 -17.0000 -19.0000 Du        
   8507 ****         4.2500 -17.0000 -18.7500 Du        
   8508 ****         4.2500 -16.7500 -20.5000 Du        
   8509 ****         4.2500 -16.7500 -20.2500 Du        
   8510 ****         4.2500 -16.7500 -20.0000 Du        
   8511 ****         4.2500 -16.7500 -19.7500 Du        
   8512 ****         4.2500 -16.7500 -19.5000 Du        
   8513 ****         4.2500 -16.7500 -19.2500 Du        
   8514 ****         4.2500 -16.7500 -19.0000 Du        
   8515 ****         4.2500 -16.5000 -20.2500 Du        
   8516 ****         4.2500 -16.5000 -20.0000 Du        
   8517 ****         4.2500 -16.5000 -19.7500 Du        
   8518 ****         4.2500 -16.5000 -19.5000 Du        
   8519 ****         4.2500 -16.5000 -19.2500 Du        
   8520 ****         4.2500 -16.2500 -20.2500 Du        
   8521 ****         4.2500 -16.2500 -20.0000 Du        
   8522 ****         4.2500 -16.2500 -19.7500 Du        
   8523 ****         4.2500 -16.2500 -19.5000 Du        
   8524 ****         4.2500 -16.2500 -19.2500 Du        
   8525 ****         4.2500 -16.0000 -20.2500 Du        
   8526 ****         4.2500 -16.0000 -20.0000 Du        
   8527 ****         4.2500 -16.0000 -19.7500 Du        
   8528 ****         4.2500 -16.0000 -19.5000 Du        
   8529 ****         4.2500 -16.0000 -19.2500 Du        
   8530 ****         4.2500 -15.7500 -20.2500 Du        
   8531 ****         4.2500 -15.7500 -20.0000 Du        
   8532 ****         4.2500 -15.7500 -19.7500 Du        
   8533 ****         4.2500 -15.7500 -19.5000 Du        
   8534 ****         4.2500 -15.5000 -20.0000 Du        
   8535 ****         4.2500 -15.5000 -19.7500 Du        
   8536 ****         4.2500 -12.5000 -18.5000 Du        
   8537 ****         4.2500 -12.2500 -18.5000 Du        
   8538 ****         4.2500 -12.2500 -18.2500 Du        
   8539 ****         4.2500 -12.0000 -18.5000 Du        
   8540 ****         4.2500 -12.0000 -18.2500 Du        
   8541 ****         4.5000 -25.2500 -13.7500 Du        
   8542 ****         4.5000 -25.0000 -14.0000 Du        
   8543 ****         4.5000 -25.0000 -13.7500 Du        
   8544 ****         4.5000 -25.0000 -13.5000 Du        
   8545 ****         4.5000 -25.0000 -13.2500 Du        
   8546 ****         4.5000 -24.7500 -14.2500 Du        
   8547 ****         4.5000 -24.7500 -14.0000 Du        
   8548 ****         4.5000 -24.7500 -13.7500 Du        
   8549 ****         4.5000 -24.7500 -13.5000 Du        
   8550 ****         4.5000 -24.7500 -13.2500 Du        
   8551 ****         4.5000 -24.7500 -13.0000 Du        
   8552 ****         4.5000 -24.5000 -14.2500 Du        
   8553 ****         4.5000 -24.5000 -14.0000 Du        
   8554 ****         4.5000 -24.5000 -13.7500 Du        
   8555 ****         4.5000 -24.5000 -13.5000 Du        
   8556 ****         4.5000 -24.5000 -13.2500 Du        
   8557 ****         4.5000 -24.5000 -13.0000 Du        
   8558 ****         4.5000 -24.5000 -12.7500 Du        
   8559 ****         4.5000 -24.2500 -14.5000 Du        
   8560 ****         4.5000 -24.2500 -14.2500 Du        
   8561 ****         4.5000 -24.2500 -14.0000 Du        
   8562 ****         4.5000 -24.2500 -13.7500 Du        
   8563 ****         4.5000 -24.2500 -13.5000 Du        
   8564 ****         4.5000 -24.2500 -13.2500 Du        
   8565 ****         4.5000 -24.2500 -13.0000 Du        
   8566 ****         4.5000 -24.2500 -12.7500 Du        
   8567 ****         4.5000 -24.0000 -14.7500 Du        
   8568 ****         4.5000 -24.0000 -14.5000 Du        
   8569 ****         4.5000 -24.0000 -14.2500 Du        
   8570 ****         4.5000 -24.0000 -14.0000 Du        
   8571 ****         4.5000 -24.0000 -13.7500 Du        
   8572 ****         4.5000 -24.0000 -13.5000 Du        
   8573 ****         4.5000 -24.0000 -13.2500 Du        
   8574 ****         4.5000 -24.0000 -13.0000 Du        
   8575 ****         4.5000 -23.7500 -14.7500 Du        
   8576 ****         4.5000 -23.7500 -14.5000 Du        
   8577 ****         4.5000 -23.7500 -14.2500 Du        
   8578 ****         4.5000 -23.7500 -14.0000 Du        
   8579 ****         4.5000 -23.7500 -13.7500 Du        
   8580 ****         4.5000 -23.7500 -13.5000 Du        
   8581 ****         4.5000 -23.7500 -13.2500 Du        
   8582 ****         4.5000 -23.7500 -13.0000 Du        
   8583 ****         4.5000 -23.5000 -14.7500 Du        
   8584 ****         4.5000 -23.5000 -14.5000 Du        
   8585 ****         4.5000 -23.5000 -14.2500 Du        
   8586 ****         4.5000 -23.5000 -14.0000 Du        
   8587 ****         4.5000 -23.5000 -13.7500 Du        
   8588 ****         4.5000 -23.5000 -13.5000 Du        
   8589 ****         4.5000 -23.5000 -13.2500 Du        
   8590 ****         4.5000 -23.2500 -14.7500 Du        
   8591 ****         4.5000 -23.2500 -14.5000 Du        
   8592 ****         4.5000 -23.2500 -14.2500 Du        
   8593 ****         4.5000 -23.2500 -14.0000 Du        
   8594 ****         4.5000 -23.2500 -13.7500 Du        
   8595 ****         4.5000 -23.2500 -13.5000 Du        
   8596 ****         4.5000 -23.0000 -14.7500 Du        
   8597 ****         4.5000 -23.0000 -14.5000 Du        
   8598 ****         4.5000 -23.0000 -14.2500 Du        
   8599 ****         4.5000 -23.0000 -14.0000 Du        
   8600 ****         4.5000 -23.0000 -13.7500 Du        
   8601 ****         4.5000 -23.0000 -13.5000 Du        
   8602 ****         4.5000 -22.7500 -14.7500 Du        
   8603 ****         4.5000 -22.7500 -14.5000 Du        
   8604 ****         4.5000 -22.7500 -14.2500 Du        
   8605 ****         4.5000 -22.7500 -14.0000 Du        
   8606 ****         4.5000 -22.7500 -13.7500 Du        
   8607 ****         4.5000 -22.5000 -14.7500 Du        
   8608 ****         4.5000 -22.5000 -14.5000 Du        
   8609 ****         4.5000 -22.5000 -14.2500 Du        
   8610 ****         4.5000 -22.5000 -14.0000 Du        
   8611 ****         4.5000 -22.2500 -14.7500 Du        
   8612 ****         4.5000 -22.2500 -14.5000 Du        
   8613 ****         4.5000 -22.2500 -14.2500 Du        
   8614 ****         4.5000 -22.0000 -14.7500 Du        
   8615 ****         4.5000 -22.0000 -14.5000 Du        
   8616 ****         4.5000 -22.0000 -14.2500 Du        
   8617 ****         4.5000 -21.7500 -14.5000 Du        
   8618 ****         4.5000 -21.7500 -14.2500 Du        
   8619 ****         4.5000 -21.5000 -14.7500 Du        
   8620 ****         4.5000 -21.5000 -14.5000 Du        
   8621 ****         4.5000 -21.5000 -14.2500 Du        
   8622 ****         4.5000 -21.2500 -15.0000 Du        
   8623 ****         4.5000 -21.2500 -14.7500 Du        
   8624 ****         4.5000 -21.2500 -14.5000 Du        
   8625 ****         4.5000 -21.2500 -14.2500 Du        
   8626 ****         4.5000 -21.0000 -15.2500 Du        
   8627 ****         4.5000 -21.0000 -15.0000 Du        
   8628 ****         4.5000 -21.0000 -14.7500 Du        
   8629 ****         4.5000 -21.0000 -14.5000 Du        
   8630 ****         4.5000 -20.7500 -15.2500 Du        
   8631 ****         4.5000 -20.7500 -15.0000 Du        
   8632 ****         4.5000 -20.7500 -14.7500 Du        
   8633 ****         4.5000 -20.7500 -14.5000 Du        
   8634 ****         4.5000 -20.5000 -15.2500 Du        
   8635 ****         4.5000 -20.5000 -15.0000 Du        
   8636 ****         4.5000 -20.5000 -14.7500 Du        
   8637 ****         4.5000 -20.2500 -15.2500 Du        
   8638 ****         4.5000 -20.2500 -15.0000 Du        
   8639 ****         4.5000 -20.2500 -14.7500 Du        
   8640 ****         4.5000 -20.0000 -15.5000 Du        
   8641 ****         4.5000 -20.0000 -15.2500 Du        
   8642 ****         4.5000 -20.0000 -15.0000 Du        
   8643 ****         4.5000 -20.0000 -14.7500 Du        
   8644 ****         4.5000 -19.7500 -15.5000 Du        
   8645 ****         4.5000 -19.7500 -15.2500 Du        
   8646 ****         4.5000 -19.7500 -15.0000 Du        
   8647 ****         4.5000 -19.7500 -14.7500 Du        
   8648 ****         4.5000 -19.5000 -15.7500 Du        
   8649 ****         4.5000 -19.5000 -15.5000 Du        
   8650 ****         4.5000 -19.5000 -15.2500 Du        
   8651 ****         4.5000 -19.5000 -15.0000 Du        
   8652 ****         4.5000 -19.2500 -15.7500 Du        
   8653 ****         4.5000 -19.2500 -15.5000 Du        
   8654 ****         4.5000 -19.2500 -15.2500 Du        
   8655 ****         4.5000 -18.0000 -20.7500 Du        
   8656 ****         4.5000 -18.0000 -20.5000 Du        
   8657 ****         4.5000 -18.0000 -20.2500 Du        
   8658 ****         4.5000 -18.0000 -20.0000 Du        
   8659 ****         4.5000 -18.0000 -19.7500 Du        
   8660 ****         4.5000 -17.7500 -20.7500 Du        
   8661 ****         4.5000 -17.7500 -20.5000 Du        
   8662 ****         4.5000 -17.7500 -20.2500 Du        
   8663 ****         4.5000 -17.7500 -20.0000 Du        
   8664 ****         4.5000 -17.7500 -19.7500 Du        
   8665 ****         4.5000 -17.7500 -19.5000 Du        
   8666 ****         4.5000 -17.7500 -19.2500 Du        
   8667 ****         4.5000 -17.7500 -19.0000 Du        
   8668 ****         4.5000 -17.7500 -18.7500 Du        
   8669 ****         4.5000 -17.5000 -20.7500 Du        
   8670 ****         4.5000 -17.5000 -20.5000 Du        
   8671 ****         4.5000 -17.5000 -20.2500 Du        
   8672 ****         4.5000 -17.5000 -20.0000 Du        
   8673 ****         4.5000 -17.5000 -19.7500 Du        
   8674 ****         4.5000 -17.5000 -19.5000 Du        
   8675 ****         4.5000 -17.5000 -19.2500 Du        
   8676 ****         4.5000 -17.5000 -19.0000 Du        
   8677 ****         4.5000 -17.5000 -18.7500 Du        
   8678 ****         4.5000 -17.5000 -18.2500 Du        
   8679 ****         4.5000 -17.2500 -20.7500 Du        
   8680 ****         4.5000 -17.2500 -20.5000 Du        
   8681 ****         4.5000 -17.2500 -20.2500 Du        
   8682 ****         4.5000 -17.2500 -20.0000 Du        
   8683 ****         4.5000 -17.2500 -19.7500 Du        
   8684 ****         4.5000 -17.2500 -19.5000 Du        
   8685 ****         4.5000 -17.2500 -19.2500 Du        
   8686 ****         4.5000 -17.2500 -19.0000 Du        
   8687 ****         4.5000 -17.2500 -18.7500 Du        
   8688 ****         4.5000 -17.2500 -18.5000 Du        
   8689 ****         4.5000 -17.0000 -20.5000 Du        
   8690 ****         4.5000 -17.0000 -20.2500 Du        
   8691 ****         4.5000 -17.0000 -20.0000 Du        
   8692 ****         4.5000 -17.0000 -19.7500 Du        
   8693 ****         4.5000 -17.0000 -19.5000 Du        
   8694 ****         4.5000 -17.0000 -19.2500 Du        
   8695 ****         4.5000 -17.0000 -19.0000 Du        
   8696 ****         4.5000 -17.0000 -18.7500 Du        
   8697 ****         4.5000 -16.7500 -20.2500 Du        
   8698 ****         4.5000 -16.7500 -20.0000 Du        
   8699 ****         4.5000 -16.7500 -19.7500 Du        
   8700 ****         4.5000 -16.7500 -19.5000 Du        
   8701 ****         4.5000 -16.7500 -19.2500 Du        
   8702 ****         4.5000 -16.7500 -19.0000 Du        
   8703 ****         4.5000 -16.7500 -18.7500 Du        
   8704 ****         4.5000 -16.5000 -20.0000 Du        
   8705 ****         4.5000 -16.5000 -19.7500 Du        
   8706 ****         4.5000 -16.5000 -19.5000 Du        
   8707 ****         4.5000 -16.5000 -19.2500 Du        
   8708 ****         4.5000 -16.5000 -19.0000 Du        
   8709 ****         4.5000 -16.2500 -20.0000 Du        
   8710 ****         4.5000 -16.2500 -19.7500 Du        
   8711 ****         4.5000 -16.2500 -19.5000 Du        
   8712 ****         4.5000 -16.2500 -19.2500 Du        
   8713 ****         4.5000 -16.2500 -19.0000 Du        
   8714 ****         4.5000 -16.0000 -19.7500 Du        
   8715 ****         4.5000 -16.0000 -19.5000 Du        
   8716 ****         4.5000 -16.0000 -19.2500 Du        
   8717 ****         4.5000 -15.7500 -19.7500 Du        
   8718 ****         4.5000 -15.7500 -19.5000 Du        
   8719 ****         4.5000 -15.5000 -19.7500 Du        
   8720 ****         4.5000 -15.2500 -20.0000 Du        
   8721 ****         4.5000 -15.2500 -19.7500 Du        
   8722 ****         4.5000 -15.0000 -20.0000 Du        
   8723 ****         4.5000 -15.0000 -19.7500 Du        
   8724 ****         4.5000 -12.5000 -18.5000 Du        
   8725 ****         4.5000 -12.2500 -18.7500 Du        
   8726 ****         4.5000 -12.2500 -18.5000 Du        
   8727 ****         4.5000 -12.0000 -18.5000 Du        
   8728 ****         4.7500 -25.0000 -13.7500 Du        
   8729 ****         4.7500 -25.0000 -13.5000 Du        
   8730 ****         4.7500 -25.0000 -13.2500 Du        
   8731 ****         4.7500 -24.7500 -14.0000 Du        
   8732 ****         4.7500 -24.7500 -13.7500 Du        
   8733 ****         4.7500 -24.7500 -13.5000 Du        
   8734 ****         4.7500 -24.7500 -13.2500 Du        
   8735 ****         4.7500 -24.7500 -13.0000 Du        
   8736 ****         4.7500 -24.7500 -12.7500 Du        
   8737 ****         4.7500 -24.5000 -14.0000 Du        
   8738 ****         4.7500 -24.5000 -13.7500 Du        
   8739 ****         4.7500 -24.5000 -13.5000 Du        
   8740 ****         4.7500 -24.5000 -13.2500 Du        
   8741 ****         4.7500 -24.5000 -13.0000 Du        
   8742 ****         4.7500 -24.5000 -12.7500 Du        
   8743 ****         4.7500 -24.2500 -14.2500 Du        
   8744 ****         4.7500 -24.2500 -14.0000 Du        
   8745 ****         4.7500 -24.2500 -13.7500 Du        
   8746 ****         4.7500 -24.2500 -13.5000 Du        
   8747 ****         4.7500 -24.2500 -13.2500 Du        
   8748 ****         4.7500 -24.2500 -13.0000 Du        
   8749 ****         4.7500 -24.2500 -12.7500 Du        
   8750 ****         4.7500 -24.2500 -12.5000 Du        
   8751 ****         4.7500 -24.0000 -14.5000 Du        
   8752 ****         4.7500 -24.0000 -14.2500 Du        
   8753 ****         4.7500 -24.0000 -14.0000 Du        
   8754 ****         4.7500 -24.0000 -13.7500 Du        
   8755 ****         4.7500 -24.0000 -13.5000 Du        
   8756 ****         4.7500 -24.0000 -13.2500 Du        
   8757 ****         4.7500 -24.0000 -13.0000 Du        
   8758 ****         4.7500 -24.0000 -12.7500 Du        
   8759 ****         4.7500 -24.0000 -12.5000 Du        
   8760 ****         4.7500 -23.7500 -14.7500 Du        
   8761 ****         4.7500 -23.7500 -14.5000 Du        
   8762 ****         4.7500 -23.7500 -14.2500 Du        
   8763 ****         4.7500 -23.7500 -14.0000 Du        
   8764 ****         4.7500 -23.7500 -13.7500 Du        
   8765 ****         4.7500 -23.7500 -13.5000 Du        
   8766 ****         4.7500 -23.7500 -13.2500 Du        
   8767 ****         4.7500 -23.7500 -13.0000 Du        
   8768 ****         4.7500 -23.7500 -12.7500 Du        
   8769 ****         4.7500 -23.5000 -14.7500 Du        
   8770 ****         4.7500 -23.5000 -14.5000 Du        
   8771 ****         4.7500 -23.5000 -14.2500 Du        
   8772 ****         4.7500 -23.5000 -14.0000 Du        
   8773 ****         4.7500 -23.5000 -13.7500 Du        
   8774 ****         4.7500 -23.5000 -13.5000 Du        
   8775 ****         4.7500 -23.5000 -13.2500 Du        
   8776 ****         4.7500 -23.5000 -13.0000 Du        
   8777 ****         4.7500 -23.2500 -14.7500 Du        
   8778 ****         4.7500 -23.2500 -14.5000 Du        
   8779 ****         4.7500 -23.2500 -14.2500 Du        
   8780 ****         4.7500 -23.2500 -14.0000 Du        
   8781 ****         4.7500 -23.2500 -13.7500 Du        
   8782 ****         4.7500 -23.2500 -13.5000 Du        
   8783 ****         4.7500 -23.2500 -13.2500 Du        
   8784 ****         4.7500 -23.2500 -13.0000 Du        
   8785 ****         4.7500 -23.0000 -14.7500 Du        
   8786 ****         4.7500 -23.0000 -14.5000 Du        
   8787 ****         4.7500 -23.0000 -14.2500 Du        
   8788 ****         4.7500 -23.0000 -14.0000 Du        
   8789 ****         4.7500 -23.0000 -13.7500 Du        
   8790 ****         4.7500 -23.0000 -13.5000 Du        
   8791 ****         4.7500 -23.0000 -13.2500 Du        
   8792 ****         4.7500 -22.7500 -14.7500 Du        
   8793 ****         4.7500 -22.7500 -14.5000 Du        
   8794 ****         4.7500 -22.7500 -14.2500 Du        
   8795 ****         4.7500 -22.7500 -14.0000 Du        
   8796 ****         4.7500 -22.7500 -13.7500 Du        
   8797 ****         4.7500 -22.7500 -13.5000 Du        
   8798 ****         4.7500 -22.5000 -14.7500 Du        
   8799 ****         4.7500 -22.5000 -14.5000 Du        
   8800 ****         4.7500 -22.5000 -14.2500 Du        
   8801 ****         4.7500 -22.5000 -14.0000 Du        
   8802 ****         4.7500 -22.5000 -13.7500 Du        
   8803 ****         4.7500 -22.2500 -15.0000 Du        
   8804 ****         4.7500 -22.2500 -14.7500 Du        
   8805 ****         4.7500 -22.2500 -14.5000 Du        
   8806 ****         4.7500 -22.2500 -14.2500 Du        
   8807 ****         4.7500 -22.2500 -14.0000 Du        
   8808 ****         4.7500 -22.2500 -13.7500 Du        
   8809 ****         4.7500 -22.0000 -15.0000 Du        
   8810 ****         4.7500 -22.0000 -14.7500 Du        
   8811 ****         4.7500 -22.0000 -14.5000 Du        
   8812 ****         4.7500 -22.0000 -14.2500 Du        
   8813 ****         4.7500 -22.0000 -14.0000 Du        
   8814 ****         4.7500 -22.0000 -13.7500 Du        
   8815 ****         4.7500 -21.7500 -15.0000 Du        
   8816 ****         4.7500 -21.7500 -14.7500 Du        
   8817 ****         4.7500 -21.7500 -14.5000 Du        
   8818 ****         4.7500 -21.7500 -14.2500 Du        
   8819 ****         4.7500 -21.7500 -14.0000 Du        
   8820 ****         4.7500 -21.5000 -15.0000 Du        
   8821 ****         4.7500 -21.5000 -14.7500 Du        
   8822 ****         4.7500 -21.5000 -14.5000 Du        
   8823 ****         4.7500 -21.5000 -14.2500 Du        
   8824 ****         4.7500 -21.5000 -14.0000 Du        
   8825 ****         4.7500 -21.2500 -15.0000 Du        
   8826 ****         4.7500 -21.2500 -14.7500 Du        
   8827 ****         4.7500 -21.2500 -14.5000 Du        
   8828 ****         4.7500 -21.2500 -14.2500 Du        
   8829 ****         4.7500 -21.2500 -14.0000 Du        
   8830 ****         4.7500 -21.0000 -15.2500 Du        
   8831 ****         4.7500 -21.0000 -15.0000 Du        
   8832 ****         4.7500 -21.0000 -14.7500 Du        
   8833 ****         4.7500 -21.0000 -14.5000 Du        
   8834 ****         4.7500 -21.0000 -14.2500 Du        
   8835 ****         4.7500 -20.7500 -15.2500 Du        
   8836 ****         4.7500 -20.7500 -15.0000 Du        
   8837 ****         4.7500 -20.7500 -14.7500 Du        
   8838 ****         4.7500 -20.7500 -14.5000 Du        
   8839 ****         4.7500 -20.7500 -14.2500 Du        
   8840 ****         4.7500 -20.5000 -15.5000 Du        
   8841 ****         4.7500 -20.5000 -15.2500 Du        
   8842 ****         4.7500 -20.5000 -15.0000 Du        
   8843 ****         4.7500 -20.5000 -14.7500 Du        
   8844 ****         4.7500 -20.5000 -14.5000 Du        
   8845 ****         4.7500 -20.2500 -15.7500 Du        
   8846 ****         4.7500 -20.2500 -15.5000 Du        
   8847 ****         4.7500 -20.2500 -15.2500 Du        
   8848 ****         4.7500 -20.2500 -15.0000 Du        
   8849 ****         4.7500 -20.2500 -14.7500 Du        
   8850 ****         4.7500 -20.2500 -14.5000 Du        
   8851 ****         4.7500 -20.0000 -15.7500 Du        
   8852 ****         4.7500 -20.0000 -15.5000 Du        
   8853 ****         4.7500 -20.0000 -15.2500 Du        
   8854 ****         4.7500 -20.0000 -15.0000 Du        
   8855 ****         4.7500 -20.0000 -14.7500 Du        
   8856 ****         4.7500 -20.0000 -14.5000 Du        
   8857 ****         4.7500 -19.7500 -15.7500 Du        
   8858 ****         4.7500 -19.7500 -15.5000 Du        
   8859 ****         4.7500 -19.7500 -15.2500 Du        
   8860 ****         4.7500 -19.7500 -15.0000 Du        
   8861 ****         4.7500 -19.7500 -14.7500 Du        
   8862 ****         4.7500 -19.5000 -16.0000 Du        
   8863 ****         4.7500 -19.5000 -15.7500 Du        
   8864 ****         4.7500 -19.5000 -15.5000 Du        
   8865 ****         4.7500 -19.5000 -15.2500 Du        
   8866 ****         4.7500 -19.5000 -15.0000 Du        
   8867 ****         4.7500 -19.2500 -16.2500 Du        
   8868 ****         4.7500 -19.2500 -16.0000 Du        
   8869 ****         4.7500 -19.2500 -15.7500 Du        
   8870 ****         4.7500 -19.2500 -15.5000 Du        
   8871 ****         4.7500 -19.2500 -15.2500 Du        
   8872 ****         4.7500 -19.2500 -15.0000 Du        
   8873 ****         4.7500 -19.0000 -16.2500 Du        
   8874 ****         4.7500 -19.0000 -16.0000 Du        
   8875 ****         4.7500 -19.0000 -15.7500 Du        
   8876 ****         4.7500 -19.0000 -15.5000 Du        
   8877 ****         4.7500 -18.7500 -16.5000 Du        
   8878 ****         4.7500 -18.7500 -16.2500 Du        
   8879 ****         4.7500 -18.7500 -16.0000 Du        
   8880 ****         4.7500 -18.5000 -16.7500 Du        
   8881 ****         4.7500 -18.5000 -16.5000 Du        
   8882 ****         4.7500 -18.5000 -16.2500 Du        
   8883 ****         4.7500 -17.7500 -20.5000 Du        
   8884 ****         4.7500 -17.7500 -20.2500 Du        
   8885 ****         4.7500 -17.7500 -20.0000 Du        
   8886 ****         4.7500 -17.7500 -19.7500 Du        
   8887 ****         4.7500 -17.7500 -19.5000 Du        
   8888 ****         4.7500 -17.7500 -19.2500 Du        
   8889 ****         4.7500 -17.7500 -19.0000 Du        
   8890 ****         4.7500 -17.7500 -18.7500 Du        
   8891 ****         4.7500 -17.7500 -18.5000 Du        
   8892 ****         4.7500 -17.7500 -18.2500 Du        
   8893 ****         4.7500 -17.7500 -18.0000 Du        
   8894 ****         4.7500 -17.7500 -17.7500 Du        
   8895 ****         4.7500 -17.5000 -20.2500 Du        
   8896 ****         4.7500 -17.5000 -20.0000 Du        
   8897 ****         4.7500 -17.5000 -19.7500 Du        
   8898 ****         4.7500 -17.5000 -19.2500 Du        
   8899 ****         4.7500 -17.5000 -19.0000 Du        
   8900 ****         4.7500 -17.5000 -18.7500 Du        
   8901 ****         4.7500 -17.5000 -18.5000 Du        
   8902 ****         4.7500 -17.5000 -18.2500 Du        
   8903 ****         4.7500 -17.2500 -20.0000 Du        
   8904 ****         4.7500 -17.2500 -19.7500 Du        
   8905 ****         4.7500 -17.2500 -19.2500 Du        
   8906 ****         4.7500 -17.2500 -19.0000 Du        
   8907 ****         4.7500 -17.2500 -18.7500 Du        
   8908 ****         4.7500 -17.2500 -18.5000 Du        
   8909 ****         4.7500 -17.2500 -18.2500 Du        
   8910 ****         4.7500 -17.0000 -19.7500 Du        
   8911 ****         4.7500 -17.0000 -19.2500 Du        
   8912 ****         4.7500 -17.0000 -19.0000 Du        
   8913 ****         4.7500 -17.0000 -18.7500 Du        
   8914 ****         4.7500 -17.0000 -18.5000 Du        
   8915 ****         4.7500 -16.7500 -19.2500 Du        
   8916 ****         4.7500 -16.7500 -19.0000 Du        
   8917 ****         4.7500 -16.7500 -18.7500 Du        
   8918 ****         4.7500 -16.5000 -19.2500 Du        
   8919 ****         4.7500 -16.5000 -19.0000 Du        
   8920 ****         4.7500 -16.5000 -18.7500 Du        
   8921 ****         4.7500 -16.2500 -19.0000 Du        
   8922 ****         4.7500 -16.0000 -19.0000 Du        
   8923 ****         4.7500 -15.7500 -19.2500 Du        
   8924 ****         4.7500 -15.0000 -19.7500 Du        
   8925 ****         4.7500 -15.0000 -19.5000 Du        
   8926 ****         4.7500 -15.0000 -19.2500 Du        
   8927 ****         4.7500 -14.7500 -19.7500 Du        
   8928 ****         4.7500 -14.7500 -19.5000 Du        
   8929 ****         4.7500 -14.5000 -19.7500 Du        
   8930 ****         4.7500 -13.2500 -19.0000 Du        
   8931 ****         4.7500 -13.0000 -19.0000 Du        
   8932 ****         4.7500 -12.7500 -19.0000 Du        
   8933 ****         4.7500 -12.0000 -19.0000 Du        
   8934 ****         5.0000 -25.0000 -13.5000 Du        
   8935 ****         5.0000 -25.0000 -13.2500 Du        
   8936 ****         5.0000 -24.7500 -13.7500 Du        
   8937 ****         5.0000 -24.7500 -13.5000 Du        
   8938 ****         5.0000 -24.7500 -13.2500 Du        
   8939 ****         5.0000 -24.7500 -13.0000 Du        
   8940 ****         5.0000 -24.7500 -12.7500 Du        
   8941 ****         5.0000 -24.5000 -13.7500 Du        
   8942 ****         5.0000 -24.5000 -13.5000 Du        
   8943 ****         5.0000 -24.5000 -13.2500 Du        
   8944 ****         5.0000 -24.5000 -13.0000 Du        
   8945 ****         5.0000 -24.5000 -12.7500 Du        
   8946 ****         5.0000 -24.5000 -12.5000 Du        
   8947 ****         5.0000 -24.2500 -14.0000 Du        
   8948 ****         5.0000 -24.2500 -13.7500 Du        
   8949 ****         5.0000 -24.2500 -13.5000 Du        
   8950 ****         5.0000 -24.2500 -13.2500 Du        
   8951 ****         5.0000 -24.2500 -13.0000 Du        
   8952 ****         5.0000 -24.2500 -12.7500 Du        
   8953 ****         5.0000 -24.2500 -12.5000 Du        
   8954 ****         5.0000 -24.2500 -12.2500 Du        
   8955 ****         5.0000 -24.0000 -14.2500 Du        
   8956 ****         5.0000 -24.0000 -14.0000 Du        
   8957 ****         5.0000 -24.0000 -13.7500 Du        
   8958 ****         5.0000 -24.0000 -13.5000 Du        
   8959 ****         5.0000 -24.0000 -13.2500 Du        
   8960 ****         5.0000 -24.0000 -13.0000 Du        
   8961 ****         5.0000 -24.0000 -12.7500 Du        
   8962 ****         5.0000 -24.0000 -12.5000 Du        
   8963 ****         5.0000 -24.0000 -12.2500 Du        
   8964 ****         5.0000 -23.7500 -14.5000 Du        
   8965 ****         5.0000 -23.7500 -14.2500 Du        
   8966 ****         5.0000 -23.7500 -14.0000 Du        
   8967 ****         5.0000 -23.7500 -13.7500 Du        
   8968 ****         5.0000 -23.7500 -13.5000 Du        
   8969 ****         5.0000 -23.7500 -13.2500 Du        
   8970 ****         5.0000 -23.7500 -13.0000 Du        
   8971 ****         5.0000 -23.7500 -12.7500 Du        
   8972 ****         5.0000 -23.7500 -12.5000 Du        
   8973 ****         5.0000 -23.7500 -12.2500 Du        
   8974 ****         5.0000 -23.5000 -14.5000 Du        
   8975 ****         5.0000 -23.5000 -14.2500 Du        
   8976 ****         5.0000 -23.5000 -14.0000 Du        
   8977 ****         5.0000 -23.5000 -13.7500 Du        
   8978 ****         5.0000 -23.5000 -13.5000 Du        
   8979 ****         5.0000 -23.5000 -13.2500 Du        
   8980 ****         5.0000 -23.5000 -13.0000 Du        
   8981 ****         5.0000 -23.5000 -12.7500 Du        
   8982 ****         5.0000 -23.5000 -12.5000 Du        
   8983 ****         5.0000 -23.2500 -14.7500 Du        
   8984 ****         5.0000 -23.2500 -14.5000 Du        
   8985 ****         5.0000 -23.2500 -14.2500 Du        
   8986 ****         5.0000 -23.2500 -14.0000 Du        
   8987 ****         5.0000 -23.2500 -13.7500 Du        
   8988 ****         5.0000 -23.2500 -13.5000 Du        
   8989 ****         5.0000 -23.2500 -13.2500 Du        
   8990 ****         5.0000 -23.2500 -13.0000 Du        
   8991 ****         5.0000 -23.2500 -12.7500 Du        
   8992 ****         5.0000 -23.0000 -14.7500 Du        
   8993 ****         5.0000 -23.0000 -14.5000 Du        
   8994 ****         5.0000 -23.0000 -14.2500 Du        
   8995 ****         5.0000 -23.0000 -14.0000 Du        
   8996 ****         5.0000 -23.0000 -13.7500 Du        
   8997 ****         5.0000 -23.0000 -13.5000 Du        
   8998 ****         5.0000 -23.0000 -13.2500 Du        
   8999 ****         5.0000 -23.0000 -13.0000 Du        
   9000 ****         5.0000 -22.7500 -14.7500 Du        
   9001 ****         5.0000 -22.7500 -14.5000 Du        
   9002 ****         5.0000 -22.7500 -14.2500 Du        
   9003 ****         5.0000 -22.7500 -14.0000 Du        
   9004 ****         5.0000 -22.7500 -13.7500 Du        
   9005 ****         5.0000 -22.7500 -13.5000 Du        
   9006 ****         5.0000 -22.7500 -13.2500 Du        
   9007 ****         5.0000 -22.7500 -13.0000 Du        
   9008 ****         5.0000 -22.5000 -15.0000 Du        
   9009 ****         5.0000 -22.5000 -14.7500 Du        
   9010 ****         5.0000 -22.5000 -14.5000 Du        
   9011 ****         5.0000 -22.5000 -14.2500 Du        
   9012 ****         5.0000 -22.5000 -14.0000 Du        
   9013 ****         5.0000 -22.5000 -13.7500 Du        
   9014 ****         5.0000 -22.5000 -13.5000 Du        
   9015 ****         5.0000 -22.5000 -13.2500 Du        
   9016 ****         5.0000 -22.2500 -15.0000 Du        
   9017 ****         5.0000 -22.2500 -14.7500 Du        
   9018 ****         5.0000 -22.2500 -14.5000 Du        
   9019 ****         5.0000 -22.2500 -14.2500 Du        
   9020 ****         5.0000 -22.2500 -14.0000 Du        
   9021 ****         5.0000 -22.2500 -13.7500 Du        
   9022 ****         5.0000 -22.2500 -13.5000 Du        
   9023 ****         5.0000 -22.2500 -13.2500 Du        
   9024 ****         5.0000 -22.0000 -15.0000 Du        
   9025 ****         5.0000 -22.0000 -14.7500 Du        
   9026 ****         5.0000 -22.0000 -14.5000 Du        
   9027 ****         5.0000 -22.0000 -14.2500 Du        
   9028 ****         5.0000 -22.0000 -14.0000 Du        
   9029 ****         5.0000 -22.0000 -13.7500 Du        
   9030 ****         5.0000 -22.0000 -13.5000 Du        
   9031 ****         5.0000 -21.7500 -15.2500 Du        
   9032 ****         5.0000 -21.7500 -15.0000 Du        
   9033 ****         5.0000 -21.7500 -14.7500 Du        
   9034 ****         5.0000 -21.7500 -14.5000 Du        
   9035 ****         5.0000 -21.7500 -14.2500 Du        
   9036 ****         5.0000 -21.7500 -14.0000 Du        
   9037 ****         5.0000 -21.7500 -13.7500 Du        
   9038 ****         5.0000 -21.7500 -13.5000 Du        
   9039 ****         5.0000 -21.5000 -15.0000 Du        
   9040 ****         5.0000 -21.5000 -14.7500 Du        
   9041 ****         5.0000 -21.5000 -14.5000 Du        
   9042 ****         5.0000 -21.5000 -14.2500 Du        
   9043 ****         5.0000 -21.5000 -14.0000 Du        
   9044 ****         5.0000 -21.5000 -13.7500 Du        
   9045 ****         5.0000 -21.2500 -15.2500 Du        
   9046 ****         5.0000 -21.2500 -15.0000 Du        
   9047 ****         5.0000 -21.2500 -14.7500 Du        
   9048 ****         5.0000 -21.2500 -14.5000 Du        
   9049 ****         5.0000 -21.2500 -14.2500 Du        
   9050 ****         5.0000 -21.2500 -14.0000 Du        
   9051 ****         5.0000 -21.2500 -13.7500 Du        
   9052 ****         5.0000 -21.0000 -15.5000 Du        
   9053 ****         5.0000 -21.0000 -15.2500 Du        
   9054 ****         5.0000 -21.0000 -15.0000 Du        
   9055 ****         5.0000 -21.0000 -14.7500 Du        
   9056 ****         5.0000 -21.0000 -14.5000 Du        
   9057 ****         5.0000 -21.0000 -14.2500 Du        
   9058 ****         5.0000 -21.0000 -14.0000 Du        
   9059 ****         5.0000 -20.7500 -15.5000 Du        
   9060 ****         5.0000 -20.7500 -15.2500 Du        
   9061 ****         5.0000 -20.7500 -15.0000 Du        
   9062 ****         5.0000 -20.7500 -14.7500 Du        
   9063 ****         5.0000 -20.7500 -14.5000 Du        
   9064 ****         5.0000 -20.7500 -14.2500 Du        
   9065 ****         5.0000 -20.5000 -15.5000 Du        
   9066 ****         5.0000 -20.5000 -15.2500 Du        
   9067 ****         5.0000 -20.5000 -15.0000 Du        
   9068 ****         5.0000 -20.5000 -14.7500 Du        
   9069 ****         5.0000 -20.5000 -14.5000 Du        
   9070 ****         5.0000 -20.5000 -14.2500 Du        
   9071 ****         5.0000 -20.2500 -15.7500 Du        
   9072 ****         5.0000 -20.2500 -15.5000 Du        
   9073 ****         5.0000 -20.2500 -15.2500 Du        
   9074 ****         5.0000 -20.2500 -15.0000 Du        
   9075 ****         5.0000 -20.2500 -14.7500 Du        
   9076 ****         5.0000 -20.2500 -14.5000 Du        
   9077 ****         5.0000 -20.0000 -15.7500 Du        
   9078 ****         5.0000 -20.0000 -15.5000 Du        
   9079 ****         5.0000 -20.0000 -15.2500 Du        
   9080 ****         5.0000 -20.0000 -15.0000 Du        
   9081 ****         5.0000 -20.0000 -14.7500 Du        
   9082 ****         5.0000 -20.0000 -14.5000 Du        
   9083 ****         5.0000 -19.7500 -16.0000 Du        
   9084 ****         5.0000 -19.7500 -15.7500 Du        
   9085 ****         5.0000 -19.7500 -15.5000 Du        
   9086 ****         5.0000 -19.7500 -15.2500 Du        
   9087 ****         5.0000 -19.7500 -15.0000 Du        
   9088 ****         5.0000 -19.7500 -14.7500 Du        
   9089 ****         5.0000 -19.7500 -14.5000 Du        
   9090 ****         5.0000 -19.5000 -16.0000 Du        
   9091 ****         5.0000 -19.5000 -15.7500 Du        
   9092 ****         5.0000 -19.5000 -15.5000 Du        
   9093 ****         5.0000 -19.5000 -15.2500 Du        
   9094 ****         5.0000 -19.5000 -15.0000 Du        
   9095 ****         5.0000 -19.5000 -14.7500 Du        
   9096 ****         5.0000 -19.2500 -16.2500 Du        
   9097 ****         5.0000 -19.2500 -16.0000 Du        
   9098 ****         5.0000 -19.2500 -15.7500 Du        
   9099 ****         5.0000 -19.2500 -15.5000 Du        
   9100 ****         5.0000 -19.2500 -15.2500 Du        
   9101 ****         5.0000 -19.2500 -15.0000 Du        
   9102 ****         5.0000 -19.0000 -16.5000 Du        
   9103 ****         5.0000 -19.0000 -16.2500 Du        
   9104 ****         5.0000 -19.0000 -16.0000 Du        
   9105 ****         5.0000 -19.0000 -15.7500 Du        
   9106 ****         5.0000 -19.0000 -15.5000 Du        
   9107 ****         5.0000 -19.0000 -15.2500 Du        
   9108 ****         5.0000 -18.7500 -16.7500 Du        
   9109 ****         5.0000 -18.7500 -16.5000 Du        
   9110 ****         5.0000 -18.7500 -16.2500 Du        
   9111 ****         5.0000 -18.7500 -16.0000 Du        
   9112 ****         5.0000 -18.7500 -15.7500 Du        
   9113 ****         5.0000 -18.5000 -16.7500 Du        
   9114 ****         5.0000 -18.5000 -16.5000 Du        
   9115 ****         5.0000 -18.5000 -16.2500 Du        
   9116 ****         5.0000 -18.5000 -16.0000 Du        
   9117 ****         5.0000 -18.2500 -17.0000 Du        
   9118 ****         5.0000 -18.2500 -16.7500 Du        
   9119 ****         5.0000 -18.2500 -16.5000 Du        
   9120 ****         5.0000 -18.0000 -18.0000 Du        
   9121 ****         5.0000 -18.0000 -17.7500 Du        
   9122 ****         5.0000 -18.0000 -17.5000 Du        
   9123 ****         5.0000 -18.0000 -17.2500 Du        
   9124 ****         5.0000 -18.0000 -17.0000 Du        
   9125 ****         5.0000 -17.7500 -19.0000 Du        
   9126 ****         5.0000 -17.7500 -18.7500 Du        
   9127 ****         5.0000 -17.7500 -18.2500 Du        
   9128 ****         5.0000 -17.7500 -18.0000 Du        
   9129 ****         5.0000 -17.7500 -17.7500 Du        
   9130 ****         5.0000 -17.7500 -17.5000 Du        
   9131 ****         5.0000 -17.5000 -18.2500 Du        
   9132 ****         5.0000 -17.5000 -18.0000 Du        
   9133 ****         5.0000 -17.2500 -18.7500 Du        
   9134 ****         5.0000 -17.2500 -18.5000 Du        
   9135 ****         5.0000 -17.2500 -18.2500 Du        
   9136 ****         5.0000 -17.2500 -18.0000 Du        
   9137 ****         5.0000 -17.0000 -18.7500 Du        
   9138 ****         5.0000 -17.0000 -18.5000 Du        
   9139 ****         5.0000 -17.0000 -18.2500 Du        
   9140 ****         5.0000 -16.5000 -18.7500 Du        
   9141 ****         5.0000 -13.2500 -19.0000 Du        
   9142 ****         5.0000 -13.0000 -19.2500 Du        
   9143 ****         5.0000 -13.0000 -19.0000 Du        
   9144 ****         5.0000 -12.7500 -19.5000 Du        
   9145 ****         5.0000 -12.7500 -19.2500 Du        
   9146 ****         5.0000 -12.7500 -19.0000 Du        
   9147 ****         5.2500 -24.7500 -13.5000 Du        
   9148 ****         5.2500 -24.7500 -13.2500 Du        
   9149 ****         5.2500 -24.7500 -13.0000 Du        
   9150 ****         5.2500 -24.7500 -12.7500 Du        
   9151 ****         5.2500 -24.5000 -13.5000 Du        
   9152 ****         5.2500 -24.5000 -13.2500 Du        
   9153 ****         5.2500 -24.5000 -13.0000 Du        
   9154 ****         5.2500 -24.5000 -12.7500 Du        
   9155 ****         5.2500 -24.5000 -12.5000 Du        
   9156 ****         5.2500 -24.2500 -13.7500 Du        
   9157 ****         5.2500 -24.2500 -13.5000 Du        
   9158 ****         5.2500 -24.2500 -13.2500 Du        
   9159 ****         5.2500 -24.2500 -13.0000 Du        
   9160 ****         5.2500 -24.2500 -12.7500 Du        
   9161 ****         5.2500 -24.2500 -12.5000 Du        
   9162 ****         5.2500 -24.2500 -12.2500 Du        
   9163 ****         5.2500 -24.2500 -12.0000 Du        
   9164 ****         5.2500 -24.0000 -14.0000 Du        
   9165 ****         5.2500 -24.0000 -13.7500 Du        
   9166 ****         5.2500 -24.0000 -13.5000 Du        
   9167 ****         5.2500 -24.0000 -13.2500 Du        
   9168 ****         5.2500 -24.0000 -13.0000 Du        
   9169 ****         5.2500 -24.0000 -12.7500 Du        
   9170 ****         5.2500 -24.0000 -12.5000 Du        
   9171 ****         5.2500 -24.0000 -12.2500 Du        
   9172 ****         5.2500 -24.0000 -12.0000 Du        
   9173 ****         5.2500 -23.7500 -14.2500 Du        
   9174 ****         5.2500 -23.7500 -14.0000 Du        
   9175 ****         5.2500 -23.7500 -13.7500 Du        
   9176 ****         5.2500 -23.7500 -13.5000 Du        
   9177 ****         5.2500 -23.7500 -13.2500 Du        
   9178 ****         5.2500 -23.7500 -13.0000 Du        
   9179 ****         5.2500 -23.7500 -12.7500 Du        
   9180 ****         5.2500 -23.7500 -12.5000 Du        
   9181 ****         5.2500 -23.7500 -12.2500 Du        
   9182 ****         5.2500 -23.7500 -12.0000 Du        
   9183 ****         5.2500 -23.5000 -14.5000 Du        
   9184 ****         5.2500 -23.5000 -14.2500 Du        
   9185 ****         5.2500 -23.5000 -14.0000 Du        
   9186 ****         5.2500 -23.5000 -13.7500 Du        
   9187 ****         5.2500 -23.5000 -13.5000 Du        
   9188 ****         5.2500 -23.5000 -13.2500 Du        
   9189 ****         5.2500 -23.5000 -13.0000 Du        
   9190 ****         5.2500 -23.5000 -12.7500 Du        
   9191 ****         5.2500 -23.5000 -12.5000 Du        
   9192 ****         5.2500 -23.5000 -12.2500 Du        
   9193 ****         5.2500 -23.5000 -12.0000 Du        
   9194 ****         5.2500 -23.2500 -14.7500 Du        
   9195 ****         5.2500 -23.2500 -14.5000 Du        
   9196 ****         5.2500 -23.2500 -14.2500 Du        
   9197 ****         5.2500 -23.2500 -14.0000 Du        
   9198 ****         5.2500 -23.2500 -13.7500 Du        
   9199 ****         5.2500 -23.2500 -13.5000 Du        
   9200 ****         5.2500 -23.2500 -13.2500 Du        
   9201 ****         5.2500 -23.2500 -13.0000 Du        
   9202 ****         5.2500 -23.2500 -12.7500 Du        
   9203 ****         5.2500 -23.2500 -12.5000 Du        
   9204 ****         5.2500 -23.2500 -12.2500 Du        
   9205 ****         5.2500 -23.0000 -14.7500 Du        
   9206 ****         5.2500 -23.0000 -14.5000 Du        
   9207 ****         5.2500 -23.0000 -14.2500 Du        
   9208 ****         5.2500 -23.0000 -14.0000 Du        
   9209 ****         5.2500 -23.0000 -13.7500 Du        
   9210 ****         5.2500 -23.0000 -13.5000 Du        
   9211 ****         5.2500 -23.0000 -13.2500 Du        
   9212 ****         5.2500 -23.0000 -13.0000 Du        
   9213 ****         5.2500 -23.0000 -12.7500 Du        
   9214 ****         5.2500 -23.0000 -12.5000 Du        
   9215 ****         5.2500 -22.7500 -14.7500 Du        
   9216 ****         5.2500 -22.7500 -14.5000 Du        
   9217 ****         5.2500 -22.7500 -14.2500 Du        
   9218 ****         5.2500 -22.7500 -14.0000 Du        
   9219 ****         5.2500 -22.7500 -13.7500 Du        
   9220 ****         5.2500 -22.7500 -13.5000 Du        
   9221 ****         5.2500 -22.7500 -13.2500 Du        
   9222 ****         5.2500 -22.7500 -13.0000 Du        
   9223 ****         5.2500 -22.7500 -12.7500 Du        
   9224 ****         5.2500 -22.5000 -15.0000 Du        
   9225 ****         5.2500 -22.5000 -14.7500 Du        
   9226 ****         5.2500 -22.5000 -14.5000 Du        
   9227 ****         5.2500 -22.5000 -14.2500 Du        
   9228 ****         5.2500 -22.5000 -14.0000 Du        
   9229 ****         5.2500 -22.5000 -13.7500 Du        
   9230 ****         5.2500 -22.5000 -13.5000 Du        
   9231 ****         5.2500 -22.5000 -13.2500 Du        
   9232 ****         5.2500 -22.5000 -13.0000 Du        
   9233 ****         5.2500 -22.2500 -15.0000 Du        
   9234 ****         5.2500 -22.2500 -14.7500 Du        
   9235 ****         5.2500 -22.2500 -14.5000 Du        
   9236 ****         5.2500 -22.2500 -14.2500 Du        
   9237 ****         5.2500 -22.2500 -14.0000 Du        
   9238 ****         5.2500 -22.2500 -13.7500 Du        
   9239 ****         5.2500 -22.2500 -13.5000 Du        
   9240 ****         5.2500 -22.2500 -13.2500 Du        
   9241 ****         5.2500 -22.2500 -13.0000 Du        
   9242 ****         5.2500 -22.0000 -15.0000 Du        
   9243 ****         5.2500 -22.0000 -14.7500 Du        
   9244 ****         5.2500 -22.0000 -14.5000 Du        
   9245 ****         5.2500 -22.0000 -14.2500 Du        
   9246 ****         5.2500 -22.0000 -14.0000 Du        
   9247 ****         5.2500 -22.0000 -13.7500 Du        
   9248 ****         5.2500 -22.0000 -13.5000 Du        
   9249 ****         5.2500 -22.0000 -13.2500 Du        
   9250 ****         5.2500 -21.7500 -15.0000 Du        
   9251 ****         5.2500 -21.7500 -14.7500 Du        
   9252 ****         5.2500 -21.7500 -14.5000 Du        
   9253 ****         5.2500 -21.7500 -14.2500 Du        
   9254 ****         5.2500 -21.7500 -14.0000 Du        
   9255 ****         5.2500 -21.7500 -13.7500 Du        
   9256 ****         5.2500 -21.7500 -13.5000 Du        
   9257 ****         5.2500 -21.7500 -13.2500 Du        
   9258 ****         5.2500 -21.5000 -15.2500 Du        
   9259 ****         5.2500 -21.5000 -15.0000 Du        
   9260 ****         5.2500 -21.5000 -14.7500 Du        
   9261 ****         5.2500 -21.5000 -14.5000 Du        
   9262 ****         5.2500 -21.5000 -14.2500 Du        
   9263 ****         5.2500 -21.5000 -14.0000 Du        
   9264 ****         5.2500 -21.5000 -13.7500 Du        
   9265 ****         5.2500 -21.5000 -13.5000 Du        
   9266 ****         5.2500 -21.2500 -15.2500 Du        
   9267 ****         5.2500 -21.2500 -15.0000 Du        
   9268 ****         5.2500 -21.2500 -14.7500 Du        
   9269 ****         5.2500 -21.2500 -14.5000 Du        
   9270 ****         5.2500 -21.2500 -14.2500 Du        
   9271 ****         5.2500 -21.2500 -14.0000 Du        
   9272 ****         5.2500 -21.2500 -13.7500 Du        
   9273 ****         5.2500 -21.0000 -15.5000 Du        
   9274 ****         5.2500 -21.0000 -15.2500 Du        
   9275 ****         5.2500 -21.0000 -15.0000 Du        
   9276 ****         5.2500 -21.0000 -14.7500 Du        
   9277 ****         5.2500 -21.0000 -14.5000 Du        
   9278 ****         5.2500 -21.0000 -14.2500 Du        
   9279 ****         5.2500 -21.0000 -14.0000 Du        
   9280 ****         5.2500 -20.7500 -15.5000 Du        
   9281 ****         5.2500 -20.7500 -15.2500 Du        
   9282 ****         5.2500 -20.7500 -15.0000 Du        
   9283 ****         5.2500 -20.7500 -14.7500 Du        
   9284 ****         5.2500 -20.7500 -14.5000 Du        
   9285 ****         5.2500 -20.7500 -14.2500 Du        
   9286 ****         5.2500 -20.7500 -14.0000 Du        
   9287 ****         5.2500 -20.5000 -15.7500 Du        
   9288 ****         5.2500 -20.5000 -15.5000 Du        
   9289 ****         5.2500 -20.5000 -15.2500 Du        
   9290 ****         5.2500 -20.5000 -15.0000 Du        
   9291 ****         5.2500 -20.5000 -14.7500 Du        
   9292 ****         5.2500 -20.5000 -14.5000 Du        
   9293 ****         5.2500 -20.5000 -14.2500 Du        
   9294 ****         5.2500 -20.2500 -15.7500 Du        
   9295 ****         5.2500 -20.2500 -15.5000 Du        
   9296 ****         5.2500 -20.2500 -15.2500 Du        
   9297 ****         5.2500 -20.2500 -15.0000 Du        
   9298 ****         5.2500 -20.2500 -14.7500 Du        
   9299 ****         5.2500 -20.2500 -14.5000 Du        
   9300 ****         5.2500 -20.2500 -14.2500 Du        
   9301 ****         5.2500 -20.0000 -16.0000 Du        
   9302 ****         5.2500 -20.0000 -15.7500 Du        
   9303 ****         5.2500 -20.0000 -15.5000 Du        
   9304 ****         5.2500 -20.0000 -15.2500 Du        
   9305 ****         5.2500 -20.0000 -15.0000 Du        
   9306 ****         5.2500 -20.0000 -14.7500 Du        
   9307 ****         5.2500 -20.0000 -14.5000 Du        
   9308 ****         5.2500 -19.7500 -16.0000 Du        
   9309 ****         5.2500 -19.7500 -15.7500 Du        
   9310 ****         5.2500 -19.7500 -15.5000 Du        
   9311 ****         5.2500 -19.7500 -15.2500 Du        
   9312 ****         5.2500 -19.7500 -15.0000 Du        
   9313 ****         5.2500 -19.7500 -14.7500 Du        
   9314 ****         5.2500 -19.7500 -14.5000 Du        
   9315 ****         5.2500 -19.5000 -16.2500 Du        
   9316 ****         5.2500 -19.5000 -16.0000 Du        
   9317 ****         5.2500 -19.5000 -15.7500 Du        
   9318 ****         5.2500 -19.5000 -15.5000 Du        
   9319 ****         5.2500 -19.5000 -15.2500 Du        
   9320 ****         5.2500 -19.5000 -15.0000 Du        
   9321 ****         5.2500 -19.5000 -14.7500 Du        
   9322 ****         5.2500 -19.2500 -16.2500 Du        
   9323 ****         5.2500 -19.2500 -16.0000 Du        
   9324 ****         5.2500 -19.2500 -15.7500 Du        
   9325 ****         5.2500 -19.2500 -15.5000 Du        
   9326 ****         5.2500 -19.2500 -15.2500 Du        
   9327 ****         5.2500 -19.2500 -15.0000 Du        
   9328 ****         5.2500 -19.0000 -16.7500 Du        
   9329 ****         5.2500 -19.0000 -16.5000 Du        
   9330 ****         5.2500 -19.0000 -16.2500 Du        
   9331 ****         5.2500 -19.0000 -16.0000 Du        
   9332 ****         5.2500 -19.0000 -15.7500 Du        
   9333 ****         5.2500 -19.0000 -15.5000 Du        
   9334 ****         5.2500 -19.0000 -15.2500 Du        
   9335 ****         5.2500 -18.7500 -16.7500 Du        
   9336 ****         5.2500 -18.7500 -16.5000 Du        
   9337 ****         5.2500 -18.7500 -16.2500 Du        
   9338 ****         5.2500 -18.7500 -16.0000 Du        
   9339 ****         5.2500 -18.7500 -15.7500 Du        
   9340 ****         5.2500 -18.7500 -15.5000 Du        
   9341 ****         5.2500 -18.5000 -17.0000 Du        
   9342 ****         5.2500 -18.5000 -16.7500 Du        
   9343 ****         5.2500 -18.5000 -16.5000 Du        
   9344 ****         5.2500 -18.5000 -16.2500 Du        
   9345 ****         5.2500 -18.5000 -16.0000 Du        
   9346 ****         5.2500 -18.2500 -17.2500 Du        
   9347 ****         5.2500 -18.2500 -17.0000 Du        
   9348 ****         5.2500 -18.2500 -16.7500 Du        
   9349 ****         5.2500 -18.2500 -16.5000 Du        
   9350 ****         5.2500 -18.2500 -16.2500 Du        
   9351 ****         5.2500 -18.0000 -17.7500 Du        
   9352 ****         5.2500 -18.0000 -17.5000 Du        
   9353 ****         5.2500 -18.0000 -17.2500 Du        
   9354 ****         5.2500 -18.0000 -17.0000 Du        
   9355 ****         5.2500 -18.0000 -16.7500 Du        
   9356 ****         5.2500 -17.7500 -18.0000 Du        
   9357 ****         5.2500 -17.7500 -17.7500 Du        
   9358 ****         5.2500 -17.7500 -17.5000 Du        
   9359 ****         5.2500 -17.7500 -17.2500 Du        
   9360 ****         5.2500 -17.5000 -17.7500 Du        
   9361 ****         5.2500 -17.2500 -18.2500 Du        
   9362 ****         5.2500 -17.2500 -17.7500 Du        
   9363 ****         5.2500 -17.0000 -18.2500 Du        
   9364 ****         5.2500 -12.7500 -20.0000 Du        
   9365 ****         5.5000 -24.7500 -13.2500 Du        
   9366 ****         5.5000 -24.7500 -13.0000 Du        
   9367 ****         5.5000 -24.7500 -12.7500 Du        
   9368 ****         5.5000 -24.5000 -13.5000 Du        
   9369 ****         5.5000 -24.5000 -13.2500 Du        
   9370 ****         5.5000 -24.5000 -13.0000 Du        
   9371 ****         5.5000 -24.5000 -12.7500 Du        
   9372 ****         5.5000 -24.5000 -12.5000 Du        
   9373 ****         5.5000 -24.5000 -12.2500 Du        
   9374 ****         5.5000 -24.2500 -13.5000 Du        
   9375 ****         5.5000 -24.2500 -13.2500 Du        
   9376 ****         5.5000 -24.2500 -13.0000 Du        
   9377 ****         5.5000 -24.2500 -12.7500 Du        
   9378 ****         5.5000 -24.2500 -12.5000 Du        
   9379 ****         5.5000 -24.2500 -12.2500 Du        
   9380 ****         5.5000 -24.2500 -12.0000 Du        
   9381 ****         5.5000 -24.0000 -13.7500 Du        
   9382 ****         5.5000 -24.0000 -13.5000 Du        
   9383 ****         5.5000 -24.0000 -13.2500 Du        
   9384 ****         5.5000 -24.0000 -13.0000 Du        
   9385 ****         5.5000 -24.0000 -12.7500 Du        
   9386 ****         5.5000 -24.0000 -12.5000 Du        
   9387 ****         5.5000 -24.0000 -12.2500 Du        
   9388 ****         5.5000 -24.0000 -12.0000 Du        
   9389 ****         5.5000 -24.0000 -11.7500 Du        
   9390 ****         5.5000 -23.7500 -14.2500 Du        
   9391 ****         5.5000 -23.7500 -14.0000 Du        
   9392 ****         5.5000 -23.7500 -13.7500 Du        
   9393 ****         5.5000 -23.7500 -13.5000 Du        
   9394 ****         5.5000 -23.7500 -13.2500 Du        
   9395 ****         5.5000 -23.7500 -13.0000 Du        
   9396 ****         5.5000 -23.7500 -12.7500 Du        
   9397 ****         5.5000 -23.7500 -12.5000 Du        
   9398 ****         5.5000 -23.7500 -12.2500 Du        
   9399 ****         5.5000 -23.7500 -12.0000 Du        
   9400 ****         5.5000 -23.7500 -11.7500 Du        
   9401 ****         5.5000 -23.5000 -14.2500 Du        
   9402 ****         5.5000 -23.5000 -14.0000 Du        
   9403 ****         5.5000 -23.5000 -13.7500 Du        
   9404 ****         5.5000 -23.5000 -13.5000 Du        
   9405 ****         5.5000 -23.5000 -13.2500 Du        
   9406 ****         5.5000 -23.5000 -13.0000 Du        
   9407 ****         5.5000 -23.5000 -12.7500 Du        
   9408 ****         5.5000 -23.5000 -12.5000 Du        
   9409 ****         5.5000 -23.5000 -12.2500 Du        
   9410 ****         5.5000 -23.5000 -12.0000 Du        
   9411 ****         5.5000 -23.2500 -14.5000 Du        
   9412 ****         5.5000 -23.2500 -14.2500 Du        
   9413 ****         5.5000 -23.2500 -14.0000 Du        
   9414 ****         5.5000 -23.2500 -13.7500 Du        
   9415 ****         5.5000 -23.2500 -13.5000 Du        
   9416 ****         5.5000 -23.2500 -13.2500 Du        
   9417 ****         5.5000 -23.2500 -13.0000 Du        
   9418 ****         5.5000 -23.2500 -12.7500 Du        
   9419 ****         5.5000 -23.2500 -12.5000 Du        
   9420 ****         5.5000 -23.2500 -12.2500 Du        
   9421 ****         5.5000 -23.2500 -12.0000 Du        
   9422 ****         5.5000 -23.0000 -14.7500 Du        
   9423 ****         5.5000 -23.0000 -14.5000 Du        
   9424 ****         5.5000 -23.0000 -14.2500 Du        
   9425 ****         5.5000 -23.0000 -14.0000 Du        
   9426 ****         5.5000 -23.0000 -13.7500 Du        
   9427 ****         5.5000 -23.0000 -13.5000 Du        
   9428 ****         5.5000 -23.0000 -13.2500 Du        
   9429 ****         5.5000 -23.0000 -13.0000 Du        
   9430 ****         5.5000 -23.0000 -12.7500 Du        
   9431 ****         5.5000 -23.0000 -12.5000 Du        
   9432 ****         5.5000 -23.0000 -12.2500 Du        
   9433 ****         5.5000 -22.7500 -15.0000 Du        
   9434 ****         5.5000 -22.7500 -14.7500 Du        
   9435 ****         5.5000 -22.7500 -14.5000 Du        
   9436 ****         5.5000 -22.7500 -14.2500 Du        
   9437 ****         5.5000 -22.7500 -14.0000 Du        
   9438 ****         5.5000 -22.7500 -13.7500 Du        
   9439 ****         5.5000 -22.7500 -13.5000 Du        
   9440 ****         5.5000 -22.7500 -13.2500 Du        
   9441 ****         5.5000 -22.7500 -13.0000 Du        
   9442 ****         5.5000 -22.7500 -12.7500 Du        
   9443 ****         5.5000 -22.7500 -12.5000 Du        
   9444 ****         5.5000 -22.5000 -15.0000 Du        
   9445 ****         5.5000 -22.5000 -14.7500 Du        
   9446 ****         5.5000 -22.5000 -14.5000 Du        
   9447 ****         5.5000 -22.5000 -14.2500 Du        
   9448 ****         5.5000 -22.5000 -14.0000 Du        
   9449 ****         5.5000 -22.5000 -13.7500 Du        
   9450 ****         5.5000 -22.5000 -13.5000 Du        
   9451 ****         5.5000 -22.5000 -13.2500 Du        
   9452 ****         5.5000 -22.5000 -13.0000 Du        
   9453 ****         5.5000 -22.5000 -12.7500 Du        
   9454 ****         5.5000 -22.2500 -15.0000 Du        
   9455 ****         5.5000 -22.2500 -14.7500 Du        
   9456 ****         5.5000 -22.2500 -14.5000 Du        
   9457 ****         5.5000 -22.2500 -14.2500 Du        
   9458 ****         5.5000 -22.2500 -14.0000 Du        
   9459 ****         5.5000 -22.2500 -13.7500 Du        
   9460 ****         5.5000 -22.2500 -13.5000 Du        
   9461 ****         5.5000 -22.2500 -13.2500 Du        
   9462 ****         5.5000 -22.2500 -13.0000 Du        
   9463 ****         5.5000 -22.2500 -12.7500 Du        
   9464 ****         5.5000 -22.0000 -15.0000 Du        
   9465 ****         5.5000 -22.0000 -14.7500 Du        
   9466 ****         5.5000 -22.0000 -14.5000 Du        
   9467 ****         5.5000 -22.0000 -14.2500 Du        
   9468 ****         5.5000 -22.0000 -14.0000 Du        
   9469 ****         5.5000 -22.0000 -13.7500 Du        
   9470 ****         5.5000 -22.0000 -13.5000 Du        
   9471 ****         5.5000 -22.0000 -13.2500 Du        
   9472 ****         5.5000 -22.0000 -13.0000 Du        
   9473 ****         5.5000 -21.7500 -15.2500 Du        
   9474 ****         5.5000 -21.7500 -15.0000 Du        
   9475 ****         5.5000 -21.7500 -14.7500 Du        
   9476 ****         5.5000 -21.7500 -14.5000 Du        
   9477 ****         5.5000 -21.7500 -14.2500 Du        
   9478 ****         5.5000 -21.7500 -14.0000 Du        
   9479 ****         5.5000 -21.7500 -13.7500 Du        
   9480 ****         5.5000 -21.7500 -13.5000 Du        
   9481 ****         5.5000 -21.7500 -13.2500 Du        
   9482 ****         5.5000 -21.7500 -13.0000 Du        
   9483 ****         5.5000 -21.5000 -15.2500 Du        
   9484 ****         5.5000 -21.5000 -15.0000 Du        
   9485 ****         5.5000 -21.5000 -14.7500 Du        
   9486 ****         5.5000 -21.5000 -14.5000 Du        
   9487 ****         5.5000 -21.5000 -14.2500 Du        
   9488 ****         5.5000 -21.5000 -14.0000 Du        
   9489 ****         5.5000 -21.5000 -13.7500 Du        
   9490 ****         5.5000 -21.5000 -13.5000 Du        
   9491 ****         5.5000 -21.5000 -13.2500 Du        
   9492 ****         5.5000 -21.2500 -15.5000 Du        
   9493 ****         5.5000 -21.2500 -15.2500 Du        
   9494 ****         5.5000 -21.2500 -15.0000 Du        
   9495 ****         5.5000 -21.2500 -14.7500 Du        
   9496 ****         5.5000 -21.2500 -14.5000 Du        
   9497 ****         5.5000 -21.2500 -14.2500 Du        
   9498 ****         5.5000 -21.2500 -14.0000 Du        
   9499 ****         5.5000 -21.2500 -13.7500 Du        
   9500 ****         5.5000 -21.2500 -13.5000 Du        
   9501 ****         5.5000 -21.0000 -15.7500 Du        
   9502 ****         5.5000 -21.0000 -15.5000 Du        
   9503 ****         5.5000 -21.0000 -15.2500 Du        
   9504 ****         5.5000 -21.0000 -15.0000 Du        
   9505 ****         5.5000 -21.0000 -14.7500 Du        
   9506 ****         5.5000 -21.0000 -14.5000 Du        
   9507 ****         5.5000 -21.0000 -14.2500 Du        
   9508 ****         5.5000 -21.0000 -14.0000 Du        
   9509 ****         5.5000 -21.0000 -13.7500 Du        
   9510 ****         5.5000 -20.7500 -15.7500 Du        
   9511 ****         5.5000 -20.7500 -15.5000 Du        
   9512 ****         5.5000 -20.7500 -15.2500 Du        
   9513 ****         5.5000 -20.7500 -15.0000 Du        
   9514 ****         5.5000 -20.7500 -14.7500 Du        
   9515 ****         5.5000 -20.7500 -14.5000 Du        
   9516 ****         5.5000 -20.7500 -14.2500 Du        
   9517 ****         5.5000 -20.7500 -14.0000 Du        
   9518 ****         5.5000 -20.5000 -16.0000 Du        
   9519 ****         5.5000 -20.5000 -15.7500 Du        
   9520 ****         5.5000 -20.5000 -15.5000 Du        
   9521 ****         5.5000 -20.5000 -15.2500 Du        
   9522 ****         5.5000 -20.5000 -15.0000 Du        
   9523 ****         5.5000 -20.5000 -14.7500 Du        
   9524 ****         5.5000 -20.5000 -14.5000 Du        
   9525 ****         5.5000 -20.5000 -14.2500 Du        
   9526 ****         5.5000 -20.5000 -14.0000 Du        
   9527 ****         5.5000 -20.2500 -16.0000 Du        
   9528 ****         5.5000 -20.2500 -15.7500 Du        
   9529 ****         5.5000 -20.2500 -15.5000 Du        
   9530 ****         5.5000 -20.2500 -15.2500 Du        
   9531 ****         5.5000 -20.2500 -15.0000 Du        
   9532 ****         5.5000 -20.2500 -14.7500 Du        
   9533 ****         5.5000 -20.2500 -14.5000 Du        
   9534 ****         5.5000 -20.2500 -14.2500 Du        
   9535 ****         5.5000 -20.0000 -16.2500 Du        
   9536 ****         5.5000 -20.0000 -16.0000 Du        
   9537 ****         5.5000 -20.0000 -15.7500 Du        
   9538 ****         5.5000 -20.0000 -15.5000 Du        
   9539 ****         5.5000 -20.0000 -15.2500 Du        
   9540 ****         5.5000 -20.0000 -15.0000 Du        
   9541 ****         5.5000 -20.0000 -14.7500 Du        
   9542 ****         5.5000 -20.0000 -14.5000 Du        
   9543 ****         5.5000 -20.0000 -14.2500 Du        
   9544 ****         5.5000 -19.7500 -16.2500 Du        
   9545 ****         5.5000 -19.7500 -16.0000 Du        
   9546 ****         5.5000 -19.7500 -15.7500 Du        
   9547 ****         5.5000 -19.7500 -15.5000 Du        
   9548 ****         5.5000 -19.7500 -15.2500 Du        
   9549 ****         5.5000 -19.7500 -15.0000 Du        
   9550 ****         5.5000 -19.7500 -14.7500 Du        
   9551 ****         5.5000 -19.7500 -14.5000 Du        
   9552 ****         5.5000 -19.5000 -16.2500 Du        
   9553 ****         5.5000 -19.5000 -16.0000 Du        
   9554 ****         5.5000 -19.5000 -15.7500 Du        
   9555 ****         5.5000 -19.5000 -15.5000 Du        
   9556 ****         5.5000 -19.5000 -15.2500 Du        
   9557 ****         5.5000 -19.5000 -15.0000 Du        
   9558 ****         5.5000 -19.5000 -14.7500 Du        
   9559 ****         5.5000 -19.2500 -16.5000 Du        
   9560 ****         5.5000 -19.2500 -16.2500 Du        
   9561 ****         5.5000 -19.2500 -16.0000 Du        
   9562 ****         5.5000 -19.2500 -15.7500 Du        
   9563 ****         5.5000 -19.2500 -15.5000 Du        
   9564 ****         5.5000 -19.2500 -15.2500 Du        
   9565 ****         5.5000 -19.2500 -15.0000 Du        
   9566 ****         5.5000 -19.2500 -14.7500 Du        
   9567 ****         5.5000 -19.0000 -16.7500 Du        
   9568 ****         5.5000 -19.0000 -16.5000 Du        
   9569 ****         5.5000 -19.0000 -16.2500 Du        
   9570 ****         5.5000 -19.0000 -16.0000 Du        
   9571 ****         5.5000 -19.0000 -15.7500 Du        
   9572 ****         5.5000 -19.0000 -15.5000 Du        
   9573 ****         5.5000 -19.0000 -15.2500 Du        
   9574 ****         5.5000 -19.0000 -15.0000 Du        
   9575 ****         5.5000 -18.7500 -17.0000 Du        
   9576 ****         5.5000 -18.7500 -16.7500 Du        
   9577 ****         5.5000 -18.7500 -16.5000 Du        
   9578 ****         5.5000 -18.7500 -16.2500 Du        
   9579 ****         5.5000 -18.7500 -16.0000 Du        
   9580 ****         5.5000 -18.7500 -15.7500 Du        
   9581 ****         5.5000 -18.7500 -15.5000 Du        
   9582 ****         5.5000 -18.7500 -15.2500 Du        
   9583 ****         5.5000 -18.5000 -17.2500 Du        
   9584 ****         5.5000 -18.5000 -17.0000 Du        
   9585 ****         5.5000 -18.5000 -16.7500 Du        
   9586 ****         5.5000 -18.5000 -16.5000 Du        
   9587 ****         5.5000 -18.5000 -16.2500 Du        
   9588 ****         5.5000 -18.5000 -16.0000 Du        
   9589 ****         5.5000 -18.5000 -15.7500 Du        
   9590 ****         5.5000 -18.2500 -17.5000 Du        
   9591 ****         5.5000 -18.2500 -17.2500 Du        
   9592 ****         5.5000 -18.2500 -17.0000 Du        
   9593 ****         5.5000 -18.2500 -16.7500 Du        
   9594 ****         5.5000 -18.2500 -16.5000 Du        
   9595 ****         5.5000 -18.2500 -16.2500 Du        
   9596 ****         5.5000 -18.2500 -16.0000 Du        
   9597 ****         5.5000 -18.0000 -17.7500 Du        
   9598 ****         5.5000 -18.0000 -17.5000 Du        
   9599 ****         5.5000 -18.0000 -17.2500 Du        
   9600 ****         5.5000 -18.0000 -17.0000 Du        
   9601 ****         5.5000 -18.0000 -16.7500 Du        
   9602 ****         5.5000 -18.0000 -16.5000 Du        
   9603 ****         5.5000 -17.7500 -17.7500 Du        
   9604 ****         5.5000 -17.7500 -17.5000 Du        
   9605 ****         5.5000 -17.7500 -17.2500 Du        
   9606 ****         5.5000 -17.7500 -17.0000 Du        
   9607 ****         5.5000 -17.7500 -16.7500 Du        
   9608 ****         5.5000 -17.5000 -17.7500 Du        
   9609 ****         5.5000 -17.5000 -17.5000 Du        
   9610 ****         5.5000 -17.5000 -17.2500 Du        
   9611 ****         5.5000 -17.2500 -17.7500 Du        
   9612 ****         5.7500 -24.5000 -13.2500 Du        
   9613 ****         5.7500 -24.5000 -13.0000 Du        
   9614 ****         5.7500 -24.5000 -12.7500 Du        
   9615 ****         5.7500 -24.5000 -12.5000 Du        
   9616 ****         5.7500 -24.2500 -13.5000 Du        
   9617 ****         5.7500 -24.2500 -13.2500 Du        
   9618 ****         5.7500 -24.2500 -13.0000 Du        
   9619 ****         5.7500 -24.2500 -12.7500 Du        
   9620 ****         5.7500 -24.2500 -12.5000 Du        
   9621 ****         5.7500 -24.2500 -12.2500 Du        
   9622 ****         5.7500 -24.2500 -12.0000 Du        
   9623 ****         5.7500 -24.0000 -13.5000 Du        
   9624 ****         5.7500 -24.0000 -13.2500 Du        
   9625 ****         5.7500 -24.0000 -13.0000 Du        
   9626 ****         5.7500 -24.0000 -12.7500 Du        
   9627 ****         5.7500 -24.0000 -12.5000 Du        
   9628 ****         5.7500 -24.0000 -12.2500 Du        
   9629 ****         5.7500 -24.0000 -12.0000 Du        
   9630 ****         5.7500 -24.0000 -11.7500 Du        
   9631 ****         5.7500 -23.7500 -14.0000 Du        
   9632 ****         5.7500 -23.7500 -13.7500 Du        
   9633 ****         5.7500 -23.7500 -13.5000 Du        
   9634 ****         5.7500 -23.7500 -13.2500 Du        
   9635 ****         5.7500 -23.7500 -13.0000 Du        
   9636 ****         5.7500 -23.7500 -12.7500 Du        
   9637 ****         5.7500 -23.7500 -12.5000 Du        
   9638 ****         5.7500 -23.7500 -12.2500 Du        
   9639 ****         5.7500 -23.7500 -12.0000 Du        
   9640 ****         5.7500 -23.7500 -11.7500 Du        
   9641 ****         5.7500 -23.5000 -14.2500 Du        
   9642 ****         5.7500 -23.5000 -14.0000 Du        
   9643 ****         5.7500 -23.5000 -13.7500 Du        
   9644 ****         5.7500 -23.5000 -13.5000 Du        
   9645 ****         5.7500 -23.5000 -13.2500 Du        
   9646 ****         5.7500 -23.5000 -13.0000 Du        
   9647 ****         5.7500 -23.5000 -12.7500 Du        
   9648 ****         5.7500 -23.5000 -12.5000 Du        
   9649 ****         5.7500 -23.5000 -12.2500 Du        
   9650 ****         5.7500 -23.5000 -12.0000 Du        
   9651 ****         5.7500 -23.2500 -14.5000 Du        
   9652 ****         5.7500 -23.2500 -14.2500 Du        
   9653 ****         5.7500 -23.2500 -14.0000 Du        
   9654 ****         5.7500 -23.2500 -13.7500 Du        
   9655 ****         5.7500 -23.2500 -13.5000 Du        
   9656 ****         5.7500 -23.2500 -13.2500 Du        
   9657 ****         5.7500 -23.2500 -13.0000 Du        
   9658 ****         5.7500 -23.2500 -12.7500 Du        
   9659 ****         5.7500 -23.2500 -12.5000 Du        
   9660 ****         5.7500 -23.2500 -12.2500 Du        
   9661 ****         5.7500 -23.2500 -12.0000 Du        
   9662 ****         5.7500 -23.0000 -14.7500 Du        
   9663 ****         5.7500 -23.0000 -14.5000 Du        
   9664 ****         5.7500 -23.0000 -14.2500 Du        
   9665 ****         5.7500 -23.0000 -14.0000 Du        
   9666 ****         5.7500 -23.0000 -13.7500 Du        
   9667 ****         5.7500 -23.0000 -13.5000 Du        
   9668 ****         5.7500 -23.0000 -13.2500 Du        
   9669 ****         5.7500 -23.0000 -13.0000 Du        
   9670 ****         5.7500 -23.0000 -12.7500 Du        
   9671 ****         5.7500 -23.0000 -12.5000 Du        
   9672 ****         5.7500 -23.0000 -12.2500 Du        
   9673 ****         5.7500 -22.7500 -15.0000 Du        
   9674 ****         5.7500 -22.7500 -14.7500 Du        
   9675 ****         5.7500 -22.7500 -14.5000 Du        
   9676 ****         5.7500 -22.7500 -14.2500 Du        
   9677 ****         5.7500 -22.7500 -14.0000 Du        
   9678 ****         5.7500 -22.7500 -13.7500 Du        
   9679 ****         5.7500 -22.7500 -13.5000 Du        
   9680 ****         5.7500 -22.7500 -13.2500 Du        
   9681 ****         5.7500 -22.7500 -13.0000 Du        
   9682 ****         5.7500 -22.7500 -12.7500 Du        
   9683 ****         5.7500 -22.7500 -12.5000 Du        
   9684 ****         5.7500 -22.5000 -15.0000 Du        
   9685 ****         5.7500 -22.5000 -14.7500 Du        
   9686 ****         5.7500 -22.5000 -14.5000 Du        
   9687 ****         5.7500 -22.5000 -14.2500 Du        
   9688 ****         5.7500 -22.5000 -14.0000 Du        
   9689 ****         5.7500 -22.5000 -13.7500 Du        
   9690 ****         5.7500 -22.5000 -13.5000 Du        
   9691 ****         5.7500 -22.5000 -13.2500 Du        
   9692 ****         5.7500 -22.5000 -13.0000 Du        
   9693 ****         5.7500 -22.5000 -12.7500 Du        
   9694 ****         5.7500 -22.2500 -15.2500 Du        
   9695 ****         5.7500 -22.2500 -15.0000 Du        
   9696 ****         5.7500 -22.2500 -14.7500 Du        
   9697 ****         5.7500 -22.2500 -14.5000 Du        
   9698 ****         5.7500 -22.2500 -14.2500 Du        
   9699 ****         5.7500 -22.2500 -14.0000 Du        
   9700 ****         5.7500 -22.2500 -13.7500 Du        
   9701 ****         5.7500 -22.2500 -13.5000 Du        
   9702 ****         5.7500 -22.2500 -13.2500 Du        
   9703 ****         5.7500 -22.2500 -13.0000 Du        
   9704 ****         5.7500 -22.0000 -15.2500 Du        
   9705 ****         5.7500 -22.0000 -15.0000 Du        
   9706 ****         5.7500 -22.0000 -14.7500 Du        
   9707 ****         5.7500 -22.0000 -14.5000 Du        
   9708 ****         5.7500 -22.0000 -14.2500 Du        
   9709 ****         5.7500 -22.0000 -14.0000 Du        
   9710 ****         5.7500 -22.0000 -13.7500 Du        
   9711 ****         5.7500 -22.0000 -13.5000 Du        
   9712 ****         5.7500 -22.0000 -13.2500 Du        
   9713 ****         5.7500 -22.0000 -13.0000 Du        
   9714 ****         5.7500 -21.7500 -15.2500 Du        
   9715 ****         5.7500 -21.7500 -15.0000 Du        
   9716 ****         5.7500 -21.7500 -14.7500 Du        
   9717 ****         5.7500 -21.7500 -14.5000 Du        
   9718 ****         5.7500 -21.7500 -14.2500 Du        
   9719 ****         5.7500 -21.7500 -14.0000 Du        
   9720 ****         5.7500 -21.7500 -13.7500 Du        
   9721 ****         5.7500 -21.7500 -13.5000 Du        
   9722 ****         5.7500 -21.7500 -13.2500 Du        
   9723 ****         5.7500 -21.7500 -13.0000 Du        
   9724 ****         5.7500 -21.5000 -15.5000 Du        
   9725 ****         5.7500 -21.5000 -15.2500 Du        
   9726 ****         5.7500 -21.5000 -15.0000 Du        
   9727 ****         5.7500 -21.5000 -14.7500 Du        
   9728 ****         5.7500 -21.5000 -14.5000 Du        
   9729 ****         5.7500 -21.5000 -14.2500 Du        
   9730 ****         5.7500 -21.5000 -14.0000 Du        
   9731 ****         5.7500 -21.5000 -13.7500 Du        
   9732 ****         5.7500 -21.5000 -13.5000 Du        
   9733 ****         5.7500 -21.5000 -13.2500 Du        
   9734 ****         5.7500 -21.2500 -15.7500 Du        
   9735 ****         5.7500 -21.2500 -15.5000 Du        
   9736 ****         5.7500 -21.2500 -15.2500 Du        
   9737 ****         5.7500 -21.2500 -15.0000 Du        
   9738 ****         5.7500 -21.2500 -14.7500 Du        
   9739 ****         5.7500 -21.2500 -14.5000 Du        
   9740 ****         5.7500 -21.2500 -14.2500 Du        
   9741 ****         5.7500 -21.2500 -14.0000 Du        
   9742 ****         5.7500 -21.2500 -13.7500 Du        
   9743 ****         5.7500 -21.2500 -13.5000 Du        
   9744 ****         5.7500 -21.2500 -13.2500 Du        
   9745 ****         5.7500 -21.0000 -16.0000 Du        
   9746 ****         5.7500 -21.0000 -15.7500 Du        
   9747 ****         5.7500 -21.0000 -15.5000 Du        
   9748 ****         5.7500 -21.0000 -15.2500 Du        
   9749 ****         5.7500 -21.0000 -15.0000 Du        
   9750 ****         5.7500 -21.0000 -14.7500 Du        
   9751 ****         5.7500 -21.0000 -14.5000 Du        
   9752 ****         5.7500 -21.0000 -14.2500 Du        
   9753 ****         5.7500 -21.0000 -14.0000 Du        
   9754 ****         5.7500 -21.0000 -13.7500 Du        
   9755 ****         5.7500 -20.7500 -16.0000 Du        
   9756 ****         5.7500 -20.7500 -15.7500 Du        
   9757 ****         5.7500 -20.7500 -15.5000 Du        
   9758 ****         5.7500 -20.7500 -15.2500 Du        
   9759 ****         5.7500 -20.7500 -15.0000 Du        
   9760 ****         5.7500 -20.7500 -14.7500 Du        
   9761 ****         5.7500 -20.7500 -14.5000 Du        
   9762 ****         5.7500 -20.7500 -14.2500 Du        
   9763 ****         5.7500 -20.7500 -14.0000 Du        
   9764 ****         5.7500 -20.7500 -13.7500 Du        
   9765 ****         5.7500 -20.5000 -16.0000 Du        
   9766 ****         5.7500 -20.5000 -15.7500 Du        
   9767 ****         5.7500 -20.5000 -15.5000 Du        
   9768 ****         5.7500 -20.5000 -15.2500 Du        
   9769 ****         5.7500 -20.5000 -15.0000 Du        
   9770 ****         5.7500 -20.5000 -14.7500 Du        
   9771 ****         5.7500 -20.5000 -14.5000 Du        
   9772 ****         5.7500 -20.5000 -14.2500 Du        
   9773 ****         5.7500 -20.5000 -14.0000 Du        
   9774 ****         5.7500 -20.2500 -16.2500 Du        
   9775 ****         5.7500 -20.2500 -16.0000 Du        
   9776 ****         5.7500 -20.2500 -15.7500 Du        
   9777 ****         5.7500 -20.2500 -15.5000 Du        
   9778 ****         5.7500 -20.2500 -15.2500 Du        
   9779 ****         5.7500 -20.2500 -15.0000 Du        
   9780 ****         5.7500 -20.2500 -14.7500 Du        
   9781 ****         5.7500 -20.2500 -14.5000 Du        
   9782 ****         5.7500 -20.2500 -14.2500 Du        
   9783 ****         5.7500 -20.0000 -16.2500 Du        
   9784 ****         5.7500 -20.0000 -16.0000 Du        
   9785 ****         5.7500 -20.0000 -15.7500 Du        
   9786 ****         5.7500 -20.0000 -15.5000 Du        
   9787 ****         5.7500 -20.0000 -15.2500 Du        
   9788 ****         5.7500 -20.0000 -15.0000 Du        
   9789 ****         5.7500 -20.0000 -14.7500 Du        
   9790 ****         5.7500 -20.0000 -14.5000 Du        
   9791 ****         5.7500 -20.0000 -14.2500 Du        
   9792 ****         5.7500 -19.7500 -16.5000 Du        
   9793 ****         5.7500 -19.7500 -16.2500 Du        
   9794 ****         5.7500 -19.7500 -16.0000 Du        
   9795 ****         5.7500 -19.7500 -15.7500 Du        
   9796 ****         5.7500 -19.7500 -15.5000 Du        
   9797 ****         5.7500 -19.7500 -15.2500 Du        
   9798 ****         5.7500 -19.7500 -15.0000 Du        
   9799 ****         5.7500 -19.7500 -14.7500 Du        
   9800 ****         5.7500 -19.7500 -14.5000 Du        
   9801 ****         5.7500 -19.5000 -16.5000 Du        
   9802 ****         5.7500 -19.5000 -16.2500 Du        
   9803 ****         5.7500 -19.5000 -16.0000 Du        
   9804 ****         5.7500 -19.5000 -15.7500 Du        
   9805 ****         5.7500 -19.5000 -15.5000 Du        
   9806 ****         5.7500 -19.5000 -15.2500 Du        
   9807 ****         5.7500 -19.5000 -15.0000 Du        
   9808 ****         5.7500 -19.5000 -14.7500 Du        
   9809 ****         5.7500 -19.5000 -14.5000 Du        
   9810 ****         5.7500 -19.2500 -16.7500 Du        
   9811 ****         5.7500 -19.2500 -16.5000 Du        
   9812 ****         5.7500 -19.2500 -16.2500 Du        
   9813 ****         5.7500 -19.2500 -16.0000 Du        
   9814 ****         5.7500 -19.2500 -15.7500 Du        
   9815 ****         5.7500 -19.2500 -15.5000 Du        
   9816 ****         5.7500 -19.2500 -15.2500 Du        
   9817 ****         5.7500 -19.2500 -15.0000 Du        
   9818 ****         5.7500 -19.2500 -14.7500 Du        
   9819 ****         5.7500 -19.0000 -17.0000 Du        
   9820 ****         5.7500 -19.0000 -16.7500 Du        
   9821 ****         5.7500 -19.0000 -16.5000 Du        
   9822 ****         5.7500 -19.0000 -16.2500 Du        
   9823 ****         5.7500 -19.0000 -16.0000 Du        
   9824 ****         5.7500 -19.0000 -15.7500 Du        
   9825 ****         5.7500 -19.0000 -15.5000 Du        
   9826 ****         5.7500 -19.0000 -15.2500 Du        
   9827 ****         5.7500 -19.0000 -15.0000 Du        
   9828 ****         5.7500 -18.7500 -17.0000 Du        
   9829 ****         5.7500 -18.7500 -16.7500 Du        
   9830 ****         5.7500 -18.7500 -16.5000 Du        
   9831 ****         5.7500 -18.7500 -16.2500 Du        
   9832 ****         5.7500 -18.7500 -16.0000 Du        
   9833 ****         5.7500 -18.7500 -15.7500 Du        
   9834 ****         5.7500 -18.7500 -15.5000 Du        
   9835 ****         5.7500 -18.7500 -15.2500 Du        
   9836 ****         5.7500 -18.5000 -17.2500 Du        
   9837 ****         5.7500 -18.5000 -17.0000 Du        
   9838 ****         5.7500 -18.5000 -16.7500 Du        
   9839 ****         5.7500 -18.5000 -16.5000 Du        
   9840 ****         5.7500 -18.5000 -16.2500 Du        
   9841 ****         5.7500 -18.5000 -16.0000 Du        
   9842 ****         5.7500 -18.5000 -15.7500 Du        
   9843 ****         5.7500 -18.2500 -17.2500 Du        
   9844 ****         5.7500 -18.2500 -17.0000 Du        
   9845 ****         5.7500 -18.2500 -16.7500 Du        
   9846 ****         5.7500 -18.2500 -16.5000 Du        
   9847 ****         5.7500 -18.2500 -16.2500 Du        
   9848 ****         5.7500 -18.2500 -16.0000 Du        
   9849 ****         5.7500 -18.0000 -17.5000 Du        
   9850 ****         5.7500 -18.0000 -17.2500 Du        
   9851 ****         5.7500 -18.0000 -17.0000 Du        
   9852 ****         5.7500 -18.0000 -16.7500 Du        
   9853 ****         5.7500 -18.0000 -16.5000 Du        
   9854 ****         5.7500 -18.0000 -16.2500 Du        
   9855 ****         5.7500 -17.7500 -17.5000 Du        
   9856 ****         5.7500 -17.7500 -17.2500 Du        
   9857 ****         5.7500 -17.7500 -17.0000 Du        
   9858 ****         5.7500 -17.7500 -16.7500 Du        
   9859 ****         5.7500 -17.7500 -16.5000 Du        
   9860 ****         5.7500 -17.5000 -17.2500 Du        
   9861 ****         5.7500 -17.5000 -17.0000 Du        
   9862 ****         6.0000 -24.2500 -13.2500 Du        
   9863 ****         6.0000 -24.2500 -13.0000 Du        
   9864 ****         6.0000 -24.2500 -12.7500 Du        
   9865 ****         6.0000 -24.2500 -12.5000 Du        
   9866 ****         6.0000 -24.2500 -12.2500 Du        
   9867 ****         6.0000 -24.0000 -13.5000 Du        
   9868 ****         6.0000 -24.0000 -13.2500 Du        
   9869 ****         6.0000 -24.0000 -13.0000 Du        
   9870 ****         6.0000 -24.0000 -12.7500 Du        
   9871 ****         6.0000 -24.0000 -12.5000 Du        
   9872 ****         6.0000 -24.0000 -12.2500 Du        
   9873 ****         6.0000 -24.0000 -12.0000 Du        
   9874 ****         6.0000 -24.0000 -11.7500 Du        
   9875 ****         6.0000 -23.7500 -13.7500 Du        
   9876 ****         6.0000 -23.7500 -13.5000 Du        
   9877 ****         6.0000 -23.7500 -13.2500 Du        
   9878 ****         6.0000 -23.7500 -13.0000 Du        
   9879 ****         6.0000 -23.7500 -12.7500 Du        
   9880 ****         6.0000 -23.7500 -12.5000 Du        
   9881 ****         6.0000 -23.7500 -12.2500 Du        
   9882 ****         6.0000 -23.7500 -12.0000 Du        
   9883 ****         6.0000 -23.7500 -11.7500 Du        
   9884 ****         6.0000 -23.5000 -14.0000 Du        
   9885 ****         6.0000 -23.5000 -13.7500 Du        
   9886 ****         6.0000 -23.5000 -13.5000 Du        
   9887 ****         6.0000 -23.5000 -13.2500 Du        
   9888 ****         6.0000 -23.5000 -13.0000 Du        
   9889 ****         6.0000 -23.5000 -12.7500 Du        
   9890 ****         6.0000 -23.5000 -12.5000 Du        
   9891 ****         6.0000 -23.5000 -12.2500 Du        
   9892 ****         6.0000 -23.5000 -12.0000 Du        
   9893 ****         6.0000 -23.2500 -14.5000 Du        
   9894 ****         6.0000 -23.2500 -14.2500 Du        
   9895 ****         6.0000 -23.2500 -14.0000 Du        
   9896 ****         6.0000 -23.2500 -13.7500 Du        
   9897 ****         6.0000 -23.2500 -13.5000 Du        
   9898 ****         6.0000 -23.2500 -13.2500 Du        
   9899 ****         6.0000 -23.2500 -13.0000 Du        
   9900 ****         6.0000 -23.2500 -12.7500 Du        
   9901 ****         6.0000 -23.2500 -12.5000 Du        
   9902 ****         6.0000 -23.2500 -12.2500 Du        
   9903 ****         6.0000 -23.0000 -14.7500 Du        
   9904 ****         6.0000 -23.0000 -14.5000 Du        
   9905 ****         6.0000 -23.0000 -14.2500 Du        
   9906 ****         6.0000 -23.0000 -14.0000 Du        
   9907 ****         6.0000 -23.0000 -13.7500 Du        
   9908 ****         6.0000 -23.0000 -13.5000 Du        
   9909 ****         6.0000 -23.0000 -13.2500 Du        
   9910 ****         6.0000 -23.0000 -13.0000 Du        
   9911 ****         6.0000 -23.0000 -12.7500 Du        
   9912 ****         6.0000 -23.0000 -12.5000 Du        
   9913 ****         6.0000 -22.7500 -15.0000 Du        
   9914 ****         6.0000 -22.7500 -14.7500 Du        
   9915 ****         6.0000 -22.7500 -14.5000 Du        
   9916 ****         6.0000 -22.7500 -14.2500 Du        
   9917 ****         6.0000 -22.7500 -14.0000 Du        
   9918 ****         6.0000 -22.7500 -13.7500 Du        
   9919 ****         6.0000 -22.7500 -13.5000 Du        
   9920 ****         6.0000 -22.7500 -13.2500 Du        
   9921 ****         6.0000 -22.7500 -13.0000 Du        
   9922 ****         6.0000 -22.7500 -12.7500 Du        
   9923 ****         6.0000 -22.5000 -15.2500 Du        
   9924 ****         6.0000 -22.5000 -15.0000 Du        
   9925 ****         6.0000 -22.5000 -14.7500 Du        
   9926 ****         6.0000 -22.5000 -14.5000 Du        
   9927 ****         6.0000 -22.5000 -14.2500 Du        
   9928 ****         6.0000 -22.5000 -14.0000 Du        
   9929 ****         6.0000 -22.5000 -13.7500 Du        
   9930 ****         6.0000 -22.5000 -13.5000 Du        
   9931 ****         6.0000 -22.5000 -13.2500 Du        
   9932 ****         6.0000 -22.5000 -13.0000 Du        
   9933 ****         6.0000 -22.2500 -15.2500 Du        
   9934 ****         6.0000 -22.2500 -15.0000 Du        
   9935 ****         6.0000 -22.2500 -14.7500 Du        
   9936 ****         6.0000 -22.2500 -14.5000 Du        
   9937 ****         6.0000 -22.2500 -14.2500 Du        
   9938 ****         6.0000 -22.2500 -14.0000 Du        
   9939 ****         6.0000 -22.2500 -13.7500 Du        
   9940 ****         6.0000 -22.2500 -13.5000 Du        
   9941 ****         6.0000 -22.2500 -13.2500 Du        
   9942 ****         6.0000 -22.2500 -13.0000 Du        
   9943 ****         6.0000 -22.0000 -15.5000 Du        
   9944 ****         6.0000 -22.0000 -15.2500 Du        
   9945 ****         6.0000 -22.0000 -15.0000 Du        
   9946 ****         6.0000 -22.0000 -14.7500 Du        
   9947 ****         6.0000 -22.0000 -14.5000 Du        
   9948 ****         6.0000 -22.0000 -14.2500 Du        
   9949 ****         6.0000 -22.0000 -14.0000 Du        
   9950 ****         6.0000 -22.0000 -13.7500 Du        
   9951 ****         6.0000 -22.0000 -13.5000 Du        
   9952 ****         6.0000 -22.0000 -13.2500 Du        
   9953 ****         6.0000 -21.7500 -15.5000 Du        
   9954 ****         6.0000 -21.7500 -15.2500 Du        
   9955 ****         6.0000 -21.7500 -15.0000 Du        
   9956 ****         6.0000 -21.7500 -14.7500 Du        
   9957 ****         6.0000 -21.7500 -14.5000 Du        
   9958 ****         6.0000 -21.7500 -14.2500 Du        
   9959 ****         6.0000 -21.7500 -14.0000 Du        
   9960 ****         6.0000 -21.7500 -13.7500 Du        
   9961 ****         6.0000 -21.7500 -13.5000 Du        
   9962 ****         6.0000 -21.7500 -13.2500 Du        
   9963 ****         6.0000 -21.5000 -15.7500 Du        
   9964 ****         6.0000 -21.5000 -15.5000 Du        
   9965 ****         6.0000 -21.5000 -15.2500 Du        
   9966 ****         6.0000 -21.5000 -15.0000 Du        
   9967 ****         6.0000 -21.5000 -14.7500 Du        
   9968 ****         6.0000 -21.5000 -14.5000 Du        
   9969 ****         6.0000 -21.5000 -14.2500 Du        
   9970 ****         6.0000 -21.5000 -14.0000 Du        
   9971 ****         6.0000 -21.5000 -13.7500 Du        
   9972 ****         6.0000 -21.5000 -13.5000 Du        
   9973 ****         6.0000 -21.5000 -13.2500 Du        
   9974 ****         6.0000 -21.2500 -16.0000 Du        
   9975 ****         6.0000 -21.2500 -15.7500 Du        
   9976 ****         6.0000 -21.2500 -15.5000 Du        
   9977 ****         6.0000 -21.2500 -15.2500 Du        
   9978 ****         6.0000 -21.2500 -15.0000 Du        
   9979 ****         6.0000 -21.2500 -14.7500 Du        
   9980 ****         6.0000 -21.2500 -14.5000 Du        
   9981 ****         6.0000 -21.2500 -14.2500 Du        
   9982 ****         6.0000 -21.2500 -14.0000 Du        
   9983 ****         6.0000 -21.2500 -13.7500 Du        
   9984 ****         6.0000 -21.2500 -13.5000 Du        
   9985 ****         6.0000 -21.2500 -13.2500 Du        
   9986 ****         6.0000 -21.0000 -16.0000 Du        
   9987 ****         6.0000 -21.0000 -15.7500 Du        
   9988 ****         6.0000 -21.0000 -15.5000 Du        
   9989 ****         6.0000 -21.0000 -15.2500 Du        
   9990 ****         6.0000 -21.0000 -15.0000 Du        
   9991 ****         6.0000 -21.0000 -14.7500 Du        
   9992 ****         6.0000 -21.0000 -14.5000 Du        
   9993 ****         6.0000 -21.0000 -14.2500 Du        
   9994 ****         6.0000 -21.0000 -14.0000 Du        
   9995 ****         6.0000 -21.0000 -13.7500 Du        
   9996 ****         6.0000 -21.0000 -13.5000 Du        
   9997 ****         6.0000 -20.7500 -16.2500 Du        
   9998 ****         6.0000 -20.7500 -16.0000 Du        
   9999 ****         6.0000 -20.7500 -15.7500 Du        
  10000 ****         6.0000 -20.7500 -15.5000 Du        
  10001 ****         6.0000 -20.7500 -15.2500 Du        
  10002 ****         6.0000 -20.7500 -15.0000 Du        
  10003 ****         6.0000 -20.7500 -14.7500 Du        
  10004 ****         6.0000 -20.7500 -14.5000 Du        
  10005 ****         6.0000 -20.7500 -14.2500 Du        
  10006 ****         6.0000 -20.7500 -14.0000 Du        
  10007 ****         6.0000 -20.7500 -13.7500 Du        
  10008 ****         6.0000 -20.5000 -16.2500 Du        
  10009 ****         6.0000 -20.5000 -16.0000 Du        
  10010 ****         6.0000 -20.5000 -15.7500 Du        
  10011 ****         6.0000 -20.5000 -15.5000 Du        
  10012 ****         6.0000 -20.5000 -15.2500 Du        
  10013 ****         6.0000 -20.5000 -15.0000 Du        
  10014 ****         6.0000 -20.5000 -14.7500 Du        
  10015 ****         6.0000 -20.5000 -14.5000 Du        
  10016 ****         6.0000 -20.5000 -14.2500 Du        
  10017 ****         6.0000 -20.5000 -14.0000 Du        
  10018 ****         6.0000 -20.5000 -13.7500 Du        
  10019 ****         6.0000 -20.2500 -16.2500 Du        
  10020 ****         6.0000 -20.2500 -16.0000 Du        
  10021 ****         6.0000 -20.2500 -15.7500 Du        
  10022 ****         6.0000 -20.2500 -15.5000 Du        
  10023 ****         6.0000 -20.2500 -15.2500 Du        
  10024 ****         6.0000 -20.2500 -15.0000 Du        
  10025 ****         6.0000 -20.2500 -14.7500 Du        
  10026 ****         6.0000 -20.2500 -14.5000 Du        
  10027 ****         6.0000 -20.2500 -14.2500 Du        
  10028 ****         6.0000 -20.2500 -14.0000 Du        
  10029 ****         6.0000 -20.0000 -16.5000 Du        
  10030 ****         6.0000 -20.0000 -16.2500 Du        
  10031 ****         6.0000 -20.0000 -16.0000 Du        
  10032 ****         6.0000 -20.0000 -15.7500 Du        
  10033 ****         6.0000 -20.0000 -15.5000 Du        
  10034 ****         6.0000 -20.0000 -15.2500 Du        
  10035 ****         6.0000 -20.0000 -15.0000 Du        
  10036 ****         6.0000 -20.0000 -14.7500 Du        
  10037 ****         6.0000 -20.0000 -14.5000 Du        
  10038 ****         6.0000 -20.0000 -14.2500 Du        
  10039 ****         6.0000 -20.0000 -14.0000 Du        
  10040 ****         6.0000 -19.7500 -16.5000 Du        
  10041 ****         6.0000 -19.7500 -16.2500 Du        
  10042 ****         6.0000 -19.7500 -16.0000 Du        
  10043 ****         6.0000 -19.7500 -15.7500 Du        
  10044 ****         6.0000 -19.7500 -15.5000 Du        
  10045 ****         6.0000 -19.7500 -15.2500 Du        
  10046 ****         6.0000 -19.7500 -15.0000 Du        
  10047 ****         6.0000 -19.7500 -14.7500 Du        
  10048 ****         6.0000 -19.7500 -14.5000 Du        
  10049 ****         6.0000 -19.7500 -14.2500 Du        
  10050 ****         6.0000 -19.5000 -16.7500 Du        
  10051 ****         6.0000 -19.5000 -16.5000 Du        
  10052 ****         6.0000 -19.5000 -16.2500 Du        
  10053 ****         6.0000 -19.5000 -16.0000 Du        
  10054 ****         6.0000 -19.5000 -15.7500 Du        
  10055 ****         6.0000 -19.5000 -15.5000 Du        
  10056 ****         6.0000 -19.5000 -15.2500 Du        
  10057 ****         6.0000 -19.5000 -15.0000 Du        
  10058 ****         6.0000 -19.5000 -14.7500 Du        
  10059 ****         6.0000 -19.5000 -14.5000 Du        
  10060 ****         6.0000 -19.2500 -16.7500 Du        
  10061 ****         6.0000 -19.2500 -16.5000 Du        
  10062 ****         6.0000 -19.2500 -16.2500 Du        
  10063 ****         6.0000 -19.2500 -16.0000 Du        
  10064 ****         6.0000 -19.2500 -15.7500 Du        
  10065 ****         6.0000 -19.2500 -15.5000 Du        
  10066 ****         6.0000 -19.2500 -15.2500 Du        
  10067 ****         6.0000 -19.2500 -15.0000 Du        
  10068 ****         6.0000 -19.2500 -14.7500 Du        
  10069 ****         6.0000 -19.0000 -17.0000 Du        
  10070 ****         6.0000 -19.0000 -16.7500 Du        
  10071 ****         6.0000 -19.0000 -16.5000 Du        
  10072 ****         6.0000 -19.0000 -16.2500 Du        
  10073 ****         6.0000 -19.0000 -16.0000 Du        
  10074 ****         6.0000 -19.0000 -15.7500 Du        
  10075 ****         6.0000 -19.0000 -15.5000 Du        
  10076 ****         6.0000 -19.0000 -15.2500 Du        
  10077 ****         6.0000 -19.0000 -15.0000 Du        
  10078 ****         6.0000 -18.7500 -17.2500 Du        
  10079 ****         6.0000 -18.7500 -17.0000 Du        
  10080 ****         6.0000 -18.7500 -16.7500 Du        
  10081 ****         6.0000 -18.7500 -16.5000 Du        
  10082 ****         6.0000 -18.7500 -16.2500 Du        
  10083 ****         6.0000 -18.7500 -16.0000 Du        
  10084 ****         6.0000 -18.7500 -15.7500 Du        
  10085 ****         6.0000 -18.7500 -15.5000 Du        
  10086 ****         6.0000 -18.7500 -15.2500 Du        
  10087 ****         6.0000 -18.5000 -17.2500 Du        
  10088 ****         6.0000 -18.5000 -17.0000 Du        
  10089 ****         6.0000 -18.5000 -16.7500 Du        
  10090 ****         6.0000 -18.5000 -16.5000 Du        
  10091 ****         6.0000 -18.5000 -16.2500 Du        
  10092 ****         6.0000 -18.5000 -16.0000 Du        
  10093 ****         6.0000 -18.5000 -15.7500 Du        
  10094 ****         6.0000 -18.2500 -17.2500 Du        
  10095 ****         6.0000 -18.2500 -17.0000 Du        
  10096 ****         6.0000 -18.2500 -16.7500 Du        
  10097 ****         6.0000 -18.2500 -16.5000 Du        
  10098 ****         6.0000 -18.2500 -16.2500 Du        
  10099 ****         6.0000 -18.2500 -16.0000 Du        
  10100 ****         6.0000 -18.0000 -17.2500 Du        
  10101 ****         6.0000 -18.0000 -17.0000 Du        
  10102 ****         6.0000 -18.0000 -16.7500 Du        
  10103 ****         6.0000 -18.0000 -16.5000 Du        
  10104 ****         6.0000 -18.0000 -16.2500 Du        
  10105 ****         6.0000 -17.7500 -17.2500 Du        
  10106 ****         6.0000 -17.7500 -17.0000 Du        
  10107 ****         6.0000 -17.7500 -16.7500 Du        
  10108 ****         6.0000 -17.7500 -16.5000 Du        
  10109 ****         6.0000 -17.5000 -17.2500 Du        
  10110 ****         6.0000 -17.5000 -17.0000 Du        
  10111 ****         6.0000 -17.5000 -16.7500 Du        
  10112 ****         6.0000 -13.7500 -22.5000 Du        
  10113 ****         6.2500 -24.0000 -13.2500 Du        
  10114 ****         6.2500 -24.0000 -13.0000 Du        
  10115 ****         6.2500 -24.0000 -12.7500 Du        
  10116 ****         6.2500 -24.0000 -12.5000 Du        
  10117 ****         6.2500 -24.0000 -12.2500 Du        
  10118 ****         6.2500 -23.7500 -13.5000 Du        
  10119 ****         6.2500 -23.7500 -13.2500 Du        
  10120 ****         6.2500 -23.7500 -13.0000 Du        
  10121 ****         6.2500 -23.7500 -12.7500 Du        
  10122 ****         6.2500 -23.7500 -12.5000 Du        
  10123 ****         6.2500 -23.7500 -12.2500 Du        
  10124 ****         6.2500 -23.5000 -13.7500 Du        
  10125 ****         6.2500 -23.5000 -13.5000 Du        
  10126 ****         6.2500 -23.5000 -13.2500 Du        
  10127 ****         6.2500 -23.5000 -13.0000 Du        
  10128 ****         6.2500 -23.5000 -12.7500 Du        
  10129 ****         6.2500 -23.5000 -12.5000 Du        
  10130 ****         6.2500 -23.5000 -12.2500 Du        
  10131 ****         6.2500 -23.2500 -14.2500 Du        
  10132 ****         6.2500 -23.2500 -14.0000 Du        
  10133 ****         6.2500 -23.2500 -13.7500 Du        
  10134 ****         6.2500 -23.2500 -13.5000 Du        
  10135 ****         6.2500 -23.2500 -13.2500 Du        
  10136 ****         6.2500 -23.2500 -13.0000 Du        
  10137 ****         6.2500 -23.2500 -12.7500 Du        
  10138 ****         6.2500 -23.0000 -14.7500 Du        
  10139 ****         6.2500 -23.0000 -14.5000 Du        
  10140 ****         6.2500 -23.0000 -14.2500 Du        
  10141 ****         6.2500 -23.0000 -14.0000 Du        
  10142 ****         6.2500 -23.0000 -13.7500 Du        
  10143 ****         6.2500 -23.0000 -13.5000 Du        
  10144 ****         6.2500 -23.0000 -13.2500 Du        
  10145 ****         6.2500 -23.0000 -13.0000 Du        
  10146 ****         6.2500 -23.0000 -12.7500 Du        
  10147 ****         6.2500 -22.7500 -15.2500 Du        
  10148 ****         6.2500 -22.7500 -15.0000 Du        
  10149 ****         6.2500 -22.7500 -14.7500 Du        
  10150 ****         6.2500 -22.7500 -14.5000 Du        
  10151 ****         6.2500 -22.7500 -14.2500 Du        
  10152 ****         6.2500 -22.7500 -14.0000 Du        
  10153 ****         6.2500 -22.7500 -13.7500 Du        
  10154 ****         6.2500 -22.7500 -13.5000 Du        
  10155 ****         6.2500 -22.7500 -13.2500 Du        
  10156 ****         6.2500 -22.7500 -13.0000 Du        
  10157 ****         6.2500 -22.5000 -15.2500 Du        
  10158 ****         6.2500 -22.5000 -15.0000 Du        
  10159 ****         6.2500 -22.5000 -14.7500 Du        
  10160 ****         6.2500 -22.5000 -14.5000 Du        
  10161 ****         6.2500 -22.5000 -14.2500 Du        
  10162 ****         6.2500 -22.5000 -14.0000 Du        
  10163 ****         6.2500 -22.5000 -13.7500 Du        
  10164 ****         6.2500 -22.5000 -13.5000 Du        
  10165 ****         6.2500 -22.5000 -13.2500 Du        
  10166 ****         6.2500 -22.2500 -15.5000 Du        
  10167 ****         6.2500 -22.2500 -15.2500 Du        
  10168 ****         6.2500 -22.2500 -15.0000 Du        
  10169 ****         6.2500 -22.2500 -14.7500 Du        
  10170 ****         6.2500 -22.2500 -14.5000 Du        
  10171 ****         6.2500 -22.2500 -14.2500 Du        
  10172 ****         6.2500 -22.2500 -14.0000 Du        
  10173 ****         6.2500 -22.2500 -13.7500 Du        
  10174 ****         6.2500 -22.2500 -13.5000 Du        
  10175 ****         6.2500 -22.2500 -13.2500 Du        
  10176 ****         6.2500 -22.0000 -15.5000 Du        
  10177 ****         6.2500 -22.0000 -15.2500 Du        
  10178 ****         6.2500 -22.0000 -15.0000 Du        
  10179 ****         6.2500 -22.0000 -14.7500 Du        
  10180 ****         6.2500 -22.0000 -14.5000 Du        
  10181 ****         6.2500 -22.0000 -14.2500 Du        
  10182 ****         6.2500 -22.0000 -14.0000 Du        
  10183 ****         6.2500 -22.0000 -13.7500 Du        
  10184 ****         6.2500 -22.0000 -13.5000 Du        
  10185 ****         6.2500 -22.0000 -13.2500 Du        
  10186 ****         6.2500 -21.7500 -15.7500 Du        
  10187 ****         6.2500 -21.7500 -15.5000 Du        
  10188 ****         6.2500 -21.7500 -15.2500 Du        
  10189 ****         6.2500 -21.7500 -15.0000 Du        
  10190 ****         6.2500 -21.7500 -14.7500 Du        
  10191 ****         6.2500 -21.7500 -14.5000 Du        
  10192 ****         6.2500 -21.7500 -14.2500 Du        
  10193 ****         6.2500 -21.7500 -14.0000 Du        
  10194 ****         6.2500 -21.7500 -13.7500 Du        
  10195 ****         6.2500 -21.7500 -13.5000 Du        
  10196 ****         6.2500 -21.5000 -15.7500 Du        
  10197 ****         6.2500 -21.5000 -15.5000 Du        
  10198 ****         6.2500 -21.5000 -15.2500 Du        
  10199 ****         6.2500 -21.5000 -15.0000 Du        
  10200 ****         6.2500 -21.5000 -14.7500 Du        
  10201 ****         6.2500 -21.5000 -14.5000 Du        
  10202 ****         6.2500 -21.5000 -14.2500 Du        
  10203 ****         6.2500 -21.5000 -14.0000 Du        
  10204 ****         6.2500 -21.5000 -13.7500 Du        
  10205 ****         6.2500 -21.5000 -13.5000 Du        
  10206 ****         6.2500 -21.2500 -16.0000 Du        
  10207 ****         6.2500 -21.2500 -15.7500 Du        
  10208 ****         6.2500 -21.2500 -15.5000 Du        
  10209 ****         6.2500 -21.2500 -15.2500 Du        
  10210 ****         6.2500 -21.2500 -15.0000 Du        
  10211 ****         6.2500 -21.2500 -14.7500 Du        
  10212 ****         6.2500 -21.2500 -14.5000 Du        
  10213 ****         6.2500 -21.2500 -14.2500 Du        
  10214 ****         6.2500 -21.2500 -14.0000 Du        
  10215 ****         6.2500 -21.2500 -13.7500 Du        
  10216 ****         6.2500 -21.2500 -13.5000 Du        
  10217 ****         6.2500 -21.0000 -16.2500 Du        
  10218 ****         6.2500 -21.0000 -16.0000 Du        
  10219 ****         6.2500 -21.0000 -15.7500 Du        
  10220 ****         6.2500 -21.0000 -15.5000 Du        
  10221 ****         6.2500 -21.0000 -15.2500 Du        
  10222 ****         6.2500 -21.0000 -15.0000 Du        
  10223 ****         6.2500 -21.0000 -14.7500 Du        
  10224 ****         6.2500 -21.0000 -14.5000 Du        
  10225 ****         6.2500 -21.0000 -14.2500 Du        
  10226 ****         6.2500 -21.0000 -14.0000 Du        
  10227 ****         6.2500 -21.0000 -13.7500 Du        
  10228 ****         6.2500 -21.0000 -13.5000 Du        
  10229 ****         6.2500 -20.7500 -16.2500 Du        
  10230 ****         6.2500 -20.7500 -16.0000 Du        
  10231 ****         6.2500 -20.7500 -15.7500 Du        
  10232 ****         6.2500 -20.7500 -15.5000 Du        
  10233 ****         6.2500 -20.7500 -15.2500 Du        
  10234 ****         6.2500 -20.7500 -15.0000 Du        
  10235 ****         6.2500 -20.7500 -14.7500 Du        
  10236 ****         6.2500 -20.7500 -14.5000 Du        
  10237 ****         6.2500 -20.7500 -14.2500 Du        
  10238 ****         6.2500 -20.7500 -14.0000 Du        
  10239 ****         6.2500 -20.7500 -13.7500 Du        
  10240 ****         6.2500 -20.7500 -13.5000 Du        
  10241 ****         6.2500 -20.5000 -16.2500 Du        
  10242 ****         6.2500 -20.5000 -16.0000 Du        
  10243 ****         6.2500 -20.5000 -15.7500 Du        
  10244 ****         6.2500 -20.5000 -15.5000 Du        
  10245 ****         6.2500 -20.5000 -15.2500 Du        
  10246 ****         6.2500 -20.5000 -15.0000 Du        
  10247 ****         6.2500 -20.5000 -14.7500 Du        
  10248 ****         6.2500 -20.5000 -14.5000 Du        
  10249 ****         6.2500 -20.5000 -14.2500 Du        
  10250 ****         6.2500 -20.5000 -14.0000 Du        
  10251 ****         6.2500 -20.5000 -13.7500 Du        
  10252 ****         6.2500 -20.2500 -16.5000 Du        
  10253 ****         6.2500 -20.2500 -16.2500 Du        
  10254 ****         6.2500 -20.2500 -16.0000 Du        
  10255 ****         6.2500 -20.2500 -15.7500 Du        
  10256 ****         6.2500 -20.2500 -15.5000 Du        
  10257 ****         6.2500 -20.2500 -15.2500 Du        
  10258 ****         6.2500 -20.2500 -15.0000 Du        
  10259 ****         6.2500 -20.2500 -14.7500 Du        
  10260 ****         6.2500 -20.2500 -14.5000 Du        
  10261 ****         6.2500 -20.2500 -14.2500 Du        
  10262 ****         6.2500 -20.2500 -14.0000 Du        
  10263 ****         6.2500 -20.2500 -13.7500 Du        
  10264 ****         6.2500 -20.0000 -16.5000 Du        
  10265 ****         6.2500 -20.0000 -16.2500 Du        
  10266 ****         6.2500 -20.0000 -16.0000 Du        
  10267 ****         6.2500 -20.0000 -15.7500 Du        
  10268 ****         6.2500 -20.0000 -15.5000 Du        
  10269 ****         6.2500 -20.0000 -15.2500 Du        
  10270 ****         6.2500 -20.0000 -15.0000 Du        
  10271 ****         6.2500 -20.0000 -14.7500 Du        
  10272 ****         6.2500 -20.0000 -14.5000 Du        
  10273 ****         6.2500 -20.0000 -14.2500 Du        
  10274 ****         6.2500 -20.0000 -14.0000 Du        
  10275 ****         6.2500 -19.7500 -16.7500 Du        
  10276 ****         6.2500 -19.7500 -16.5000 Du        
  10277 ****         6.2500 -19.7500 -16.2500 Du        
  10278 ****         6.2500 -19.7500 -16.0000 Du        
  10279 ****         6.2500 -19.7500 -15.7500 Du        
  10280 ****         6.2500 -19.7500 -15.5000 Du        
  10281 ****         6.2500 -19.7500 -15.2500 Du        
  10282 ****         6.2500 -19.7500 -15.0000 Du        
  10283 ****         6.2500 -19.7500 -14.7500 Du        
  10284 ****         6.2500 -19.7500 -14.5000 Du        
  10285 ****         6.2500 -19.7500 -14.2500 Du        
  10286 ****         6.2500 -19.5000 -16.7500 Du        
  10287 ****         6.2500 -19.5000 -16.5000 Du        
  10288 ****         6.2500 -19.5000 -16.2500 Du        
  10289 ****         6.2500 -19.5000 -16.0000 Du        
  10290 ****         6.2500 -19.5000 -15.7500 Du        
  10291 ****         6.2500 -19.5000 -15.5000 Du        
  10292 ****         6.2500 -19.5000 -15.2500 Du        
  10293 ****         6.2500 -19.5000 -15.0000 Du        
  10294 ****         6.2500 -19.5000 -14.7500 Du        
  10295 ****         6.2500 -19.5000 -14.5000 Du        
  10296 ****         6.2500 -19.5000 -14.2500 Du        
  10297 ****         6.2500 -19.2500 -17.0000 Du        
  10298 ****         6.2500 -19.2500 -16.7500 Du        
  10299 ****         6.2500 -19.2500 -16.5000 Du        
  10300 ****         6.2500 -19.2500 -16.2500 Du        
  10301 ****         6.2500 -19.2500 -16.0000 Du        
  10302 ****         6.2500 -19.2500 -15.7500 Du        
  10303 ****         6.2500 -19.2500 -15.5000 Du        
  10304 ****         6.2500 -19.2500 -15.2500 Du        
  10305 ****         6.2500 -19.2500 -15.0000 Du        
  10306 ****         6.2500 -19.2500 -14.7500 Du        
  10307 ****         6.2500 -19.2500 -14.5000 Du        
  10308 ****         6.2500 -19.0000 -17.0000 Du        
  10309 ****         6.2500 -19.0000 -16.7500 Du        
  10310 ****         6.2500 -19.0000 -16.5000 Du        
  10311 ****         6.2500 -19.0000 -16.2500 Du        
  10312 ****         6.2500 -19.0000 -16.0000 Du        
  10313 ****         6.2500 -19.0000 -15.7500 Du        
  10314 ****         6.2500 -19.0000 -15.5000 Du        
  10315 ****         6.2500 -19.0000 -15.2500 Du        
  10316 ****         6.2500 -19.0000 -15.0000 Du        
  10317 ****         6.2500 -19.0000 -14.7500 Du        
  10318 ****         6.2500 -18.7500 -17.0000 Du        
  10319 ****         6.2500 -18.7500 -16.7500 Du        
  10320 ****         6.2500 -18.7500 -16.5000 Du        
  10321 ****         6.2500 -18.7500 -16.2500 Du        
  10322 ****         6.2500 -18.7500 -16.0000 Du        
  10323 ****         6.2500 -18.7500 -15.7500 Du        
  10324 ****         6.2500 -18.7500 -15.5000 Du        
  10325 ****         6.2500 -18.7500 -15.2500 Du        
  10326 ****         6.2500 -18.7500 -15.0000 Du        
  10327 ****         6.2500 -18.5000 -17.0000 Du        
  10328 ****         6.2500 -18.5000 -16.7500 Du        
  10329 ****         6.2500 -18.5000 -16.5000 Du        
  10330 ****         6.2500 -18.5000 -16.2500 Du        
  10331 ****         6.2500 -18.5000 -16.0000 Du        
  10332 ****         6.2500 -18.5000 -15.7500 Du        
  10333 ****         6.2500 -18.5000 -15.5000 Du        
  10334 ****         6.2500 -18.2500 -17.0000 Du        
  10335 ****         6.2500 -18.2500 -16.7500 Du        
  10336 ****         6.2500 -18.2500 -16.5000 Du        
  10337 ****         6.2500 -18.2500 -16.2500 Du        
  10338 ****         6.2500 -18.2500 -16.0000 Du        
  10339 ****         6.2500 -18.2500 -15.7500 Du        
  10340 ****         6.2500 -18.0000 -17.0000 Du        
  10341 ****         6.2500 -18.0000 -16.7500 Du        
  10342 ****         6.2500 -18.0000 -16.5000 Du        
  10343 ****         6.2500 -18.0000 -16.2500 Du        
  10344 ****         6.2500 -18.0000 -16.0000 Du        
  10345 ****         6.2500 -17.7500 -17.0000 Du        
  10346 ****         6.2500 -17.7500 -16.7500 Du        
  10347 ****         6.2500 -17.7500 -16.5000 Du        
  10348 ****         6.2500 -17.5000 -17.0000 Du        
  10349 ****         6.2500 -17.5000 -16.7500 Du        
  10350 ****         6.2500 -17.2500 -17.0000 Du        
  10351 ****         6.2500 -13.7500 -23.0000 Du        
  10352 ****         6.2500 -13.7500 -22.7500 Du        
  10353 ****         6.2500 -13.5000 -23.0000 Du        
  10354 ****         6.2500 -13.5000 -22.7500 Du        
  10355 ****         6.2500 -13.2500 -23.0000 Du        
  10356 ****         6.2500 -13.2500 -22.7500 Du        
  10357 ****         6.2500 -13.0000 -23.0000 Du        
  10358 ****         6.2500 -13.0000 -22.7500 Du        
  10359 ****         6.2500 -12.7500 -22.7500 Du        
  10360 ****         6.5000 -23.7500 -13.2500 Du        
  10361 ****         6.5000 -23.7500 -13.0000 Du        
  10362 ****         6.5000 -23.7500 -12.7500 Du        
  10363 ****         6.5000 -23.5000 -13.5000 Du        
  10364 ****         6.5000 -23.5000 -13.2500 Du        
  10365 ****         6.5000 -23.5000 -13.0000 Du        
  10366 ****         6.5000 -23.5000 -12.7500 Du        
  10367 ****         6.5000 -23.2500 -14.0000 Du        
  10368 ****         6.5000 -23.2500 -13.7500 Du        
  10369 ****         6.5000 -23.2500 -13.5000 Du        
  10370 ****         6.5000 -23.2500 -13.2500 Du        
  10371 ****         6.5000 -23.2500 -13.0000 Du        
  10372 ****         6.5000 -23.0000 -14.5000 Du        
  10373 ****         6.5000 -23.0000 -14.2500 Du        
  10374 ****         6.5000 -23.0000 -14.0000 Du        
  10375 ****         6.5000 -23.0000 -13.7500 Du        
  10376 ****         6.5000 -23.0000 -13.5000 Du        
  10377 ****         6.5000 -23.0000 -13.2500 Du        
  10378 ****         6.5000 -23.0000 -13.0000 Du        
  10379 ****         6.5000 -22.7500 -15.2500 Du        
  10380 ****         6.5000 -22.7500 -15.0000 Du        
  10381 ****         6.5000 -22.7500 -14.7500 Du        
  10382 ****         6.5000 -22.7500 -14.5000 Du        
  10383 ****         6.5000 -22.7500 -14.2500 Du        
  10384 ****         6.5000 -22.7500 -14.0000 Du        
  10385 ****         6.5000 -22.7500 -13.7500 Du        
  10386 ****         6.5000 -22.7500 -13.5000 Du        
  10387 ****         6.5000 -22.7500 -13.2500 Du        
  10388 ****         6.5000 -22.5000 -15.5000 Du        
  10389 ****         6.5000 -22.5000 -15.2500 Du        
  10390 ****         6.5000 -22.5000 -15.0000 Du        
  10391 ****         6.5000 -22.5000 -14.7500 Du        
  10392 ****         6.5000 -22.5000 -14.5000 Du        
  10393 ****         6.5000 -22.5000 -14.2500 Du        
  10394 ****         6.5000 -22.5000 -14.0000 Du        
  10395 ****         6.5000 -22.5000 -13.7500 Du        
  10396 ****         6.5000 -22.5000 -13.5000 Du        
  10397 ****         6.5000 -22.5000 -13.2500 Du        
  10398 ****         6.5000 -22.2500 -15.7500 Du        
  10399 ****         6.5000 -22.2500 -15.5000 Du        
  10400 ****         6.5000 -22.2500 -15.2500 Du        
  10401 ****         6.5000 -22.2500 -15.0000 Du        
  10402 ****         6.5000 -22.2500 -14.7500 Du        
  10403 ****         6.5000 -22.2500 -14.5000 Du        
  10404 ****         6.5000 -22.2500 -14.2500 Du        
  10405 ****         6.5000 -22.2500 -14.0000 Du        
  10406 ****         6.5000 -22.2500 -13.7500 Du        
  10407 ****         6.5000 -22.2500 -13.5000 Du        
  10408 ****         6.5000 -22.0000 -15.7500 Du        
  10409 ****         6.5000 -22.0000 -15.5000 Du        
  10410 ****         6.5000 -22.0000 -15.2500 Du        
  10411 ****         6.5000 -22.0000 -15.0000 Du        
  10412 ****         6.5000 -22.0000 -14.7500 Du        
  10413 ****         6.5000 -22.0000 -14.5000 Du        
  10414 ****         6.5000 -22.0000 -14.2500 Du        
  10415 ****         6.5000 -22.0000 -14.0000 Du        
  10416 ****         6.5000 -22.0000 -13.7500 Du        
  10417 ****         6.5000 -22.0000 -13.5000 Du        
  10418 ****         6.5000 -21.7500 -16.0000 Du        
  10419 ****         6.5000 -21.7500 -15.7500 Du        
  10420 ****         6.5000 -21.7500 -15.5000 Du        
  10421 ****         6.5000 -21.7500 -15.2500 Du        
  10422 ****         6.5000 -21.7500 -15.0000 Du        
  10423 ****         6.5000 -21.7500 -14.7500 Du        
  10424 ****         6.5000 -21.7500 -14.5000 Du        
  10425 ****         6.5000 -21.7500 -14.2500 Du        
  10426 ****         6.5000 -21.7500 -14.0000 Du        
  10427 ****         6.5000 -21.7500 -13.7500 Du        
  10428 ****         6.5000 -21.7500 -13.5000 Du        
  10429 ****         6.5000 -21.5000 -16.0000 Du        
  10430 ****         6.5000 -21.5000 -15.7500 Du        
  10431 ****         6.5000 -21.5000 -15.5000 Du        
  10432 ****         6.5000 -21.5000 -15.2500 Du        
  10433 ****         6.5000 -21.5000 -15.0000 Du        
  10434 ****         6.5000 -21.5000 -14.7500 Du        
  10435 ****         6.5000 -21.5000 -14.5000 Du        
  10436 ****         6.5000 -21.5000 -14.2500 Du        
  10437 ****         6.5000 -21.5000 -14.0000 Du        
  10438 ****         6.5000 -21.5000 -13.7500 Du        
  10439 ****         6.5000 -21.5000 -13.5000 Du        
  10440 ****         6.5000 -21.2500 -16.2500 Du        
  10441 ****         6.5000 -21.2500 -16.0000 Du        
  10442 ****         6.5000 -21.2500 -15.7500 Du        
  10443 ****         6.5000 -21.2500 -15.5000 Du        
  10444 ****         6.5000 -21.2500 -15.2500 Du        
  10445 ****         6.5000 -21.2500 -15.0000 Du        
  10446 ****         6.5000 -21.2500 -14.7500 Du        
  10447 ****         6.5000 -21.2500 -14.5000 Du        
  10448 ****         6.5000 -21.2500 -14.2500 Du        
  10449 ****         6.5000 -21.2500 -14.0000 Du        
  10450 ****         6.5000 -21.2500 -13.7500 Du        
  10451 ****         6.5000 -21.2500 -13.5000 Du        
  10452 ****         6.5000 -21.0000 -16.5000 Du        
  10453 ****         6.5000 -21.0000 -16.2500 Du        
  10454 ****         6.5000 -21.0000 -16.0000 Du        
  10455 ****         6.5000 -21.0000 -15.7500 Du        
  10456 ****         6.5000 -21.0000 -15.5000 Du        
  10457 ****         6.5000 -21.0000 -15.2500 Du        
  10458 ****         6.5000 -21.0000 -15.0000 Du        
  10459 ****         6.5000 -21.0000 -14.7500 Du        
  10460 ****         6.5000 -21.0000 -14.5000 Du        
  10461 ****         6.5000 -21.0000 -14.2500 Du        
  10462 ****         6.5000 -21.0000 -14.0000 Du        
  10463 ****         6.5000 -21.0000 -13.7500 Du        
  10464 ****         6.5000 -21.0000 -13.5000 Du        
  10465 ****         6.5000 -20.7500 -16.5000 Du        
  10466 ****         6.5000 -20.7500 -16.2500 Du        
  10467 ****         6.5000 -20.7500 -16.0000 Du        
  10468 ****         6.5000 -20.7500 -15.7500 Du        
  10469 ****         6.5000 -20.7500 -15.5000 Du        
  10470 ****         6.5000 -20.7500 -15.2500 Du        
  10471 ****         6.5000 -20.7500 -15.0000 Du        
  10472 ****         6.5000 -20.7500 -14.7500 Du        
  10473 ****         6.5000 -20.7500 -14.5000 Du        
  10474 ****         6.5000 -20.7500 -14.2500 Du        
  10475 ****         6.5000 -20.7500 -14.0000 Du        
  10476 ****         6.5000 -20.7500 -13.7500 Du        
  10477 ****         6.5000 -20.7500 -13.5000 Du        
  10478 ****         6.5000 -20.5000 -16.5000 Du        
  10479 ****         6.5000 -20.5000 -16.2500 Du        
  10480 ****         6.5000 -20.5000 -16.0000 Du        
  10481 ****         6.5000 -20.5000 -15.7500 Du        
  10482 ****         6.5000 -20.5000 -15.5000 Du        
  10483 ****         6.5000 -20.5000 -15.2500 Du        
  10484 ****         6.5000 -20.5000 -15.0000 Du        
  10485 ****         6.5000 -20.5000 -14.7500 Du        
  10486 ****         6.5000 -20.5000 -14.5000 Du        
  10487 ****         6.5000 -20.5000 -14.2500 Du        
  10488 ****         6.5000 -20.5000 -14.0000 Du        
  10489 ****         6.5000 -20.5000 -13.7500 Du        
  10490 ****         6.5000 -20.5000 -13.5000 Du        
  10491 ****         6.5000 -20.2500 -16.7500 Du        
  10492 ****         6.5000 -20.2500 -16.5000 Du        
  10493 ****         6.5000 -20.2500 -16.2500 Du        
  10494 ****         6.5000 -20.2500 -16.0000 Du        
  10495 ****         6.5000 -20.2500 -15.7500 Du        
  10496 ****         6.5000 -20.2500 -15.5000 Du        
  10497 ****         6.5000 -20.2500 -15.2500 Du        
  10498 ****         6.5000 -20.2500 -15.0000 Du        
  10499 ****         6.5000 -20.2500 -14.7500 Du        
  10500 ****         6.5000 -20.2500 -14.5000 Du        
  10501 ****         6.5000 -20.2500 -14.2500 Du        
  10502 ****         6.5000 -20.2500 -14.0000 Du        
  10503 ****         6.5000 -20.2500 -13.7500 Du        
  10504 ****         6.5000 -20.0000 -16.7500 Du        
  10505 ****         6.5000 -20.0000 -16.5000 Du        
  10506 ****         6.5000 -20.0000 -16.2500 Du        
  10507 ****         6.5000 -20.0000 -16.0000 Du        
  10508 ****         6.5000 -20.0000 -15.7500 Du        
  10509 ****         6.5000 -20.0000 -15.5000 Du        
  10510 ****         6.5000 -20.0000 -15.2500 Du        
  10511 ****         6.5000 -20.0000 -15.0000 Du        
  10512 ****         6.5000 -20.0000 -14.7500 Du        
  10513 ****         6.5000 -20.0000 -14.5000 Du        
  10514 ****         6.5000 -20.0000 -14.2500 Du        
  10515 ****         6.5000 -20.0000 -14.0000 Du        
  10516 ****         6.5000 -20.0000 -13.7500 Du        
  10517 ****         6.5000 -19.7500 -16.7500 Du        
  10518 ****         6.5000 -19.7500 -16.5000 Du        
  10519 ****         6.5000 -19.7500 -16.2500 Du        
  10520 ****         6.5000 -19.7500 -16.0000 Du        
  10521 ****         6.5000 -19.7500 -15.7500 Du        
  10522 ****         6.5000 -19.7500 -15.5000 Du        
  10523 ****         6.5000 -19.7500 -15.2500 Du        
  10524 ****         6.5000 -19.7500 -15.0000 Du        
  10525 ****         6.5000 -19.7500 -14.7500 Du        
  10526 ****         6.5000 -19.7500 -14.5000 Du        
  10527 ****         6.5000 -19.7500 -14.2500 Du        
  10528 ****         6.5000 -19.7500 -14.0000 Du        
  10529 ****         6.5000 -19.5000 -17.0000 Du        
  10530 ****         6.5000 -19.5000 -16.7500 Du        
  10531 ****         6.5000 -19.5000 -16.5000 Du        
  10532 ****         6.5000 -19.5000 -16.2500 Du        
  10533 ****         6.5000 -19.5000 -16.0000 Du        
  10534 ****         6.5000 -19.5000 -15.7500 Du        
  10535 ****         6.5000 -19.5000 -15.5000 Du        
  10536 ****         6.5000 -19.5000 -15.2500 Du        
  10537 ****         6.5000 -19.5000 -15.0000 Du        
  10538 ****         6.5000 -19.5000 -14.7500 Du        
  10539 ****         6.5000 -19.5000 -14.5000 Du        
  10540 ****         6.5000 -19.5000 -14.2500 Du        
  10541 ****         6.5000 -19.2500 -17.0000 Du        
  10542 ****         6.5000 -19.2500 -16.7500 Du        
  10543 ****         6.5000 -19.2500 -16.5000 Du        
  10544 ****         6.5000 -19.2500 -16.2500 Du        
  10545 ****         6.5000 -19.2500 -16.0000 Du        
  10546 ****         6.5000 -19.2500 -15.7500 Du        
  10547 ****         6.5000 -19.2500 -15.5000 Du        
  10548 ****         6.5000 -19.2500 -15.2500 Du        
  10549 ****         6.5000 -19.2500 -15.0000 Du        
  10550 ****         6.5000 -19.2500 -14.7500 Du        
  10551 ****         6.5000 -19.2500 -14.5000 Du        
  10552 ****         6.5000 -19.0000 -17.0000 Du        
  10553 ****         6.5000 -19.0000 -16.7500 Du        
  10554 ****         6.5000 -19.0000 -16.5000 Du        
  10555 ****         6.5000 -19.0000 -16.2500 Du        
  10556 ****         6.5000 -19.0000 -16.0000 Du        
  10557 ****         6.5000 -19.0000 -15.7500 Du        
  10558 ****         6.5000 -19.0000 -15.5000 Du        
  10559 ****         6.5000 -19.0000 -15.2500 Du        
  10560 ****         6.5000 -19.0000 -15.0000 Du        
  10561 ****         6.5000 -19.0000 -14.7500 Du        
  10562 ****         6.5000 -18.7500 -17.0000 Du        
  10563 ****         6.5000 -18.7500 -16.7500 Du        
  10564 ****         6.5000 -18.7500 -16.5000 Du        
  10565 ****         6.5000 -18.7500 -16.2500 Du        
  10566 ****         6.5000 -18.7500 -16.0000 Du        
  10567 ****         6.5000 -18.7500 -15.7500 Du        
  10568 ****         6.5000 -18.7500 -15.5000 Du        
  10569 ****         6.5000 -18.7500 -15.2500 Du        
  10570 ****         6.5000 -18.7500 -15.0000 Du        
  10571 ****         6.5000 -18.5000 -17.0000 Du        
  10572 ****         6.5000 -18.5000 -16.7500 Du        
  10573 ****         6.5000 -18.5000 -16.5000 Du        
  10574 ****         6.5000 -18.5000 -16.2500 Du        
  10575 ****         6.5000 -18.5000 -16.0000 Du        
  10576 ****         6.5000 -18.5000 -15.7500 Du        
  10577 ****         6.5000 -18.5000 -15.5000 Du        
  10578 ****         6.5000 -18.5000 -15.2500 Du        
  10579 ****         6.5000 -18.2500 -17.0000 Du        
  10580 ****         6.5000 -18.2500 -16.7500 Du        
  10581 ****         6.5000 -18.2500 -16.5000 Du        
  10582 ****         6.5000 -18.2500 -16.2500 Du        
  10583 ****         6.5000 -18.2500 -16.0000 Du        
  10584 ****         6.5000 -18.2500 -15.7500 Du        
  10585 ****         6.5000 -18.0000 -17.0000 Du        
  10586 ****         6.5000 -18.0000 -16.7500 Du        
  10587 ****         6.5000 -18.0000 -16.5000 Du        
  10588 ****         6.5000 -18.0000 -16.2500 Du        
  10589 ****         6.5000 -18.0000 -16.0000 Du        
  10590 ****         6.5000 -17.7500 -16.7500 Du        
  10591 ****         6.5000 -17.7500 -16.5000 Du        
  10592 ****         6.5000 -17.7500 -16.2500 Du        
  10593 ****         6.5000 -17.5000 -16.7500 Du        
  10594 ****         6.5000 -17.5000 -16.5000 Du        
  10595 ****         6.5000 -17.2500 -16.7500 Du        
  10596 ****         6.5000 -14.0000 -23.2500 Du        
  10597 ****         6.5000 -14.0000 -23.0000 Du        
  10598 ****         6.5000 -13.7500 -23.2500 Du        
  10599 ****         6.5000 -13.7500 -23.0000 Du        
  10600 ****         6.5000 -13.7500 -22.7500 Du        
  10601 ****         6.5000 -13.5000 -23.2500 Du        
  10602 ****         6.5000 -13.5000 -23.0000 Du        
  10603 ****         6.5000 -13.5000 -22.7500 Du        
  10604 ****         6.5000 -13.2500 -23.2500 Du        
  10605 ****         6.5000 -13.2500 -23.0000 Du        
  10606 ****         6.5000 -13.2500 -22.7500 Du        
  10607 ****         6.5000 -13.2500 -22.5000 Du        
  10608 ****         6.5000 -13.0000 -23.2500 Du        
  10609 ****         6.5000 -13.0000 -23.0000 Du        
  10610 ****         6.5000 -13.0000 -22.7500 Du        
  10611 ****         6.5000 -13.0000 -22.5000 Du        
  10612 ****         6.5000 -12.7500 -23.0000 Du        
  10613 ****         6.5000 -12.7500 -22.7500 Du        
  10614 ****         6.5000 -12.7500 -22.5000 Du        
  10615 ****         6.5000 -12.5000 -23.0000 Du        
  10616 ****         6.5000 -12.5000 -22.7500 Du        
  10617 ****         6.7500 -23.0000 -14.0000 Du        
  10618 ****         6.7500 -23.0000 -13.7500 Du        
  10619 ****         6.7500 -23.0000 -13.5000 Du        
  10620 ****         6.7500 -22.7500 -15.2500 Du        
  10621 ****         6.7500 -22.7500 -15.0000 Du        
  10622 ****         6.7500 -22.7500 -14.7500 Du        
  10623 ****         6.7500 -22.7500 -14.5000 Du        
  10624 ****         6.7500 -22.7500 -14.2500 Du        
  10625 ****         6.7500 -22.7500 -14.0000 Du        
  10626 ****         6.7500 -22.7500 -13.7500 Du        
  10627 ****         6.7500 -22.7500 -13.5000 Du        
  10628 ****         6.7500 -22.5000 -15.5000 Du        
  10629 ****         6.7500 -22.5000 -15.2500 Du        
  10630 ****         6.7500 -22.5000 -15.0000 Du        
  10631 ****         6.7500 -22.5000 -14.7500 Du        
  10632 ****         6.7500 -22.5000 -14.5000 Du        
  10633 ****         6.7500 -22.5000 -14.2500 Du        
  10634 ****         6.7500 -22.5000 -14.0000 Du        
  10635 ****         6.7500 -22.5000 -13.7500 Du        
  10636 ****         6.7500 -22.2500 -15.7500 Du        
  10637 ****         6.7500 -22.2500 -15.5000 Du        
  10638 ****         6.7500 -22.2500 -15.2500 Du        
  10639 ****         6.7500 -22.2500 -15.0000 Du        
  10640 ****         6.7500 -22.2500 -14.7500 Du        
  10641 ****         6.7500 -22.2500 -14.5000 Du        
  10642 ****         6.7500 -22.2500 -14.2500 Du        
  10643 ****         6.7500 -22.2500 -14.0000 Du        
  10644 ****         6.7500 -22.2500 -13.7500 Du        
  10645 ****         6.7500 -22.0000 -16.0000 Du        
  10646 ****         6.7500 -22.0000 -15.7500 Du        
  10647 ****         6.7500 -22.0000 -15.5000 Du        
  10648 ****         6.7500 -22.0000 -15.2500 Du        
  10649 ****         6.7500 -22.0000 -15.0000 Du        
  10650 ****         6.7500 -22.0000 -14.7500 Du        
  10651 ****         6.7500 -22.0000 -14.5000 Du        
  10652 ****         6.7500 -22.0000 -14.2500 Du        
  10653 ****         6.7500 -22.0000 -14.0000 Du        
  10654 ****         6.7500 -22.0000 -13.7500 Du        
  10655 ****         6.7500 -21.7500 -16.0000 Du        
  10656 ****         6.7500 -21.7500 -15.7500 Du        
  10657 ****         6.7500 -21.7500 -15.5000 Du        
  10658 ****         6.7500 -21.7500 -15.2500 Du        
  10659 ****         6.7500 -21.7500 -15.0000 Du        
  10660 ****         6.7500 -21.7500 -14.7500 Du        
  10661 ****         6.7500 -21.7500 -14.5000 Du        
  10662 ****         6.7500 -21.7500 -14.2500 Du        
  10663 ****         6.7500 -21.7500 -14.0000 Du        
  10664 ****         6.7500 -21.7500 -13.7500 Du        
  10665 ****         6.7500 -21.5000 -16.2500 Du        
  10666 ****         6.7500 -21.5000 -16.0000 Du        
  10667 ****         6.7500 -21.5000 -15.7500 Du        
  10668 ****         6.7500 -21.5000 -15.5000 Du        
  10669 ****         6.7500 -21.5000 -15.2500 Du        
  10670 ****         6.7500 -21.5000 -15.0000 Du        
  10671 ****         6.7500 -21.5000 -14.7500 Du        
  10672 ****         6.7500 -21.5000 -14.5000 Du        
  10673 ****         6.7500 -21.5000 -14.2500 Du        
  10674 ****         6.7500 -21.5000 -14.0000 Du        
  10675 ****         6.7500 -21.5000 -13.7500 Du        
  10676 ****         6.7500 -21.2500 -16.5000 Du        
  10677 ****         6.7500 -21.2500 -16.2500 Du        
  10678 ****         6.7500 -21.2500 -16.0000 Du        
  10679 ****         6.7500 -21.2500 -15.7500 Du        
  10680 ****         6.7500 -21.2500 -15.5000 Du        
  10681 ****         6.7500 -21.2500 -15.2500 Du        
  10682 ****         6.7500 -21.2500 -15.0000 Du        
  10683 ****         6.7500 -21.2500 -14.7500 Du        
  10684 ****         6.7500 -21.2500 -14.5000 Du        
  10685 ****         6.7500 -21.2500 -14.2500 Du        
  10686 ****         6.7500 -21.2500 -14.0000 Du        
  10687 ****         6.7500 -21.2500 -13.7500 Du        
  10688 ****         6.7500 -21.0000 -16.5000 Du        
  10689 ****         6.7500 -21.0000 -16.2500 Du        
  10690 ****         6.7500 -21.0000 -16.0000 Du        
  10691 ****         6.7500 -21.0000 -15.7500 Du        
  10692 ****         6.7500 -21.0000 -15.5000 Du        
  10693 ****         6.7500 -21.0000 -15.2500 Du        
  10694 ****         6.7500 -21.0000 -15.0000 Du        
  10695 ****         6.7500 -21.0000 -14.7500 Du        
  10696 ****         6.7500 -21.0000 -14.5000 Du        
  10697 ****         6.7500 -21.0000 -14.2500 Du        
  10698 ****         6.7500 -21.0000 -14.0000 Du        
  10699 ****         6.7500 -21.0000 -13.7500 Du        
  10700 ****         6.7500 -20.7500 -16.7500 Du        
  10701 ****         6.7500 -20.7500 -16.5000 Du        
  10702 ****         6.7500 -20.7500 -16.2500 Du        
  10703 ****         6.7500 -20.7500 -16.0000 Du        
  10704 ****         6.7500 -20.7500 -15.7500 Du        
  10705 ****         6.7500 -20.7500 -15.5000 Du        
  10706 ****         6.7500 -20.7500 -15.2500 Du        
  10707 ****         6.7500 -20.7500 -15.0000 Du        
  10708 ****         6.7500 -20.7500 -14.7500 Du        
  10709 ****         6.7500 -20.7500 -14.5000 Du        
  10710 ****         6.7500 -20.7500 -14.2500 Du        
  10711 ****         6.7500 -20.7500 -14.0000 Du        
  10712 ****         6.7500 -20.7500 -13.7500 Du        
  10713 ****         6.7500 -20.7500 -13.5000 Du        
  10714 ****         6.7500 -20.5000 -16.7500 Du        
  10715 ****         6.7500 -20.5000 -16.5000 Du        
  10716 ****         6.7500 -20.5000 -16.2500 Du        
  10717 ****         6.7500 -20.5000 -16.0000 Du        
  10718 ****         6.7500 -20.5000 -15.7500 Du        
  10719 ****         6.7500 -20.5000 -15.5000 Du        
  10720 ****         6.7500 -20.5000 -15.2500 Du        
  10721 ****         6.7500 -20.5000 -15.0000 Du        
  10722 ****         6.7500 -20.5000 -14.7500 Du        
  10723 ****         6.7500 -20.5000 -14.5000 Du        
  10724 ****         6.7500 -20.5000 -14.2500 Du        
  10725 ****         6.7500 -20.5000 -14.0000 Du        
  10726 ****         6.7500 -20.5000 -13.7500 Du        
  10727 ****         6.7500 -20.5000 -13.5000 Du        
  10728 ****         6.7500 -20.2500 -16.7500 Du        
  10729 ****         6.7500 -20.2500 -16.5000 Du        
  10730 ****         6.7500 -20.2500 -16.2500 Du        
  10731 ****         6.7500 -20.2500 -16.0000 Du        
  10732 ****         6.7500 -20.2500 -15.7500 Du        
  10733 ****         6.7500 -20.2500 -15.5000 Du        
  10734 ****         6.7500 -20.2500 -15.2500 Du        
  10735 ****         6.7500 -20.2500 -15.0000 Du        
  10736 ****         6.7500 -20.2500 -14.7500 Du        
  10737 ****         6.7500 -20.2500 -14.5000 Du        
  10738 ****         6.7500 -20.2500 -14.2500 Du        
  10739 ****         6.7500 -20.2500 -14.0000 Du        
  10740 ****         6.7500 -20.2500 -13.7500 Du        
  10741 ****         6.7500 -20.2500 -13.5000 Du        
  10742 ****         6.7500 -20.0000 -16.7500 Du        
  10743 ****         6.7500 -20.0000 -16.5000 Du        
  10744 ****         6.7500 -20.0000 -16.2500 Du        
  10745 ****         6.7500 -20.0000 -16.0000 Du        
  10746 ****         6.7500 -20.0000 -15.7500 Du        
  10747 ****         6.7500 -20.0000 -15.5000 Du        
  10748 ****         6.7500 -20.0000 -15.2500 Du        
  10749 ****         6.7500 -20.0000 -15.0000 Du        
  10750 ****         6.7500 -20.0000 -14.7500 Du        
  10751 ****         6.7500 -20.0000 -14.5000 Du        
  10752 ****         6.7500 -20.0000 -14.2500 Du        
  10753 ****         6.7500 -20.0000 -14.0000 Du        
  10754 ****         6.7500 -20.0000 -13.7500 Du        
  10755 ****         6.7500 -19.7500 -16.7500 Du        
  10756 ****         6.7500 -19.7500 -16.5000 Du        
  10757 ****         6.7500 -19.7500 -16.2500 Du        
  10758 ****         6.7500 -19.7500 -16.0000 Du        
  10759 ****         6.7500 -19.7500 -15.7500 Du        
  10760 ****         6.7500 -19.7500 -15.5000 Du        
  10761 ****         6.7500 -19.7500 -15.2500 Du        
  10762 ****         6.7500 -19.7500 -15.0000 Du        
  10763 ****         6.7500 -19.7500 -14.7500 Du        
  10764 ****         6.7500 -19.7500 -14.5000 Du        
  10765 ****         6.7500 -19.7500 -14.2500 Du        
  10766 ****         6.7500 -19.7500 -14.0000 Du        
  10767 ****         6.7500 -19.5000 -17.0000 Du        
  10768 ****         6.7500 -19.5000 -16.7500 Du        
  10769 ****         6.7500 -19.5000 -16.5000 Du        
  10770 ****         6.7500 -19.5000 -16.2500 Du        
  10771 ****         6.7500 -19.5000 -16.0000 Du        
  10772 ****         6.7500 -19.5000 -15.7500 Du        
  10773 ****         6.7500 -19.5000 -15.5000 Du        
  10774 ****         6.7500 -19.5000 -15.2500 Du        
  10775 ****         6.7500 -19.5000 -15.0000 Du        
  10776 ****         6.7500 -19.5000 -14.7500 Du        
  10777 ****         6.7500 -19.5000 -14.5000 Du        
  10778 ****         6.7500 -19.5000 -14.2500 Du        
  10779 ****         6.7500 -19.5000 -14.0000 Du        
  10780 ****         6.7500 -19.2500 -17.0000 Du        
  10781 ****         6.7500 -19.2500 -16.7500 Du        
  10782 ****         6.7500 -19.2500 -16.5000 Du        
  10783 ****         6.7500 -19.2500 -16.2500 Du        
  10784 ****         6.7500 -19.2500 -16.0000 Du        
  10785 ****         6.7500 -19.2500 -15.7500 Du        
  10786 ****         6.7500 -19.2500 -15.5000 Du        
  10787 ****         6.7500 -19.2500 -15.2500 Du        
  10788 ****         6.7500 -19.2500 -15.0000 Du        
  10789 ****         6.7500 -19.2500 -14.7500 Du        
  10790 ****         6.7500 -19.2500 -14.5000 Du        
  10791 ****         6.7500 -19.2500 -14.2500 Du        
  10792 ****         6.7500 -19.0000 -17.0000 Du        
  10793 ****         6.7500 -19.0000 -16.7500 Du        
  10794 ****         6.7500 -19.0000 -16.5000 Du        
  10795 ****         6.7500 -19.0000 -16.2500 Du        
  10796 ****         6.7500 -19.0000 -16.0000 Du        
  10797 ****         6.7500 -19.0000 -15.7500 Du        
  10798 ****         6.7500 -19.0000 -15.5000 Du        
  10799 ****         6.7500 -19.0000 -15.2500 Du        
  10800 ****         6.7500 -19.0000 -15.0000 Du        
  10801 ****         6.7500 -19.0000 -14.7500 Du        
  10802 ****         6.7500 -19.0000 -14.5000 Du        
  10803 ****         6.7500 -18.7500 -16.7500 Du        
  10804 ****         6.7500 -18.7500 -16.5000 Du        
  10805 ****         6.7500 -18.7500 -16.2500 Du        
  10806 ****         6.7500 -18.7500 -16.0000 Du        
  10807 ****         6.7500 -18.7500 -15.7500 Du        
  10808 ****         6.7500 -18.7500 -15.5000 Du        
  10809 ****         6.7500 -18.7500 -15.2500 Du        
  10810 ****         6.7500 -18.7500 -15.0000 Du        
  10811 ****         6.7500 -18.7500 -14.7500 Du        
  10812 ****         6.7500 -18.5000 -16.7500 Du        
  10813 ****         6.7500 -18.5000 -16.5000 Du        
  10814 ****         6.7500 -18.5000 -16.2500 Du        
  10815 ****         6.7500 -18.5000 -16.0000 Du        
  10816 ****         6.7500 -18.5000 -15.7500 Du        
  10817 ****         6.7500 -18.5000 -15.5000 Du        
  10818 ****         6.7500 -18.5000 -15.2500 Du        
  10819 ****         6.7500 -18.2500 -16.7500 Du        
  10820 ****         6.7500 -18.2500 -16.5000 Du        
  10821 ****         6.7500 -18.2500 -16.2500 Du        
  10822 ****         6.7500 -18.2500 -16.0000 Du        
  10823 ****         6.7500 -18.2500 -15.7500 Du        
  10824 ****         6.7500 -18.2500 -15.5000 Du        
  10825 ****         6.7500 -18.0000 -16.7500 Du        
  10826 ****         6.7500 -18.0000 -16.5000 Du        
  10827 ****         6.7500 -18.0000 -16.2500 Du        
  10828 ****         6.7500 -18.0000 -16.0000 Du        
  10829 ****         6.7500 -17.7500 -16.7500 Du        
  10830 ****         6.7500 -17.7500 -16.5000 Du        
  10831 ****         6.7500 -17.7500 -16.2500 Du        
  10832 ****         6.7500 -17.5000 -16.7500 Du        
  10833 ****         6.7500 -17.5000 -16.5000 Du        
  10834 ****         6.7500 -17.2500 -16.7500 Du        
  10835 ****         6.7500 -14.0000 -23.5000 Du        
  10836 ****         6.7500 -14.0000 -23.2500 Du        
  10837 ****         6.7500 -14.0000 -23.0000 Du        
  10838 ****         6.7500 -13.7500 -23.5000 Du        
  10839 ****         6.7500 -13.7500 -23.2500 Du        
  10840 ****         6.7500 -13.7500 -23.0000 Du        
  10841 ****         6.7500 -13.5000 -23.5000 Du        
  10842 ****         6.7500 -13.5000 -23.2500 Du        
  10843 ****         6.7500 -13.5000 -23.0000 Du        
  10844 ****         6.7500 -13.5000 -22.7500 Du        
  10845 ****         6.7500 -13.2500 -23.5000 Du        
  10846 ****         6.7500 -13.2500 -23.2500 Du        
  10847 ****         6.7500 -13.2500 -23.0000 Du        
  10848 ****         6.7500 -13.2500 -22.7500 Du        
  10849 ****         6.7500 -13.0000 -23.5000 Du        
  10850 ****         6.7500 -13.0000 -23.2500 Du        
  10851 ****         6.7500 -13.0000 -23.0000 Du        
  10852 ****         6.7500 -13.0000 -22.7500 Du        
  10853 ****         6.7500 -13.0000 -22.5000 Du        
  10854 ****         6.7500 -12.7500 -23.0000 Du        
  10855 ****         6.7500 -12.7500 -22.7500 Du        
  10856 ****         6.7500 -12.7500 -22.5000 Du        
  10857 ****         6.7500 -12.5000 -23.0000 Du        
  10858 ****         6.7500 -12.5000 -22.7500 Du        
  10859 ****         7.0000 -22.2500 -15.7500 Du        
  10860 ****         7.0000 -22.2500 -15.5000 Du        
  10861 ****         7.0000 -22.2500 -15.2500 Du        
  10862 ****         7.0000 -22.2500 -15.0000 Du        
  10863 ****         7.0000 -22.2500 -14.7500 Du        
  10864 ****         7.0000 -22.0000 -16.0000 Du        
  10865 ****         7.0000 -22.0000 -15.7500 Du        
  10866 ****         7.0000 -22.0000 -15.5000 Du        
  10867 ****         7.0000 -22.0000 -15.2500 Du        
  10868 ****         7.0000 -22.0000 -15.0000 Du        
  10869 ****         7.0000 -22.0000 -14.7500 Du        
  10870 ****         7.0000 -22.0000 -14.5000 Du        
  10871 ****         7.0000 -22.0000 -14.2500 Du        
  10872 ****         7.0000 -22.0000 -14.0000 Du        
  10873 ****         7.0000 -21.7500 -16.2500 Du        
  10874 ****         7.0000 -21.7500 -16.0000 Du        
  10875 ****         7.0000 -21.7500 -15.7500 Du        
  10876 ****         7.0000 -21.7500 -15.5000 Du        
  10877 ****         7.0000 -21.7500 -15.2500 Du        
  10878 ****         7.0000 -21.7500 -15.0000 Du        
  10879 ****         7.0000 -21.7500 -14.7500 Du        
  10880 ****         7.0000 -21.7500 -14.5000 Du        
  10881 ****         7.0000 -21.7500 -14.2500 Du        
  10882 ****         7.0000 -21.7500 -14.0000 Du        
  10883 ****         7.0000 -21.5000 -16.2500 Du        
  10884 ****         7.0000 -21.5000 -16.0000 Du        
  10885 ****         7.0000 -21.5000 -15.7500 Du        
  10886 ****         7.0000 -21.5000 -15.5000 Du        
  10887 ****         7.0000 -21.5000 -15.2500 Du        
  10888 ****         7.0000 -21.5000 -15.0000 Du        
  10889 ****         7.0000 -21.5000 -14.7500 Du        
  10890 ****         7.0000 -21.5000 -14.5000 Du        
  10891 ****         7.0000 -21.5000 -14.2500 Du        
  10892 ****         7.0000 -21.5000 -14.0000 Du        
  10893 ****         7.0000 -21.2500 -16.5000 Du        
  10894 ****         7.0000 -21.2500 -16.2500 Du        
  10895 ****         7.0000 -21.2500 -16.0000 Du        
  10896 ****         7.0000 -21.2500 -15.7500 Du        
  10897 ****         7.0000 -21.2500 -15.5000 Du        
  10898 ****         7.0000 -21.2500 -15.2500 Du        
  10899 ****         7.0000 -21.2500 -15.0000 Du        
  10900 ****         7.0000 -21.2500 -14.7500 Du        
  10901 ****         7.0000 -21.2500 -14.5000 Du        
  10902 ****         7.0000 -21.2500 -14.2500 Du        
  10903 ****         7.0000 -21.2500 -14.0000 Du        
  10904 ****         7.0000 -21.2500 -13.7500 Du        
  10905 ****         7.0000 -21.0000 -16.5000 Du        
  10906 ****         7.0000 -21.0000 -16.2500 Du        
  10907 ****         7.0000 -21.0000 -16.0000 Du        
  10908 ****         7.0000 -21.0000 -15.7500 Du        
  10909 ****         7.0000 -21.0000 -15.5000 Du        
  10910 ****         7.0000 -21.0000 -15.2500 Du        
  10911 ****         7.0000 -21.0000 -15.0000 Du        
  10912 ****         7.0000 -21.0000 -14.7500 Du        
  10913 ****         7.0000 -21.0000 -14.5000 Du        
  10914 ****         7.0000 -21.0000 -14.2500 Du        
  10915 ****         7.0000 -21.0000 -14.0000 Du        
  10916 ****         7.0000 -21.0000 -13.7500 Du        
  10917 ****         7.0000 -20.7500 -16.7500 Du        
  10918 ****         7.0000 -20.7500 -16.5000 Du        
  10919 ****         7.0000 -20.7500 -16.2500 Du        
  10920 ****         7.0000 -20.7500 -16.0000 Du        
  10921 ****         7.0000 -20.7500 -15.7500 Du        
  10922 ****         7.0000 -20.7500 -15.5000 Du        
  10923 ****         7.0000 -20.7500 -15.2500 Du        
  10924 ****         7.0000 -20.7500 -15.0000 Du        
  10925 ****         7.0000 -20.7500 -14.7500 Du        
  10926 ****         7.0000 -20.7500 -14.5000 Du        
  10927 ****         7.0000 -20.7500 -14.2500 Du        
  10928 ****         7.0000 -20.7500 -14.0000 Du        
  10929 ****         7.0000 -20.7500 -13.7500 Du        
  10930 ****         7.0000 -20.5000 -16.7500 Du        
  10931 ****         7.0000 -20.5000 -16.5000 Du        
  10932 ****         7.0000 -20.5000 -16.2500 Du        
  10933 ****         7.0000 -20.5000 -16.0000 Du        
  10934 ****         7.0000 -20.5000 -15.7500 Du        
  10935 ****         7.0000 -20.5000 -15.5000 Du        
  10936 ****         7.0000 -20.5000 -15.2500 Du        
  10937 ****         7.0000 -20.5000 -15.0000 Du        
  10938 ****         7.0000 -20.5000 -14.7500 Du        
  10939 ****         7.0000 -20.5000 -14.5000 Du        
  10940 ****         7.0000 -20.5000 -14.2500 Du        
  10941 ****         7.0000 -20.5000 -14.0000 Du        
  10942 ****         7.0000 -20.5000 -13.7500 Du        
  10943 ****         7.0000 -20.5000 -13.5000 Du        
  10944 ****         7.0000 -20.2500 -16.7500 Du        
  10945 ****         7.0000 -20.2500 -16.5000 Du        
  10946 ****         7.0000 -20.2500 -16.2500 Du        
  10947 ****         7.0000 -20.2500 -16.0000 Du        
  10948 ****         7.0000 -20.2500 -15.7500 Du        
  10949 ****         7.0000 -20.2500 -15.5000 Du        
  10950 ****         7.0000 -20.2500 -15.2500 Du        
  10951 ****         7.0000 -20.2500 -15.0000 Du        
  10952 ****         7.0000 -20.2500 -14.7500 Du        
  10953 ****         7.0000 -20.2500 -14.5000 Du        
  10954 ****         7.0000 -20.2500 -14.2500 Du        
  10955 ****         7.0000 -20.2500 -14.0000 Du        
  10956 ****         7.0000 -20.2500 -13.7500 Du        
  10957 ****         7.0000 -20.2500 -13.5000 Du        
  10958 ****         7.0000 -20.0000 -16.7500 Du        
  10959 ****         7.0000 -20.0000 -16.5000 Du        
  10960 ****         7.0000 -20.0000 -16.2500 Du        
  10961 ****         7.0000 -20.0000 -16.0000 Du        
  10962 ****         7.0000 -20.0000 -15.7500 Du        
  10963 ****         7.0000 -20.0000 -15.5000 Du        
  10964 ****         7.0000 -20.0000 -15.2500 Du        
  10965 ****         7.0000 -20.0000 -15.0000 Du        
  10966 ****         7.0000 -20.0000 -14.7500 Du        
  10967 ****         7.0000 -20.0000 -14.5000 Du        
  10968 ****         7.0000 -20.0000 -14.2500 Du        
  10969 ****         7.0000 -20.0000 -14.0000 Du        
  10970 ****         7.0000 -20.0000 -13.7500 Du        
  10971 ****         7.0000 -20.0000 -13.5000 Du        
  10972 ****         7.0000 -19.7500 -16.7500 Du        
  10973 ****         7.0000 -19.7500 -16.5000 Du        
  10974 ****         7.0000 -19.7500 -16.2500 Du        
  10975 ****         7.0000 -19.7500 -16.0000 Du        
  10976 ****         7.0000 -19.7500 -15.7500 Du        
  10977 ****         7.0000 -19.7500 -15.5000 Du        
  10978 ****         7.0000 -19.7500 -15.2500 Du        
  10979 ****         7.0000 -19.7500 -15.0000 Du        
  10980 ****         7.0000 -19.7500 -14.7500 Du        
  10981 ****         7.0000 -19.7500 -14.5000 Du        
  10982 ****         7.0000 -19.7500 -14.2500 Du        
  10983 ****         7.0000 -19.7500 -14.0000 Du        
  10984 ****         7.0000 -19.7500 -13.7500 Du        
  10985 ****         7.0000 -19.7500 -13.5000 Du        
  10986 ****         7.0000 -19.5000 -16.7500 Du        
  10987 ****         7.0000 -19.5000 -16.5000 Du        
  10988 ****         7.0000 -19.5000 -16.2500 Du        
  10989 ****         7.0000 -19.5000 -16.0000 Du        
  10990 ****         7.0000 -19.5000 -15.7500 Du        
  10991 ****         7.0000 -19.5000 -15.5000 Du        
  10992 ****         7.0000 -19.5000 -15.2500 Du        
  10993 ****         7.0000 -19.5000 -15.0000 Du        
  10994 ****         7.0000 -19.5000 -14.7500 Du        
  10995 ****         7.0000 -19.5000 -14.5000 Du        
  10996 ****         7.0000 -19.5000 -14.2500 Du        
  10997 ****         7.0000 -19.5000 -14.0000 Du        
  10998 ****         7.0000 -19.2500 -16.7500 Du        
  10999 ****         7.0000 -19.2500 -16.5000 Du        
  11000 ****         7.0000 -19.2500 -16.2500 Du        
  11001 ****         7.0000 -19.2500 -16.0000 Du        
  11002 ****         7.0000 -19.2500 -15.7500 Du        
  11003 ****         7.0000 -19.2500 -15.5000 Du        
  11004 ****         7.0000 -19.2500 -15.2500 Du        
  11005 ****         7.0000 -19.2500 -15.0000 Du        
  11006 ****         7.0000 -19.2500 -14.7500 Du        
  11007 ****         7.0000 -19.2500 -14.5000 Du        
  11008 ****         7.0000 -19.2500 -14.2500 Du        
  11009 ****         7.0000 -19.0000 -16.7500 Du        
  11010 ****         7.0000 -19.0000 -16.5000 Du        
  11011 ****         7.0000 -19.0000 -16.2500 Du        
  11012 ****         7.0000 -19.0000 -16.0000 Du        
  11013 ****         7.0000 -19.0000 -15.7500 Du        
  11014 ****         7.0000 -19.0000 -15.5000 Du        
  11015 ****         7.0000 -19.0000 -15.2500 Du        
  11016 ****         7.0000 -19.0000 -15.0000 Du        
  11017 ****         7.0000 -19.0000 -14.7500 Du        
  11018 ****         7.0000 -19.0000 -14.5000 Du        
  11019 ****         7.0000 -18.7500 -16.7500 Du        
  11020 ****         7.0000 -18.7500 -16.5000 Du        
  11021 ****         7.0000 -18.7500 -16.2500 Du        
  11022 ****         7.0000 -18.7500 -16.0000 Du        
  11023 ****         7.0000 -18.7500 -15.7500 Du        
  11024 ****         7.0000 -18.7500 -15.5000 Du        
  11025 ****         7.0000 -18.7500 -15.2500 Du        
  11026 ****         7.0000 -18.7500 -15.0000 Du        
  11027 ****         7.0000 -18.7500 -14.7500 Du        
  11028 ****         7.0000 -18.5000 -16.7500 Du        
  11029 ****         7.0000 -18.5000 -16.5000 Du        
  11030 ****         7.0000 -18.5000 -16.2500 Du        
  11031 ****         7.0000 -18.5000 -16.0000 Du        
  11032 ****         7.0000 -18.5000 -15.7500 Du        
  11033 ****         7.0000 -18.5000 -15.5000 Du        
  11034 ****         7.0000 -18.5000 -15.2500 Du        
  11035 ****         7.0000 -18.5000 -15.0000 Du        
  11036 ****         7.0000 -18.2500 -16.7500 Du        
  11037 ****         7.0000 -18.2500 -16.5000 Du        
  11038 ****         7.0000 -18.2500 -16.2500 Du        
  11039 ****         7.0000 -18.2500 -16.0000 Du        
  11040 ****         7.0000 -18.2500 -15.7500 Du        
  11041 ****         7.0000 -18.2500 -15.5000 Du        
  11042 ****         7.0000 -18.2500 -15.2500 Du        
  11043 ****         7.0000 -18.0000 -16.7500 Du        
  11044 ****         7.0000 -18.0000 -16.5000 Du        
  11045 ****         7.0000 -18.0000 -16.2500 Du        
  11046 ****         7.0000 -18.0000 -16.0000 Du        
  11047 ****         7.0000 -18.0000 -15.7500 Du        
  11048 ****         7.0000 -17.7500 -16.7500 Du        
  11049 ****         7.0000 -17.7500 -16.5000 Du        
  11050 ****         7.0000 -17.7500 -16.2500 Du        
  11051 ****         7.0000 -17.7500 -16.0000 Du        
  11052 ****         7.0000 -17.5000 -16.7500 Du        
  11053 ****         7.0000 -17.5000 -16.5000 Du        
  11054 ****         7.0000 -17.5000 -16.2500 Du        
  11055 ****         7.0000 -17.2500 -16.7500 Du        
  11056 ****         7.0000 -17.2500 -16.5000 Du        
  11057 ****         7.0000 -14.0000 -23.7500 Du        
  11058 ****         7.0000 -14.0000 -23.5000 Du        
  11059 ****         7.0000 -14.0000 -23.2500 Du        
  11060 ****         7.0000 -13.7500 -23.5000 Du        
  11061 ****         7.0000 -13.7500 -23.2500 Du        
  11062 ****         7.0000 -13.7500 -23.0000 Du        
  11063 ****         7.0000 -13.5000 -23.5000 Du        
  11064 ****         7.0000 -13.5000 -23.2500 Du        
  11065 ****         7.0000 -13.5000 -23.0000 Du        
  11066 ****         7.0000 -13.2500 -23.0000 Du        
  11067 ****         7.0000 -13.2500 -22.7500 Du        
  11068 ****         7.0000 -13.0000 -23.0000 Du        
  11069 ****         7.0000 -13.0000 -22.7500 Du        
  11070 ****         7.2500 -20.7500 -14.2500 Du        
  11071 ****         7.2500 -20.7500 -14.0000 Du        
  11072 ****         7.2500 -20.5000 -14.2500 Du        
  11073 ****         7.2500 -20.5000 -14.0000 Du        
  11074 ****         7.2500 -20.2500 -14.7500 Du        
  11075 ****         7.2500 -20.2500 -14.5000 Du        
  11076 ****         7.2500 -20.2500 -14.2500 Du        
  11077 ****         7.2500 -20.2500 -14.0000 Du        
  11078 ****         7.2500 -20.2500 -13.7500 Du        
  11079 ****         7.2500 -20.2500 -13.5000 Du        
  11080 ****         7.2500 -20.0000 -15.2500 Du        
  11081 ****         7.2500 -20.0000 -15.0000 Du        
  11082 ****         7.2500 -20.0000 -14.7500 Du        
  11083 ****         7.2500 -20.0000 -14.5000 Du        
  11084 ****         7.2500 -20.0000 -14.2500 Du        
  11085 ****         7.2500 -20.0000 -14.0000 Du        
  11086 ****         7.2500 -20.0000 -13.7500 Du        
  11087 ****         7.2500 -20.0000 -13.5000 Du        
  11088 ****         7.2500 -19.7500 -16.2500 Du        
  11089 ****         7.2500 -19.7500 -16.0000 Du        
  11090 ****         7.2500 -19.7500 -15.7500 Du        
  11091 ****         7.2500 -19.7500 -15.5000 Du        
  11092 ****         7.2500 -19.7500 -15.2500 Du        
  11093 ****         7.2500 -19.7500 -15.0000 Du        
  11094 ****         7.2500 -19.7500 -14.7500 Du        
  11095 ****         7.2500 -19.7500 -14.5000 Du        
  11096 ****         7.2500 -19.7500 -14.2500 Du        
  11097 ****         7.2500 -19.7500 -14.0000 Du        
  11098 ****         7.2500 -19.7500 -13.7500 Du        
  11099 ****         7.2500 -19.7500 -13.5000 Du        
  11100 ****         7.2500 -19.7500 -13.2500 Du        
  11101 ****         7.2500 -19.5000 -16.5000 Du        
  11102 ****         7.2500 -19.5000 -16.2500 Du        
  11103 ****         7.2500 -19.5000 -16.0000 Du        
  11104 ****         7.2500 -19.5000 -15.7500 Du        
  11105 ****         7.2500 -19.5000 -15.5000 Du        
  11106 ****         7.2500 -19.5000 -15.2500 Du        
  11107 ****         7.2500 -19.5000 -15.0000 Du        
  11108 ****         7.2500 -19.5000 -14.7500 Du        
  11109 ****         7.2500 -19.5000 -14.5000 Du        
  11110 ****         7.2500 -19.5000 -14.2500 Du        
  11111 ****         7.2500 -19.5000 -14.0000 Du        
  11112 ****         7.2500 -19.5000 -13.7500 Du        
  11113 ****         7.2500 -19.2500 -16.7500 Du        
  11114 ****         7.2500 -19.2500 -16.5000 Du        
  11115 ****         7.2500 -19.2500 -16.2500 Du        
  11116 ****         7.2500 -19.2500 -16.0000 Du        
  11117 ****         7.2500 -19.2500 -15.7500 Du        
  11118 ****         7.2500 -19.2500 -15.5000 Du        
  11119 ****         7.2500 -19.2500 -15.2500 Du        
  11120 ****         7.2500 -19.2500 -15.0000 Du        
  11121 ****         7.2500 -19.2500 -14.7500 Du        
  11122 ****         7.2500 -19.2500 -14.5000 Du        
  11123 ****         7.2500 -19.2500 -14.2500 Du        
  11124 ****         7.2500 -19.2500 -14.0000 Du        
  11125 ****         7.2500 -19.0000 -16.7500 Du        
  11126 ****         7.2500 -19.0000 -16.5000 Du        
  11127 ****         7.2500 -19.0000 -16.2500 Du        
  11128 ****         7.2500 -19.0000 -16.0000 Du        
  11129 ****         7.2500 -19.0000 -15.7500 Du        
  11130 ****         7.2500 -19.0000 -15.5000 Du        
  11131 ****         7.2500 -19.0000 -15.2500 Du        
  11132 ****         7.2500 -19.0000 -15.0000 Du        
  11133 ****         7.2500 -19.0000 -14.7500 Du        
  11134 ****         7.2500 -19.0000 -14.5000 Du        
  11135 ****         7.2500 -19.0000 -14.2500 Du        
  11136 ****         7.2500 -18.7500 -16.5000 Du        
  11137 ****         7.2500 -18.7500 -16.2500 Du        
  11138 ****         7.2500 -18.7500 -16.0000 Du        
  11139 ****         7.2500 -18.7500 -15.7500 Du        
  11140 ****         7.2500 -18.7500 -15.5000 Du        
  11141 ****         7.2500 -18.7500 -15.2500 Du        
  11142 ****         7.2500 -18.7500 -15.0000 Du        
  11143 ****         7.2500 -18.7500 -14.7500 Du        
  11144 ****         7.2500 -18.7500 -14.5000 Du        
  11145 ****         7.2500 -18.5000 -16.5000 Du        
  11146 ****         7.2500 -18.5000 -16.2500 Du        
  11147 ****         7.2500 -18.5000 -16.0000 Du        
  11148 ****         7.2500 -18.5000 -15.7500 Du        
  11149 ****         7.2500 -18.5000 -15.5000 Du        
  11150 ****         7.2500 -18.5000 -15.2500 Du        
  11151 ****         7.2500 -18.5000 -15.0000 Du        
  11152 ****         7.2500 -18.5000 -14.7500 Du        
  11153 ****         7.2500 -18.2500 -16.5000 Du        
  11154 ****         7.2500 -18.2500 -16.2500 Du        
  11155 ****         7.2500 -18.2500 -16.0000 Du        
  11156 ****         7.2500 -18.2500 -15.7500 Du        
  11157 ****         7.2500 -18.2500 -15.5000 Du        
  11158 ****         7.2500 -18.2500 -15.2500 Du        
  11159 ****         7.2500 -18.2500 -15.0000 Du        
  11160 ****         7.2500 -18.0000 -16.5000 Du        
  11161 ****         7.2500 -18.0000 -16.2500 Du        
  11162 ****         7.2500 -18.0000 -16.0000 Du        
  11163 ****         7.2500 -18.0000 -15.7500 Du        
  11164 ****         7.2500 -18.0000 -15.5000 Du        
  11165 ****         7.2500 -17.7500 -16.5000 Du        
  11166 ****         7.2500 -17.7500 -16.2500 Du        
  11167 ****         7.2500 -17.7500 -16.0000 Du        
  11168 ****         7.2500 -17.7500 -15.7500 Du        
  11169 ****         7.2500 -17.5000 -16.5000 Du        
  11170 ****         7.2500 -17.5000 -16.2500 Du        
  11171 ****         7.2500 -17.5000 -16.0000 Du        
  11172 ****         7.2500 -17.2500 -16.5000 Du        
  11173 ****         7.2500 -17.2500 -16.2500 Du        
  11174 ****         7.2500 -14.0000 -23.7500 Du        
  11175 ****         7.2500 -14.0000 -23.5000 Du        
  11176 ****         7.2500 -14.0000 -23.2500 Du        
  11177 ****         7.2500 -13.7500 -23.5000 Du        
  11178 ****         7.2500 -13.7500 -23.2500 Du        
  11179 ****         7.2500 -13.7500 -23.0000 Du        
  11180 ****         7.2500 -13.5000 -23.5000 Du        
  11181 ****         7.2500 -13.5000 -23.2500 Du        
  11182 ****         7.2500 -13.5000 -23.0000 Du        
  11183 ****         7.2500 -13.2500 -23.0000 Du        
  11184 ****         7.2500 -13.0000 -23.0000 Du        
  11185 ****         7.2500 -13.0000 -22.7500 Du        
  11186 ****         7.5000 -19.7500 -13.5000 Du        
  11187 ****         7.5000 -19.5000 -14.0000 Du        
  11188 ****         7.5000 -19.5000 -13.5000 Du        
  11189 ****         7.5000 -19.2500 -14.2500 Du        
  11190 ****         7.5000 -19.0000 -16.2500 Du        
  11191 ****         7.5000 -19.0000 -16.0000 Du        
  11192 ****         7.5000 -19.0000 -15.7500 Du        
  11193 ****         7.5000 -19.0000 -15.5000 Du        
  11194 ****         7.5000 -19.0000 -15.2500 Du        
  11195 ****         7.5000 -19.0000 -15.0000 Du        
  11196 ****         7.5000 -19.0000 -14.7500 Du        
  11197 ****         7.5000 -19.0000 -14.5000 Du        
  11198 ****         7.5000 -18.7500 -16.5000 Du        
  11199 ****         7.5000 -18.7500 -16.2500 Du        
  11200 ****         7.5000 -18.7500 -16.0000 Du        
  11201 ****         7.5000 -18.7500 -15.7500 Du        
  11202 ****         7.5000 -18.7500 -15.5000 Du        
  11203 ****         7.5000 -18.7500 -15.2500 Du        
  11204 ****         7.5000 -18.7500 -15.0000 Du        
  11205 ****         7.5000 -18.7500 -14.7500 Du        
  11206 ****         7.5000 -18.7500 -14.5000 Du        
  11207 ****         7.5000 -18.5000 -16.5000 Du        
  11208 ****         7.5000 -18.5000 -16.2500 Du        
  11209 ****         7.5000 -18.5000 -16.0000 Du        
  11210 ****         7.5000 -18.5000 -15.7500 Du        
  11211 ****         7.5000 -18.5000 -15.5000 Du        
  11212 ****         7.5000 -18.5000 -15.2500 Du        
  11213 ****         7.5000 -18.5000 -15.0000 Du        
  11214 ****         7.5000 -18.5000 -14.7500 Du        
  11215 ****         7.5000 -18.2500 -16.5000 Du        
  11216 ****         7.5000 -18.2500 -16.2500 Du        
  11217 ****         7.5000 -18.2500 -16.0000 Du        
  11218 ****         7.5000 -18.2500 -15.7500 Du        
  11219 ****         7.5000 -18.2500 -15.5000 Du        
  11220 ****         7.5000 -18.2500 -15.2500 Du        
  11221 ****         7.5000 -18.2500 -15.0000 Du        
  11222 ****         7.5000 -18.0000 -16.5000 Du        
  11223 ****         7.5000 -18.0000 -16.2500 Du        
  11224 ****         7.5000 -18.0000 -16.0000 Du        
  11225 ****         7.5000 -18.0000 -15.7500 Du        
  11226 ****         7.5000 -18.0000 -15.5000 Du        
  11227 ****         7.5000 -18.0000 -15.2500 Du        
  11228 ****         7.5000 -17.7500 -16.5000 Du        
  11229 ****         7.5000 -17.7500 -16.2500 Du        
  11230 ****         7.5000 -17.7500 -16.0000 Du        
  11231 ****         7.5000 -17.7500 -15.7500 Du        
  11232 ****         7.5000 -17.7500 -15.5000 Du        
  11233 ****         7.5000 -17.5000 -16.5000 Du        
  11234 ****         7.5000 -17.5000 -16.2500 Du        
  11235 ****         7.5000 -17.5000 -16.0000 Du        
  11236 ****         7.5000 -17.5000 -15.7500 Du        
  11237 ****         7.5000 -17.2500 -16.5000 Du        
  11238 ****         7.5000 -17.2500 -16.2500 Du        
  11239 ****         7.5000 -14.2500 -23.7500 Du        
  11240 ****         7.5000 -14.2500 -23.5000 Du        
  11241 ****         7.5000 -14.0000 -24.0000 Du        
  11242 ****         7.5000 -14.0000 -23.7500 Du        
  11243 ****         7.5000 -14.0000 -23.5000 Du        
  11244 ****         7.5000 -14.0000 -23.2500 Du        
  11245 ****         7.5000 -13.7500 -23.5000 Du        
  11246 ****         7.5000 -13.7500 -23.2500 Du        
  11247 ****         7.5000 -13.5000 -23.5000 Du        
  11248 ****         7.5000 -13.5000 -23.2500 Du        
  11249 ****         7.5000 -13.2500 -23.0000 Du        
  11250 ****         7.5000 -13.0000 -23.0000 Du        
  11251 ****         7.7500 -18.2500 -16.2500 Du        
  11252 ****         7.7500 -18.2500 -16.0000 Du        
  11253 ****         7.7500 -18.2500 -15.7500 Du        
  11254 ****         7.7500 -18.2500 -15.5000 Du        
  11255 ****         7.7500 -18.2500 -15.2500 Du        
  11256 ****         7.7500 -18.2500 -15.0000 Du        
  11257 ****         7.7500 -18.0000 -16.5000 Du        
  11258 ****         7.7500 -18.0000 -16.2500 Du        
  11259 ****         7.7500 -18.0000 -16.0000 Du        
  11260 ****         7.7500 -18.0000 -15.7500 Du        
  11261 ****         7.7500 -18.0000 -15.5000 Du        
  11262 ****         7.7500 -18.0000 -15.2500 Du        
  11263 ****         7.7500 -18.0000 -15.0000 Du        
  11264 ****         7.7500 -17.7500 -16.5000 Du        
  11265 ****         7.7500 -17.7500 -16.2500 Du        
  11266 ****         7.7500 -17.7500 -16.0000 Du        
  11267 ****         7.7500 -17.7500 -15.7500 Du        
  11268 ****         7.7500 -17.7500 -15.5000 Du        
  11269 ****         7.7500 -17.7500 -15.2500 Du        
  11270 ****         7.7500 -17.5000 -16.5000 Du        
  11271 ****         7.7500 -17.5000 -16.2500 Du        
  11272 ****         7.7500 -17.5000 -16.0000 Du        
  11273 ****         7.7500 -17.5000 -15.7500 Du        
  11274 ****         7.7500 -17.2500 -16.0000 Du        
  11275 ****         7.7500 -14.2500 -23.7500 Du        
  11276 ****         7.7500 -14.2500 -23.5000 Du        
  11277 ****         7.7500 -14.0000 -24.0000 Du        
  11278 ****         7.7500 -14.0000 -23.7500 Du        
  11279 ****         7.7500 -14.0000 -23.5000 Du        
  11280 ****         7.7500 -14.0000 -23.2500 Du        
  11281 ****         7.7500 -13.7500 -23.5000 Du        
  11282 ****         7.7500 -13.7500 -23.2500 Du        
  11283 ****         7.7500 -13.5000 -23.5000 Du        
  11284 ****         7.7500 -13.5000 -23.2500 Du        
  11285 ****         7.7500 -13.2500 -23.0000 Du        
  11286 ****         7.7500 -13.0000 -23.0000 Du        
  11287 ****         8.0000 -18.0000 -16.2500 Du        
  11288 ****         8.0000 -18.0000 -16.0000 Du        
  11289 ****         8.0000 -18.0000 -15.7500 Du        
  11290 ****         8.0000 -17.7500 -16.2500 Du        
  11291 ****         8.0000 -17.7500 -16.0000 Du        
  11292 ****         8.0000 -17.7500 -15.7500 Du        
  11293 ****         8.0000 -17.7500 -15.5000 Du        
  11294 ****         8.0000 -17.5000 -16.2500 Du        
  11295 ****         8.0000 -17.5000 -16.0000 Du        
  11296 ****         8.0000 -17.5000 -15.7500 Du        
  11297 ****         8.0000 -17.5000 -15.5000 Du        
  11298 ****         8.0000 -14.2500 -23.5000 Du        
  11299 ****         8.0000 -14.0000 -23.5000 Du        
  11300 ****         8.0000 -14.0000 -23.2500 Du        
  11301 ****         8.2500 -14.2500 -23.5000 Du        
  11302 ****         8.2500 -14.0000 -23.5000 Du        
  11303 ****         8.7500 -18.5000 -11.5000 Du        
  11304 ****         8.7500 -18.5000 -11.2500 Du        
  11305 ****         8.7500 -18.2500 -11.5000 Du        
  11306 ****         8.7500 -18.2500 -11.2500 Du        
  11307 ****         9.0000 -18.5000 -11.2500 Du        
  11308 ****         9.0000 -18.5000 -11.0000 Du        
  11309 ****         9.0000 -18.2500 -11.2500 Du        
  11310 ****         9.0000 -18.2500 -11.0000 Du        
  11311 ****         9.2500 -18.5000 -11.0000 Du        
  11312 ****         9.2500 -18.2500 -11.0000 Du        
  11313 ****         9.2500 -18.2500 -10.7500 Du        
  11314 ****         9.2500 -18.2500 -10.5000 Du        
  11315 ****         9.5000 -18.5000 -10.7500 Du        
  11316 ****         9.5000 -18.2500 -11.0000 Du        
  11317 ****         9.5000 -18.2500 -10.7500 Du        
  11318 ****         9.5000 -18.2500 -10.5000 Du        
  11319 ****         9.5000 -18.2500 -10.2500 Du        
  11320 ****         9.5000 -18.0000 -10.7500 Du        
  11321 ****         9.5000 -18.0000 -10.5000 Du        
  11322 ****         9.5000 -18.0000 -10.2500 Du        
  11323 ****         9.7500 -18.5000 -10.5000 Du        
  11324 ****         9.7500 -18.2500 -10.7500 Du        
  11325 ****         9.7500 -18.2500 -10.5000 Du        
  11326 ****         9.7500 -18.2500 -10.2500 Du        
  11327 ****         9.7500 -18.0000 -10.7500 Du        
  11328 ****         9.7500 -18.0000 -10.5000 Du        
  11329 ****         9.7500 -18.0000 -10.2500 Du        
  11330 ****         9.7500 -18.0000 -10.0000 Du        
  11331 ****        10.0000 -18.2500 -10.5000 Du        
  11332 ****        10.0000 -18.2500 -10.2500 Du        
  11333 ****        10.0000 -18.0000 -10.5000 Du        
  11334 ****        10.0000 -18.0000 -10.2500 Du        
  11335 ****        10.0000 -18.0000 -10.0000 Du        
  11336 ****        10.0000 -17.7500 -10.5000 Du        
  11337 ****        10.0000 -17.7500 -10.2500 Du        
  11338 ****        10.0000 -17.7500 -10.0000 Du        
  11339 ****        10.0000 -17.7500  -9.7500 Du        
  11340 ****        10.2500 -18.2500 -10.5000 Du        
  11341 ****        10.2500 -18.2500 -10.2500 Du        
  11342 ****        10.2500 -18.0000 -10.5000 Du        
  11343 ****        10.2500 -18.0000 -10.2500 Du        
  11344 ****        10.2500 -18.0000 -10.0000 Du        
  11345 ****        10.2500 -17.7500 -10.2500 Du        
  11346 ****        10.2500 -17.7500 -10.0000 Du        
  11347 ****        10.2500 -17.7500  -9.7500 Du        
  11348 ****        10.2500 -17.5000 -10.0000 Du        
  11349 ****        10.2500 -17.5000  -9.7500 Du        
  11350 ****        10.5000 -18.0000 -10.2500 Du        
  11351 ****        10.5000 -18.0000 -10.0000 Du        
  11352 ****        10.5000 -17.7500 -10.2500 Du        
  11353 ****        10.5000 -17.7500 -10.0000 Du        
  11354 ****        10.5000 -17.7500  -9.7500 Du        
  11355 ****        10.5000 -17.5000 -10.0000 Du        
  11356 ****        10.5000 -17.5000  -9.7500 Du        
  11357 ****        10.5000 -17.5000  -9.5000 Du        
  11358 ****        10.5000 -17.2500  -9.7500 Du        
  11359 ****        10.5000 -17.2500  -9.5000 Du        
  11360 ****        10.7500 -18.0000 -10.2500 Du        
  11361 ****        10.7500 -18.0000 -10.0000 Du        
  11362 ****        10.7500 -17.7500 -10.0000 Du        
  11363 ****        10.7500 -17.7500  -9.7500 Du        
  11364 ****        10.7500 -17.7500  -9.5000 Du        
  11365 ****        10.7500 -17.5000 -10.0000 Du        
  11366 ****        10.7500 -17.5000  -9.7500 Du        
  11367 ****        10.7500 -17.5000  -9.5000 Du        
  11368 ****        10.7500 -17.5000  -9.2500 Du        
  11369 ****        10.7500 -17.2500  -9.7500 Du        
  11370 ****        10.7500 -17.2500  -9.5000 Du        
  11371 ****        10.7500 -17.2500  -9.2500 Du        
  11372 ****        10.7500 -17.0000  -9.5000 Du        
  11373 ****        10.7500 -17.0000  -9.2500 Du        
  11374 ****        11.0000 -18.0000 -10.0000 Du        
  11375 ****        11.0000 -17.7500 -10.0000 Du        
  11376 ****        11.0000 -17.7500  -9.7500 Du        
  11377 ****        11.0000 -17.7500  -9.5000 Du        
  11378 ****        11.0000 -17.5000  -9.7500 Du        
  11379 ****        11.0000 -17.5000  -9.5000 Du        
  11380 ****        11.0000 -17.5000  -9.2500 Du        
  11381 ****        11.0000 -17.5000  -9.0000 Du        
  11382 ****        11.0000 -17.2500  -9.7500 Du        
  11383 ****        11.0000 -17.2500  -9.5000 Du        
  11384 ****        11.0000 -17.2500  -9.2500 Du        
  11385 ****        11.0000 -17.2500  -9.0000 Du        
  11386 ****        11.0000 -17.0000  -9.5000 Du        
  11387 ****        11.0000 -17.0000  -9.2500 Du        
  11388 ****        11.0000 -17.0000  -9.0000 Du        
  11389 ****        11.0000 -16.7500  -9.2500 Du        
  11390 ****        11.0000 -16.7500  -9.0000 Du        
  11391 ****        11.2500 -18.0000  -9.7500 Du        
  11392 ****        11.2500 -17.7500  -9.7500 Du        
  11393 ****        11.2500 -17.7500  -9.5000 Du        
  11394 ****        11.2500 -17.7500  -9.2500 Du        
  11395 ****        11.2500 -17.5000  -9.7500 Du        
  11396 ****        11.2500 -17.5000  -9.5000 Du        
  11397 ****        11.2500 -17.5000  -9.2500 Du        
  11398 ****        11.2500 -17.5000  -9.0000 Du        
  11399 ****        11.2500 -17.2500  -9.5000 Du        
  11400 ****        11.2500 -17.2500  -9.2500 Du        
  11401 ****        11.2500 -17.2500  -9.0000 Du        
  11402 ****        11.2500 -17.2500  -8.7500 Du        
  11403 ****        11.2500 -17.0000  -9.5000 Du        
  11404 ****        11.2500 -17.0000  -9.2500 Du        
  11405 ****        11.2500 -17.0000  -9.0000 Du        
  11406 ****        11.2500 -17.0000  -8.7500 Du        
  11407 ****        11.2500 -16.7500  -9.2500 Du        
  11408 ****        11.2500 -16.7500  -9.0000 Du        
  11409 ****        11.5000 -18.0000  -9.7500 Du        
  11410 ****        11.5000 -17.7500  -9.7500 Du        
  11411 ****        11.5000 -17.7500  -9.5000 Du        
  11412 ****        11.5000 -17.7500  -9.2500 Du        
  11413 ****        11.5000 -17.7500  -9.0000 Du        
  11414 ****        11.5000 -17.5000  -9.5000 Du        
  11415 ****        11.5000 -17.5000  -9.2500 Du        
  11416 ****        11.5000 -17.5000  -9.0000 Du        
  11417 ****        11.5000 -17.5000  -8.7500 Du        
  11418 ****        11.5000 -17.2500  -9.2500 Du        
  11419 ****        11.5000 -17.2500  -9.0000 Du        
  11420 ****        11.5000 -17.2500  -8.7500 Du        
  11421 ****        11.5000 -17.0000  -9.0000 Du        
  11422 ****        11.5000 -17.0000  -8.7500 Du        
  11423 ****        11.7500 -18.0000  -9.7500 Du        
  11424 ****        11.7500 -18.0000  -9.5000 Du        
  11425 ****        11.7500 -18.0000  -9.2500 Du        
  11426 ****        11.7500 -17.7500  -9.5000 Du        
  11427 ****        11.7500 -17.7500  -9.2500 Du        
  11428 ****        11.7500 -17.7500  -9.0000 Du        
  11429 ****        11.7500 -17.7500  -8.7500 Du        
  11430 ****        11.7500 -17.5000  -9.2500 Du        
  11431 ****        11.7500 -17.5000  -9.0000 Du        
  11432 ****        11.7500 -17.5000  -8.7500 Du        
  11433 ****        11.7500 -17.2500  -9.0000 Du        
  11434 ****        11.7500 -17.2500  -8.7500 Du        
  11435 ****        12.0000 -18.0000  -9.5000 Du        
  11436 ****        12.0000 -18.0000  -9.2500 Du        
  11437 ****        12.0000 -18.0000  -9.0000 Du        
  11438 ****        12.0000 -18.0000  -8.7500 Du        
  11439 ****        12.0000 -17.7500  -9.2500 Du        
  11440 ****        12.0000 -17.7500  -9.0000 Du        
  11441 ****        12.0000 -17.7500  -8.7500 Du        
  11442 ****        12.0000 -17.7500  -8.5000 Du        
  11443 ****        12.0000 -17.5000  -9.0000 Du        
  11444 ****        12.0000 -17.5000  -8.7500 Du        
  11445 ****        12.0000 -17.5000  -8.5000 Du        
  11446 ****        12.2500 -18.2500  -9.2500 Du        
  11447 ****        12.2500 -18.0000  -9.2500 Du        
  11448 ****        12.2500 -18.0000  -9.0000 Du        
  11449 ****        12.2500 -18.0000  -8.7500 Du        
  11450 ****        12.2500 -18.0000  -8.5000 Du        
  11451 ****        12.2500 -18.0000  -8.2500 Du        
  11452 ****        12.2500 -17.7500  -9.0000 Du        
  11453 ****        12.2500 -17.7500  -8.7500 Du        
  11454 ****        12.2500 -17.7500  -8.5000 Du        
  11455 ****        12.2500 -17.7500  -8.2500 Du        
  11456 ****        12.5000 -18.2500  -8.7500 Du        
  11457 ****        12.5000 -18.0000  -8.7500 Du        
