#       Name:                CT1002167954
#       Creating user name   hitesit
#       Creation time:       Sun Apr 16 02:21:55 2023


#       File generated by GOLD software.
#

@<TRIPOS>MOLECULE
CT1002167954|ligand_prepared|mol2|1|dock3
    29    30     1
SMALL
NO_CHARGES


@<TRIPOS>ATOM
      1 C1           0.5397 -22.5096 -15.0442 C.3            1 RES1               0.0000
      2 C2           0.8570 -21.0596 -14.6250 C.ar           1 RES1               0.0000
      3 C3           1.8848 -23.2012 -15.2461 C.2            1 RES1               0.0000
      4 C4          -0.3029 -23.1037 -13.9210 C.2            1 RES1               0.0000
      5 C5          -0.2701 -22.6174 -16.3572 C.3            1 RES1               0.0000
      6 C6          -0.1435 -20.0924 -14.6062 C.ar           1 RES1               0.0000
      7 C7           2.1424 -20.6754 -14.2526 C.ar           1 RES1               0.0000
      8 N8           2.2837 -24.0963 -14.2976 N.am           1 RES1               0.0000
      9 O9           2.6025 -22.9360 -16.2025 O.2            1 RES1               0.0000
     10 N10          0.2333 -24.1320 -13.1910 N.am           1 RES1               0.0000
     11 O11         -1.4198 -22.6796 -13.6507 O.2            1 RES1               0.0000
     12 C12          0.1869 -21.6530 -17.4404 C.3            1 RES1               0.0000
     13 C13          0.1305 -18.7890 -14.2261 C.ar           1 RES1               0.0000
     14 C14          2.4142 -19.3714 -13.8729 C.ar           1 RES1               0.0000
     15 C15          1.5005 -24.6347 -13.3084 C.2            1 RES1               0.0000
     16 C16          1.4092 -18.4278 -13.8588 C.ar           1 RES1               0.0000
     17 O17          1.9291 -25.5238 -12.5785 O.2            1 RES1               0.0000
     18 H18         -0.1880 -23.6424 -16.7395 H              1 RES1               0.0000
     19 H19         -1.3274 -22.4254 -16.1368 H              1 RES1               0.0000
     20 H20         -1.1553 -20.3575 -14.8944 H              1 RES1               0.0000
     21 H21          2.9490 -21.4007 -14.2572 H              1 RES1               0.0000
     22 H22          3.2540 -24.3928 -14.3264 H              1 RES1               0.0000
     23 H23         -0.3678 -24.5626 -12.4956 H              1 RES1               0.0000
     24 H24         -0.4140 -21.7701 -18.3397 H              1 RES1               0.0000
     25 H25          0.0950 -20.6226 -17.1032 H              1 RES1               0.0000
     26 H26          1.2276 -21.8323 -17.7024 H              1 RES1               0.0000
     27 H27         -0.6637 -18.0498 -14.2179 H              1 RES1               0.0000
     28 H28          3.4222 -19.0914 -13.5853 H              1 RES1               0.0000
     29 H29          1.6235 -17.4068 -13.5607 H              1 RES1               0.0000
@<TRIPOS>BOND
    1    1    2 1     
    2    1    3 1     
    3    1    4 1     
    4    1    5 1     
    5    2    6 ar    
    6    2    7 ar    
    7    3    8 1     
    8    3    9 2     
    9    4   10 1     
   10    4   11 2     
   11    5   12 1     
   12    5   18 1     
   13    5   19 1     
   14    6   13 ar    
   15    6   20 1     
   16    7   14 ar    
   17    7   21 1     
   18    8   15 1     
   19    8   22 1     
   20   10   15 1     
   21   10   23 1     
   22   12   24 1     
   23   12   25 1     
   24   12   26 1     
   25   13   16 ar    
   26   13   27 1     
   27   14   16 ar    
   28   14   28 1     
   29   15   17 2     
   30   16   29 1     
@<TRIPOS>SUBSTRUCTURE
      1 RES1           1
@<TRIPOS>SET
DONOR_HYDROGENS      STATIC     ATOMS    <user>   **** ""
2 22 23
ATOM$RED        STATIC     ATOMS    COLORGROUP SYSTEM
2 22 23
@<TRIPOS>COMMENT
> <Gold.Version>
2022.3.0

> <Gold.Id.Protein>
unknown|7kl0_clean|pdb

> <Gold.Protein.RotatedTorsions>
[  607  596  595  592 ] final   58.58 input   60.02 | X-H torsion
[ 1141 1129 1128 1127 ] final  -28.19 input   60.02 | X-H torsion
[ 2856 2842 2840 2837 ] final   20.22 input   59.98 | X-H torsion
[  413  400  401  402 ] final  118.70 input  106.19 | X-H torsion
[ 8620  403  402  401 ] final   45.91 input    0.00 | X-H torsion
[ 8622  466  465  464 ] final  -65.84 input   -0.00 | X-H torsion

> <Gold.Protein.ActiveResidues>
 GLU18   LEU19   GLY20   LYS21   GLY22   SER25   VAL26   VAL27   ARG28   ARG29  
 CYS30   GLU38   TYR39   ALA40   ALA41   LYS42   ILE43   ILE44   GLU60   CYS64  
 VAL73   ARG74   LEU75   HIS76   LEU87   ILE88   PHE89   ASP90   LEU91   VAL92  
 THR93   GLY94   GLY95   GLU96   LEU97   PHE98   GLU99   ASN135  GLU139  ASN140 
 LEU141  LEU142  LEU143  ALA144  LYS153  LEU154  ALA155  ASP156  PHE157  GLY158 
 LEU159 

> <Gold.Protein.RotatedAtoms>
   -4.8600  -29.8537  -18.4584 H   0  0  0  0  0  0  0  0  0  0  0  0  # atno 413  bound_to 400 
    5.4322  -17.5303  -23.4855 H   0  0  0  0  0  0  0  0  0  0  0  0  # atno 607  bound_to 596 
    8.5713  -15.3480  -19.0970 H   0  0  0  0  0  0  0  0  0  0  0  0  # atno 1141 bound_to 1129
    9.4709  -14.9239  -20.4224 H   0  0  0  0  0  0  0  0  0  0  0  0  # atno 1142 bound_to 1129
    7.8569  -14.5540  -20.3650 H   0  0  0  0  0  0  0  0  0  0  0  0  # atno 1143 bound_to 1129
    0.7306  -30.9451   -8.3953 H   0  0  0  0  0  0  0  0  0  0  0  0  # atno 2856 bound_to 2842
    5.8680  -16.1094  -24.1479 LP  0  0  0  0  0  0  0  0  0  0  0  0  # atno 8559 bound_to 596 
    6.5303  -16.5926  -22.7356 LP  0  0  0  0  0  0  0  0  0  0  0  0  # atno 8560 bound_to 596 
    2.1704  -31.6766   -8.5965 LP  0  0  0  0  0  0  0  0  0  0  0  0  # atno 8585 bound_to 2842
    0.7906  -32.5457   -8.6833 LP  0  0  0  0  0  0  0  0  0  0  0  0  # atno 8586 bound_to 2842
   -5.5254  -30.7177  -19.8391 LP  0  0  0  0  0  0  0  0  0  0  0  0  # atno 8619 bound_to 400 
   -3.4626  -29.4997  -21.0338 LP  0  0  0  0  0  0  0  0  0  0  0  0  # atno 8620 bound_to 403 
   -3.1629  -27.9835  -21.8157 LP  0  0  0  0  0  0  0  0  0  0  0  0  # atno 8621 bound_to 403 
   -8.2545  -24.6250  -21.4898 LP  0  0  0  0  0  0  0  0  0  0  0  0  # atno 8622 bound_to 466 
   -7.2290  -23.9438  -20.2714 LP  0  0  0  0  0  0  0  0  0  0  0  0  # atno 8623 bound_to 466 

> <Gold.Score>
     Fitness  S(hb_ext) S(vdw_ext)  S(hb_int)    S(int)      intcor
     28.60       0.38      22.76       0.00      -3.08      -0.77

> <Gold.Goldscore.Fitness>
28.6015

> <Gold.Goldscore.Internal.Vdw>
-2.9569

> <Gold.Goldscore.Internal.Torsion>
-0.8883

> <Gold.Goldscore.External.Vdw>
22.7644

> <Gold.Goldscore.Internal.HBond>
0.0000

> <Gold.Goldscore.External.HBond>
0.3805

> <Gold.Goldscore.Internal.Correction>
-0.7653

> <Gold.Goldscore.Hbonds>
donor molecule, donor type, donor heavy atom, donor atom, acceptor molecule, acceptor atom, score
      P1  H   490   515       L1    11  0.06

> <Gold.Goldscore.Internal.Vdw.Weighted>
-2.9569

> <Gold.Goldscore.Internal.Torsion.Weighted>
-0.8883

> <Gold.Goldscore.External.Vdw.Weighted>
31.3010

> <Gold.Goldscore.Internal.HBond.Weighted>
0.0000

> <Gold.Goldscore.External.HBond.Weighted>
0.3805

> <Gold.Goldscore.Internal.Correction.Weighted>
-0.7653

> <Gold.Rescore>
     Score     S(PLP)   S(hbond)     S(cho)   S(metal)  DE(clash)   DE(tors)     intcor
     29.54     -28.71       0.84       0.00       0.00       1.38       0.16       ----

> <Gold.PLP.Fitness>
29.5435

> <Gold.PLP.PLP>
-28.7118

> <Gold.PLP.part.hbond>
-1.0000

> <Gold.PLP.part.metal>
0.0000

> <Gold.PLP.part.buried>
-1.9608

> <Gold.PLP.part.nonpolar>
-27.3262

> <Gold.PLP.part.repulsive>
0.3041

> <Gold.PLP.ligand.clash>
1.3810

> <Gold.PLP.ligand.torsion>
0.1611

> <Gold.PLP.Chemscore.Hbond>
0.8450

> <Gold.PLP.Chemscore.CHOScore>
0.0000

> <Gold.PLP.Chemscore.Metal>
0.0000

> <Gold.PLP.Chemscore.Internal.Correction>
   9.000000E+99

