@<TRIPOS>MOLECULE
B:GOL805
    14    13     1     0     1
SMALL
NO_CHARGES
****
Generated from the CSD

@<TRIPOS>ATOM
     1 C1     107.0660 230.2940 355.3350   C.3       1 GOL805   0.0000
     2 O1     106.9970 231.7020 355.3720   O.3       1 GOL805   0.0000
     3 C2     108.5070 229.8300 355.5240   C.3       1 GOL805   0.0000
     4 O2     109.0100 229.3150 354.3110   O.3       1 GOL805   0.0000
     5 C3     108.5400 228.7380 356.5860   C.3       1 GOL805   0.0000
     6 O3     109.8530 228.2320 356.7020   O.3       1 GOL805   0.0000
     7 H1     107.5575 232.0801 354.6447   H         1 GOL805   0.0000
     8 H2     106.6982 229.9414 354.3726   H         1 GOL805   0.0000
     9 H3     106.4486 229.8829 356.1323   H         1 GOL805   0.0000
    10 H4     107.8650 227.9329 356.2995   H         1 GOL805   0.0000
    11 H5     108.2252 229.1526 357.5425   H         1 GOL805   0.0000
    12 H6     108.9829 230.0223 353.6146   H         1 GOL805   0.0000
    13 H7     109.1210 230.6699 355.8458   H         1 GOL805   0.0000
    14 H8     110.4687 228.9659 356.9633   H         1 GOL805   0.0000
@<TRIPOS>BOND
     1     1     2    1
     2     1     3    1
     3     3     4    1
     4     3     5    1
     5     5     6    1
     6     2     7    1
     7     1     8    1
     8     1     9    1
     9     5    10    1
    10     5    11    1
    11     4    12    1
    12     3    13    1
    13     6    14    1
@<TRIPOS>SUBSTRUCTURE
     1 GOL805      1 GROUP             0 B     GOL     0  
@<TRIPOS>SET
CCDC_LIGAND STATIC ATOMS
14 1 2 3 4 5 6 7 8 9 \
10 11 12 13 14 
