@<TRIPOS>MOLECULE
A:GOL805
    14    13     1     0     1
SMALL
NO_CHARGES
****
Generated from the CSD

@<TRIPOS>ATOM
     1 C1     100.7530 262.3000 358.5340   C.3       1 GOL805   0.0000
     2 O1     102.1530 262.0830 358.4630   O.3       1 GOL805   0.0000
     3 C2     100.1150 261.3230 359.5230   C.3       1 GOL805   0.0000
     4 O2     101.1050 260.5080 360.1040   O.3       1 GOL805   0.0000
     5 C3      99.1080 260.4060 358.8360   C.3       1 GOL805   0.0000
     6 O3      98.9990 259.2260 359.6110   O.3       1 GOL805   0.0000
     7 H1     101.7615 261.0768 360.5852   H         1 GOL805   0.0000
     8 H2      99.4546 260.1601 357.8333   H         1 GOL805   0.0000
     9 H3      98.1393 260.8996 358.7743   H         1 GOL805   0.0000
    10 H4      99.6098 261.8859 360.3065   H         1 GOL805   0.0000
    11 H5      98.6868 259.4578 360.5247   H         1 GOL805   0.0000
    12 H6     102.3290 261.1537 358.1604   H         1 GOL805   0.0000
    13 H7     100.3156 262.1503 357.5480   H         1 GOL805   0.0000
    14 H8     100.5637 263.3204 358.8640   H         1 GOL805   0.0000
@<TRIPOS>BOND
     1     1     2    1
     2     1     3    1
     3     3     4    1
     4     3     5    1
     5     5     6    1
     6     4     7    1
     7     5     8    1
     8     5     9    1
     9     3    10    1
    10     6    11    1
    11     2    12    1
    12     1    13    1
    13     1    14    1
@<TRIPOS>SUBSTRUCTURE
     1 GOL805      1 GROUP             0 A     GOL     0  
@<TRIPOS>SET
CCDC_LIGAND STATIC ATOMS
14 1 2 3 4 5 6 7 8 9 \
10 11 12 13 14 
