@<TRIPOS>MOLECULE
A:GOL804
    14    13     1     0     1
SMALL
NO_CHARGES
****
Generated from the CSD

@<TRIPOS>ATOM
     1 C1      93.5030 268.8390 340.7210   C.3       1 GOL804   0.0000
     2 O1      92.8730 268.0670 341.7240   O.3       1 GOL804   0.0000
     3 C2      94.9000 268.2830 340.4590   C.3       1 GOL804   0.0000
     4 O2      95.6490 268.3020 341.6550   O.3       1 GOL804   0.0000
     5 C3      95.6140 269.0980 339.3810   C.3       1 GOL804   0.0000
     6 O3      96.9820 268.7440 339.3500   O.3       1 GOL804   0.0000
     7 H1      97.0689 267.7763 339.1448   H         1 GOL804   0.0000
     8 H2      93.5795 269.8735 341.0526   H         1 GOL804   0.0000
     9 H3      92.9159 268.7940 339.8049   H         1 GOL804   0.0000
    10 H4      95.1946 267.7437 342.3390   H         1 GOL804   0.0000
    11 H5      94.8095 267.2528 340.1179   H         1 GOL804   0.0000
    12 H6      93.4090 268.1081 342.5589   H         1 GOL804   0.0000
    13 H7      95.5189 270.1593 339.6059   H         1 GOL804   0.0000
    14 H8      95.1635 268.8906 338.4115   H         1 GOL804   0.0000
@<TRIPOS>BOND
     1     1     2    1
     2     1     3    1
     3     3     4    1
     4     3     5    1
     5     5     6    1
     6     6     7    1
     7     1     8    1
     8     1     9    1
     9     4    10    1
    10     3    11    1
    11     2    12    1
    12     5    13    1
    13     5    14    1
@<TRIPOS>SUBSTRUCTURE
     1 GOL804      1 GROUP             0 A     GOL     0  
@<TRIPOS>SET
CCDC_LIGAND STATIC ATOMS
14 1 2 3 4 5 6 7 8 9 \
10 11 12 13 14 
