@<TRIPOS>MOLECULE
A:8F1803
    48    50     1     0     1
SMALL
NO_CHARGES
****
Generated from the CSD

@<TRIPOS>ATOM
     1 N01    117.6270 245.1810 359.7530   N.ar      1 8F1803   0.0000
     2 C02    116.8060 244.4500 360.5210   C.ar      1 8F1803   0.0000
     3 N02    116.6380 243.1390 360.2090   N.pl3     1 8F1803   0.0000
     4 C03    116.1740 245.0400 361.6210   C.ar      1 8F1803   0.0000
     5 C04    116.4100 246.3920 361.8860   C.ar      1 8F1803   0.0000
     6 C05    117.2500 247.1150 361.0510   C.ar      1 8F1803   0.0000
     7 C06    117.4880 248.4620 361.2840   C.ar      1 8F1803   0.0000
     8 C07    118.3410 249.1660 360.4530   C.ar      1 8F1803   0.0000
     9 C08    118.9420 248.5130 359.3810   C.ar      1 8F1803   0.0000
    10 C09    118.7090 247.1710 359.1580   C.ar      1 8F1803   0.0000
    11 C10    117.8600 246.4780 359.9890   C.ar      1 8F1803   0.0000
    12 C11    115.7740 247.0950 363.0540   C.3       1 8F1803   0.0000
    13 C12    119.8800 249.2630 358.4760   C.3       1 8F1803   0.0000
    14 O13    120.4000 250.3390 359.2430   O.3       1 8F1803   0.0000
    15 C21    121.4340 251.0840 358.7750   C.ar      1 8F1803   0.0000
    16 C22    121.7750 252.2340 359.4610   C.ar      1 8F1803   0.0000
    17 C23    122.8280 253.0210 359.0230   C.ar      1 8F1803   0.0000
    18 C24    123.5490 252.6500 357.8760   C.ar      1 8F1803   0.0000
    19 C25    123.2000 251.4810 357.1810   C.ar      1 8F1803   0.0000
    20 C26    122.1370 250.6970 357.6410   C.ar      1 8F1803   0.0000
    21 C27    123.1080 254.0960 359.6780   C.1       1 8F1803   0.0000
    22 N28    123.4270 255.0780 360.2100   N.1       1 8F1803   0.0000
    23 C31    123.9650 251.0540 355.9360   C.3       1 8F1803   0.0000
    24 C32    125.2050 250.2970 356.4020   C.3       1 8F1803   0.0000
    25 N33    125.9460 249.7970 355.2350   N.3       1 8F1803   0.0000
    26 C34    126.7720 248.6500 355.6420   C.3       1 8F1803   0.0000
    27 H1     126.1308 247.8615 356.0331   H         1 8F1803   0.0000
    28 H2     127.3232 248.2758 354.7806   H         1 8F1803   0.0000
    29 H3     127.4736 248.9635 356.4136   H         1 8F1803   0.0000
    30 H4     115.5109 244.4571 362.2585   H         1 8F1803   0.0000
    31 H5     124.9035 249.4574 357.0266   H         1 8F1803   0.0000
    32 H6     125.8433 250.9663 356.9769   H         1 8F1803   0.0000
    33 H7     124.2581 251.9305 355.3600   H         1 8F1803   0.0000
    34 H8     123.3427 250.4064 355.3202   H         1 8F1803   0.0000
    35 H9     119.3429 249.6436 357.6084   H         1 8F1803   0.0000
    36 H10    120.6872 248.6108 358.1459   H         1 8F1803   0.0000
    37 H11    119.1957 246.6626 358.3270   H         1 8F1803   0.0000
    38 H12    121.8613 249.7860 357.1119   H         1 8F1803   0.0000
    39 H13    126.5427 250.5329 354.8709   H         1 8F1803   0.0000
    40 H14    116.0233 242.5584 360.7705   H         1 8F1803   0.0000
    41 H15    117.1271 242.7397 359.4143   H         1 8F1803   0.0000
    42 H16    124.3758 253.2669 357.5270   H         1 8F1803   0.0000
    43 H17    121.2143 252.5228 360.3488   H         1 8F1803   0.0000
    44 H18    118.5402 250.2209 360.6359   H         1 8F1803   0.0000
    45 H19    117.0038 248.9644 362.1201   H         1 8F1803   0.0000
    46 H20    116.0771 246.6080 363.9797   H         1 8F1803   0.0000
    47 H21    116.0944 248.1357 363.0696   H         1 8F1803   0.0000
    48 H22    114.6901 247.0503 362.9583   H         1 8F1803   0.0000
@<TRIPOS>BOND
     1     1     2   ar
     2     2     3    1
     3     2     4   ar
     4     4     5   ar
     5     5     6   ar
     6     6     7   ar
     7     7     8   ar
     8     8     9   ar
     9     9    10   ar
    10     1    11   ar
    11     6    11   ar
    12    10    11   ar
    13     5    12    1
    14     9    13    1
    15    13    14    1
    16    14    15    1
    17    15    16   ar
    18    16    17   ar
    19    17    18   ar
    20    18    19   ar
    21    15    20   ar
    22    19    20   ar
    23    17    21    1
    24    21    22    3
    25    19    23    1
    26    23    24    1
    27    24    25    1
    28    25    26    1
    29    26    27    1
    30    26    28    1
    31    26    29    1
    32     4    30    1
    33    24    31    1
    34    24    32    1
    35    23    33    1
    36    23    34    1
    37    13    35    1
    38    13    36    1
    39    10    37    1
    40    20    38    1
    41    25    39    1
    42     3    40    1
    43     3    41    1
    44    18    42    1
    45    16    43    1
    46     8    44    1
    47     7    45    1
    48    12    46    1
    49    12    47    1
    50    12    48    1
@<TRIPOS>SUBSTRUCTURE
     1 8F1803      1 GROUP             0 A     8F1     0  
@<TRIPOS>SET
CCDC_LIGAND STATIC ATOMS
48 1 2 3 4 5 6 7 8 9 \
10 11 12 13 14 15 16 17 18 19 \
20 21 22 23 24 25 26 27 28 29 \
30 31 32 33 34 35 36 37 38 39 \
40 41 42 43 44 45 46 47 48 
