@<TRIPOS>MOLECULE
B:8F1803
    48    50     1     0     1
SMALL
NO_CHARGES
****
Generated from the CSD

@<TRIPOS>ATOM
     1 N01    118.2380 244.5400 325.3750   N.ar      1 8F1803   0.0000
     2 C02    119.3040 244.2300 324.6040   C.ar      1 8F1803   0.0000
     3 N02    120.0460 243.1300 324.8920   N.pl3     1 8F1803   0.0000
     4 C03    119.6300 245.0390 323.5210   C.ar      1 8F1803   0.0000
     5 C04    118.8630 246.1660 323.2470   C.ar      1 8F1803   0.0000
     6 C05    117.7860 246.4670 324.0560   C.ar      1 8F1803   0.0000
     7 C06    117.0040 247.5930 323.8080   C.ar      1 8F1803   0.0000
     8 C07    115.9280 247.8830 324.6430   C.ar      1 8F1803   0.0000
     9 C08    115.6310 247.0310 325.7060   C.ar      1 8F1803   0.0000
    10 C09    116.4120 245.9110 325.9400   C.ar      1 8F1803   0.0000
    11 C10    117.4880 245.6300 325.1230   C.ar      1 8F1803   0.0000
    12 C11    119.1810 247.0480 322.0670   C.3       1 8F1803   0.0000
    13 C12    114.4580 247.3070 326.6220   C.3       1 8F1803   0.0000
    14 O13    113.5010 248.0890 325.9090   O.3       1 8F1803   0.0000
    15 C21    112.2410 248.2950 326.3820   C.ar      1 8F1803   0.0000
    16 C22    111.4110 249.1100 325.6410   C.ar      1 8F1803   0.0000
    17 C23    110.1100 249.3570 326.0690   C.ar      1 8F1803   0.0000
    18 C24    109.6470 248.7810 327.2550   C.ar      1 8F1803   0.0000
    19 C25    110.4900 247.9510 328.0090   C.ar      1 8F1803   0.0000
    20 C26    111.7950 247.7110 327.5610   C.ar      1 8F1803   0.0000
    21 C27    109.3680 250.1280 325.3470   C.1       1 8F1803   0.0000
    22 N28    108.7550 250.8710 324.6960   N.1       1 8F1803   0.0000
    23 C31    110.0100 247.3090 329.3070   C.3       1 8F1803   0.0000
    24 C32    108.8970 246.2980 329.0300   C.3       1 8F1803   0.0000
    25 N33    109.3240 244.9320 329.3970   N.3       1 8F1803   0.0000
    26 C34    108.2700 244.2530 330.1750   C.3       1 8F1803   0.0000
    27 H1     111.7745 249.5612 324.7189   H         1 8F1803   0.0000
    28 H2     112.4592 247.0675 328.1360   H         1 8F1803   0.0000
    29 H3     108.6309 248.9766 327.5943   H         1 8F1803   0.0000
    30 H4     114.7983 247.8539 327.5001   H         1 8F1803   0.0000
    31 H5     114.0055 246.3665 326.9329   H         1 8F1803   0.0000
    32 H6     116.1758 245.2495 326.7722   H         1 8F1803   0.0000
    33 H7     107.3611 244.1913 329.5783   H         1 8F1803   0.0000
    34 H8     108.6015 243.2491 330.4364   H         1 8F1803   0.0000
    35 H9     108.0695 244.8174 331.0845   H         1 8F1803   0.0000
    36 H10    110.1698 244.9851 329.9556   H         1 8F1803   0.0000
    37 H11    108.6493 246.3216 327.9698   H         1 8F1803   0.0000
    38 H12    108.0180 246.5661 329.6142   H         1 8F1803   0.0000
    39 H13    109.6313 248.0847 329.9709   H         1 8F1803   0.0000
    40 H14    110.8456 246.7991 329.7841   H         1 8F1803   0.0000
    41 H15    119.1143 246.4650 321.1496   H         1 8F1803   0.0000
    42 H16    118.4690 247.8710 322.0266   H         1 8F1803   0.0000
    43 H17    120.1895 247.4453 322.1721   H         1 8F1803   0.0000
    44 H18    120.4823 244.7910 322.8902   H         1 8F1803   0.0000
    45 H19    115.3218 248.7704 324.4667   H         1 8F1803   0.0000
    46 H20    117.2331 248.2433 322.9651   H         1 8F1803   0.0000
    47 H21    120.8474 242.8933 324.3158   H         1 8F1803   0.0000
    48 H22    119.7993 242.5444 325.6835   H         1 8F1803   0.0000
@<TRIPOS>BOND
     1     1     2   ar
     2     2     3    1
     3     2     4   ar
     4     4     5   ar
     5     5     6   ar
     6     6     7   ar
     7     7     8   ar
     8     8     9   ar
     9     9    10   ar
    10     1    11   ar
    11     6    11   ar
    12    10    11   ar
    13     5    12    1
    14     9    13    1
    15    13    14    1
    16    14    15    1
    17    15    16   ar
    18    16    17   ar
    19    17    18   ar
    20    18    19   ar
    21    15    20   ar
    22    19    20   ar
    23    17    21    1
    24    21    22    3
    25    19    23    1
    26    23    24    1
    27    24    25    1
    28    25    26    1
    29    16    27    1
    30    20    28    1
    31    18    29    1
    32    13    30    1
    33    13    31    1
    34    10    32    1
    35    26    33    1
    36    26    34    1
    37    26    35    1
    38    25    36    1
    39    24    37    1
    40    24    38    1
    41    23    39    1
    42    23    40    1
    43    12    41    1
    44    12    42    1
    45    12    43    1
    46     4    44    1
    47     8    45    1
    48     7    46    1
    49     3    47    1
    50     3    48    1
@<TRIPOS>SUBSTRUCTURE
     1 8F1803      1 GROUP             0 B     8F1     0  
@<TRIPOS>SET
CCDC_LIGAND STATIC ATOMS
48 1 2 3 4 5 6 7 8 9 \
10 11 12 13 14 15 16 17 18 19 \
20 21 22 23 24 25 26 27 28 29 \
30 31 32 33 34 35 36 37 38 39 \
40 41 42 43 44 45 46 47 48 
