@<TRIPOS>MOLECULE
B:GOL804
    14    13     1     0     1
SMALL
NO_CHARGES
****
Generated from the CSD

@<TRIPOS>ATOM
     1 C1     124.3520 266.9510 325.4640   C.3       1 GOL804   0.0000
     2 O1     123.6350 268.0080 326.0620   O.3       1 GOL804   0.0000
     3 C2     125.8400 267.0480 325.7910   C.3       1 GOL804   0.0000
     4 O2     126.2170 268.4080 325.8780   O.3       1 GOL804   0.0000
     5 C3     126.6450 266.3380 324.7010   C.3       1 GOL804   0.0000
     6 O3     127.9990 266.1950 325.0790   O.3       1 GOL804   0.0000
     7 H1     128.0549 265.6603 325.9138   H         1 GOL804   0.0000
     8 H2     126.5919 266.9213 323.7829   H         1 GOL804   0.0000
     9 H3     126.2177 265.3512 324.5293   H         1 GOL804   0.0000
    10 H4     125.6915 268.8520 326.5941   H         1 GOL804   0.0000
    11 H5     126.0282 266.5629 326.7477   H         1 GOL804   0.0000
    12 H6     123.9802 268.8753 325.7234   H         1 GOL804   0.0000
    13 H7     124.2206 266.9973 324.3839   H         1 GOL804   0.0000
    14 H8     123.9663 266.0031 325.8363   H         1 GOL804   0.0000
@<TRIPOS>BOND
     1     1     2    1
     2     1     3    1
     3     3     4    1
     4     3     5    1
     5     5     6    1
     6     6     7    1
     7     5     8    1
     8     5     9    1
     9     4    10    1
    10     3    11    1
    11     2    12    1
    12     1    13    1
    13     1    14    1
@<TRIPOS>SUBSTRUCTURE
     1 GOL804      1 GROUP             0 B     GOL     0  
@<TRIPOS>SET
CCDC_LIGAND STATIC ATOMS
14 1 2 3 4 5 6 7 8 9 \
10 11 12 13 14 
