@<TRIPOS>MOLECULE
A:GOL806
    14    13     1     0     1
SMALL
NO_CHARGES
****
Generated from the CSD

@<TRIPOS>ATOM
     1 C1     136.3570 267.6630 367.8250   C.3       1 GOL806   0.0000
     2 O1     136.7120 267.1590 366.5570   O.3       1 GOL806   0.0000
     3 C2     137.0990 268.9600 368.1300   C.3       1 GOL806   0.0000
     4 O2     138.3990 268.9120 367.5780   O.3       1 GOL806   0.0000
     5 C3     137.1700 269.1190 369.6460   C.3       1 GOL806   0.0000
     6 O3     137.4110 270.4580 370.0200   O.3       1 GOL806   0.0000
     7 H1     136.6772 271.0340 369.6796   H         1 GOL806   0.0000
     8 H2     137.9763 268.4951 370.0288   H         1 GOL806   0.0000
     9 H3     136.2244 268.7964 370.0793   H         1 GOL806   0.0000
    10 H4     138.3366 268.7941 366.5940   H         1 GOL806   0.0000
    11 H5     136.5535 269.7997 367.7020   H         1 GOL806   0.0000
    12 H6     137.6882 266.9785 366.5340   H         1 GOL806   0.0000
    13 H7     136.6074 266.9235 368.5841   H         1 GOL806   0.0000
    14 H8     135.2851 267.8540 367.8440   H         1 GOL806   0.0000
@<TRIPOS>BOND
     1     1     2    1
     2     1     3    1
     3     3     4    1
     4     3     5    1
     5     5     6    1
     6     6     7    1
     7     5     8    1
     8     5     9    1
     9     4    10    1
    10     3    11    1
    11     2    12    1
    12     1    13    1
    13     1    14    1
@<TRIPOS>SUBSTRUCTURE
     1 GOL806      1 GROUP             0 A     GOL     0  
@<TRIPOS>SET
CCDC_LIGAND STATIC ATOMS
14 1 2 3 4 5 6 7 8 9 \
10 11 12 13 14 
