#       Name:                CT1002167954
#       Creating user name   hitesit
#       Creation time:       Sun Apr 16 20:31:17 2023


#       File generated by GOLD software.
#

@<TRIPOS>MOLECULE
CT1002167954|ligand_prepared|mol2|1|dock8
    29    30     1
SMALL
NO_CHARGES


@<TRIPOS>ATOM
      1 C1         250.2731   7.6977  36.3620 C.3            1 RES1               0.0000
      2 C2         249.8305   8.8242  37.3179 C.ar           1 RES1               0.0000
      3 C3         251.0763   8.3688  35.2517 C.2            1 RES1               0.0000
      4 C4         251.0778   6.7145  37.2048 C.2            1 RES1               0.0000
      5 C5         249.0972   6.9255  35.7196 C.3            1 RES1               0.0000
      6 C6         248.7348   9.6251  37.0102 C.ar           1 RES1               0.0000
      7 C7         250.5053   9.0725  38.5103 C.ar           1 RES1               0.0000
      8 N8         252.4300   8.2040  35.2631 N.am           1 RES1               0.0000
      9 O9         250.5341   9.0646  34.4019 O.2            1 RES1               0.0000
     10 N10        252.4123   6.5732  36.9275 N.am           1 RES1               0.0000
     11 O11        250.5718   6.0731  38.1175 O.2            1 RES1               0.0000
     12 C12        247.9979   6.5540  36.7023 C.3            1 RES1               0.0000
     13 C13        248.3265  10.6356  37.8649 C.ar           1 RES1               0.0000
     14 C14        250.0954  10.0837  39.3635 C.ar           1 RES1               0.0000
     15 C15        253.1314   7.2960  36.0150 C.2            1 RES1               0.0000
     16 C16        249.0061  10.8653  39.0421 C.ar           1 RES1               0.0000
     17 O17        254.3405   7.1497  35.8609 O.2            1 RES1               0.0000
     18 H18        248.6643   7.5414  34.9217 H              1 RES1               0.0000
     19 H19        249.4859   6.0077  35.2613 H              1 RES1               0.0000
     20 H20        248.1891   9.4608  36.0870 H              1 RES1               0.0000
     21 H21        251.3656   8.4708  38.7831 H              1 RES1               0.0000
     22 H22        252.9709   8.8122  34.6566 H              1 RES1               0.0000
     23 H23        252.9162   5.8634  37.4495 H              1 RES1               0.0000
     24 H24        247.1978   6.0142  36.2001 H              1 RES1               0.0000
     25 H25        248.3880   5.9204  37.4961 H              1 RES1               0.0000
     26 H26        247.5713   7.4449  37.1586 H              1 RES1               0.0000
     27 H27        247.4694  11.2488  37.6067 H              1 RES1               0.0000
     28 H28        250.6336  10.2613  40.2887 H              1 RES1               0.0000
     29 H29        248.6858  11.6568  39.7117 H              1 RES1               0.0000
@<TRIPOS>BOND
    1    1    2 1     
    2    1    3 1     
    3    1    4 1     
    4    1    5 1     
    5    2    6 ar    
    6    2    7 ar    
    7    3    8 1     
    8    3    9 2     
    9    4   10 1     
   10    4   11 2     
   11    5   12 1     
   12    5   18 1     
   13    5   19 1     
   14    6   13 ar    
   15    6   20 1     
   16    7   14 ar    
   17    7   21 1     
   18    8   15 1     
   19    8   22 1     
   20   10   15 1     
   21   10   23 1     
   22   12   24 1     
   23   12   25 1     
   24   12   26 1     
   25   13   16 ar    
   26   13   27 1     
   27   14   16 ar    
   28   14   28 1     
   29   15   17 2     
   30   16   29 1     
@<TRIPOS>SUBSTRUCTURE
      1 RES1           1
@<TRIPOS>SET
DONOR_HYDROGENS      STATIC     ATOMS    <user>   **** ""
2 22 23
ATOM$RED        STATIC     ATOMS    COLORGROUP SYSTEM
2 22 23
@<TRIPOS>COMMENT
> <Gold.Version>
2022.3.0

> <Gold.Id.Protein>
unknown|4v3u_clean|pdb

> <Gold.Protein.RotatedTorsions>
[  581  535  534  533 ] final  148.21 input   59.97 | X-H torsion
[ 2566 2531 2532 2533 ] final  -63.08 input  112.83 | X-H torsion
[ 2636 2605 2606 2607 ] final   -8.33 input   41.41 | X-H torsion
[ 26091 26055 26054 26052 ] final  -50.55 input   60.03 | X-H torsion
[ 27194 27136 27135 27131 ] final  -35.68 input   60.01 | X-H torsion
[  729  681  682  683 ] final   53.42 input  102.19 | X-H torsion
[ 7435 7417 7418 7419 ] final  179.75 input   81.33 | X-H torsion
[ 7494 7460 7461 7462 ] final -171.56 input  103.22 | X-H torsion
[ 7528 7515 7516 7517 ] final   78.70 input   88.53 | X-H torsion
[ 17198 17178 17179 17180 ] final  136.25 input   47.40 | X-H torsion
[ 17258 17224 17225 17226 ] final -165.18 input  102.98 | X-H torsion
[ 18298 18277 18278 18279 ] final -138.28 input   30.52 | X-H torsion
[ 18328 18315 18316 18317 ] final   91.59 input   53.77 | X-H torsion
[ 18417 18373 18374 18375 ] final  136.35 input   42.60 | X-H torsion
[ 18502 18463 18464 18465 ] final -136.53 input  104.04 | X-H torsion
[ 18570 18535 18536 18537 ] final  -10.22 input   89.36 | X-H torsion
[ 18510 18474 18473 18471 ] final   63.60 input   60.01 | X-H torsion
[ 17306 17285 17286 17287 ] final   48.62 input   49.80 | X-H torsion
[ 18250 18212 18213 18214 ] final   -0.15 input   46.53 | X-H torsion
[ 18302 18282 18281 18278 ] final -119.15 input   59.98 | X-H torsion
[ 10118 10098 10097 10094 ] final  -26.02 input   59.98 | X-H torsion
[ 17002 16966 16965 16963 ] final   -5.66 input   59.99 | X-H torsion
[ 11499 11466 11467 11468 ] final  174.61 input   46.07 | X-H torsion
[ 11572 11531 11532 11533 ] final   35.03 input  118.20 | X-H torsion
[ 11648 11607 11608 11609 ] final  176.82 input   50.96 | X-H torsion
[ 11438 11418 11417 11414 ] final -164.41 input   60.01 | X-H torsion
[ 27196 27138 27137 27135 ] final -159.54 input   60.02 | X-H torsion
[ 19310 19290 19289 19286 ] final  -79.49 input   60.00 | X-H torsion
[ 10154 10134 10135 10136 ] final  116.88 input   25.69 | X-H torsion
[ 17361 17335 17336 17337 ] final   28.03 input   65.66 | X-H torsion
[ 27200  684  683  682 ] final  -39.76 input    0.00 | X-H torsion
[ 27203 2534 2533 2532 ] final  -56.75 input    0.00 | X-H torsion
[ 27226 7339 7338 7337 ] final -167.92 input    0.00 | X-H torsion
[ 27232 17131 17130 17129 ] final  153.01 input    0.00 | X-H torsion
[ 27236 18215 18214 18213 ] final  -48.36 input    0.00 | X-H torsion
[ 27239 18280 18279 18278 ] final  -96.40 input    0.00 | X-H torsion
[ 27242 18318 18317 18316 ] final  -73.77 input    0.00 | X-H torsion
[ 27245 18376 18375 18374 ] final  158.41 input   -0.00 | X-H torsion
[ 27253 17181 17180 17179 ] final  175.07 input    0.00 | X-H torsion
[ 27255 17058 17057 17056 ] final  166.56 input    0.00 | X-H torsion
[ 27257 17227 17226 17225 ] final -174.81 input   -0.00 | X-H torsion
[ 27267 10137 10136 10135 ] final  176.02 input    0.00 | X-H torsion
[ 27269 11416 11415 11414 ] final -100.53 input    0.00 | X-H torsion
[ 27275 11610 11609 11608 ] final   31.20 input    0.00 | X-H torsion
[ 27284 18693 18692 18691 ] final  139.68 input    0.00 | X-H torsion

> <Gold.Protein.ActiveResidues>
 LYS309  TRP311  GLU314  MET341  HIS342  TRP414  ALA417  ARG419  CYS420  VAL421 
 GLY422  ARG423  SER462  ALA463  SER482  GLN483  LEU484  ILE485  ARG486  ALA502 
 TRP566  TYR567  LEU569  PRO570  ALA571  VAL572  SER573  ASN574  MET575  PHE589 
 SER590  GLY591  TRP592  TYR593  MET594  GLU597  ILE598  ARG601  ASP602  ASP605 
 SER607  ARG608  TRP683  HIS697  GLU699  TYR711  HEM750  H4B760 

> <Gold.Protein.RotatedAtoms>
  247.7507   24.8201   41.2203 H   0  0  0  0  0  0  0  0  0  0  0  0  # atno 581  bound_to 535 
  246.5102   25.4060   42.1509 H   0  0  0  0  0  0  0  0  0  0  0  0  # atno 582  bound_to 535 
  246.3117   24.0014   41.2942 H   0  0  0  0  0  0  0  0  0  0  0  0  # atno 583  bound_to 535 
  245.3993   24.8116   33.5626 H   0  0  0  0  0  0  0  0  0  0  0  0  # atno 729  bound_to 681 
  238.3215   19.4278   38.1184 H   0  0  0  0  0  0  0  0  0  0  0  0  # atno 2566 bound_to 2531
  238.7953   19.4521   40.4350 H   0  0  0  0  0  0  0  0  0  0  0  0  # atno 2636 bound_to 2605
  240.4641    6.4523   36.1950 H   0  0  0  0  0  0  0  0  0  0  0  0  # atno 7435 bound_to 7417
  241.0688    5.2860   32.6731 H   0  0  0  0  0  0  0  0  0  0  0  0  # atno 7494 bound_to 7460
  242.3244    2.3895   33.1249 H   0  0  0  0  0  0  0  0  0  0  0  0  # atno 7528 bound_to 7515
  248.7194   -3.8877   36.1499 H   0  0  0  0  0  0  0  0  0  0  0  0  # atno 10118 bound_to 10098
  250.7875   -4.2215   39.8349 H   0  0  0  0  0  0  0  0  0  0  0  0  # atno 10154 bound_to 10134
  254.3048   13.6320   41.6383 H   0  0  0  0  0  0  0  0  0  0  0  0  # atno 11438 bound_to 11418
  253.8492   10.3285   42.3388 H   0  0  0  0  0  0  0  0  0  0  0  0  # atno 11499 bound_to 11466
  255.9946    6.6290   41.5349 H   0  0  0  0  0  0  0  0  0  0  0  0  # atno 11572 bound_to 11531
  258.4193    5.4669   41.5195 H   0  0  0  0  0  0  0  0  0  0  0  0  # atno 11648 bound_to 11607
  255.8650    8.5035   35.9964 H   0  0  0  0  0  0  0  0  0  0  0  0  # atno 17002 bound_to 16966
  254.4604    3.7834   38.2570 H   0  0  0  0  0  0  0  0  0  0  0  0  # atno 17198 bound_to 17178
  251.5385    5.3793   39.9742 H   0  0  0  0  0  0  0  0  0  0  0  0  # atno 17258 bound_to 17224
  251.6772    7.8770   43.6679 H   0  0  0  0  0  0  0  0  0  0  0  0  # atno 17306 bound_to 17285
  249.9203    8.2335   45.2180 H   0  0  0  0  0  0  0  0  0  0  0  0  # atno 17361 bound_to 17335
  250.8652    2.7369   43.6815 H   0  0  0  0  0  0  0  0  0  0  0  0  # atno 18250 bound_to 18212
  250.2757    1.0540   41.3881 H   0  0  0  0  0  0  0  0  0  0  0  0  # atno 18298 bound_to 18277
  253.2974   -1.4012   40.7585 H   0  0  0  0  0  0  0  0  0  0  0  0  # atno 18302 bound_to 18282
  250.0814    0.8891   37.3208 H   0  0  0  0  0  0  0  0  0  0  0  0  # atno 18328 bound_to 18315
  250.2103   -1.4725   34.0016 H   0  0  0  0  0  0  0  0  0  0  0  0  # atno 18417 bound_to 18373
  251.8385    1.6334   32.3081 H   0  0  0  0  0  0  0  0  0  0  0  0  # atno 18502 bound_to 18463
  254.4733    7.5062   34.4852 H   0  0  0  0  0  0  0  0  0  0  0  0  # atno 18510 bound_to 18474
  250.8685    4.0814   29.3929 H   0  0  0  0  0  0  0  0  0  0  0  0  # atno 18570 bound_to 18535
  252.0732   21.9118   32.5227 H   0  0  0  0  0  0  0  0  0  0  0  0  # atno 19310 bound_to 19290
  243.3500   13.3377   39.5847 H   0  0  0  0  0  0  0  0  0  0  0  0  # atno 26091 bound_to 26055
  244.0543   19.0031   31.8800 H   0  0  0  0  0  0  0  0  0  0  0  0  # atno 27194 bound_to 27136
  239.1978   19.1449   33.5107 H   0  0  0  0  0  0  0  0  0  0  0  0  # atno 27196 bound_to 27138
  249.1038   23.8194   36.0688 LP  0  0  0  0  0  0  0  0  0  0  0  0  # atno 27200 bound_to 684 
  249.7400   23.3050   34.5422 LP  0  0  0  0  0  0  0  0  0  0  0  0  # atno 27201 bound_to 684 
  239.7004   20.4977   38.0302 LP  0  0  0  0  0  0  0  0  0  0  0  0  # atno 27202 bound_to 2531
  239.3784   16.1345   39.7832 LP  0  0  0  0  0  0  0  0  0  0  0  0  # atno 27203 bound_to 2534
  240.5007   16.4749   41.0578 LP  0  0  0  0  0  0  0  0  0  0  0  0  # atno 27204 bound_to 2534
  240.3350   18.6249   40.4619 LP  0  0  0  0  0  0  0  0  0  0  0  0  # atno 27205 bound_to 2605
  241.7295   13.3653   39.7252 LP  0  0  0  0  0  0  0  0  0  0  0  0  # atno 27209 bound_to 26055
  242.5382   11.9515   39.8415 LP  0  0  0  0  0  0  0  0  0  0  0  0  # atno 27210 bound_to 26055
  243.6316   20.4715   32.4407 LP  0  0  0  0  0  0  0  0  0  0  0  0  # atno 27213 bound_to 27136
  242.7942   19.7902   31.2155 LP  0  0  0  0  0  0  0  0  0  0  0  0  # atno 27214 bound_to 27136
  245.0245   25.4415   35.1443 LP  0  0  0  0  0  0  0  0  0  0  0  0  # atno 27215 bound_to 681 
  241.7916    6.9999   33.8049 LP  0  0  0  0  0  0  0  0  0  0  0  0  # atno 27226 bound_to 7339
  241.3790    8.6096   34.2936 LP  0  0  0  0  0  0  0  0  0  0  0  0  # atno 27227 bound_to 7339
  239.3610    5.9789   34.9281 LP  0  0  0  0  0  0  0  0  0  0  0  0  # atno 27228 bound_to 7417
  242.0059    3.8986   33.1835 LP  0  0  0  0  0  0  0  0  0  0  0  0  # atno 27229 bound_to 7460
  241.8459    2.1429   31.4607 LP  0  0  0  0  0  0  0  0  0  0  0  0  # atno 27230 bound_to 7515
  252.1925    2.1719   38.4665 LP  0  0  0  0  0  0  0  0  0  0  0  0  # atno 27232 bound_to 17131
  251.7686    2.4747   36.8147 LP  0  0  0  0  0  0  0  0  0  0  0  0  # atno 27233 bound_to 17131
  253.1094    4.8736   38.0630 LP  0  0  0  0  0  0  0  0  0  0  0  0  # atno 27234 bound_to 17178
  251.6001    4.3267   41.3709 LP  0  0  0  0  0  0  0  0  0  0  0  0  # atno 27235 bound_to 17224
  250.2287    3.1763   41.5430 LP  0  0  0  0  0  0  0  0  0  0  0  0  # atno 27236 bound_to 18215
  251.7161    2.4963   40.9728 LP  0  0  0  0  0  0  0  0  0  0  0  0  # atno 27237 bound_to 18215
  250.2123   -0.6799   41.1869 LP  0  0  0  0  0  0  0  0  0  0  0  0  # atno 27238 bound_to 18277
  250.5715   -2.4971   38.7252 LP  0  0  0  0  0  0  0  0  0  0  0  0  # atno 27239 bound_to 18280
  249.0961   -1.7723   39.2711 LP  0  0  0  0  0  0  0  0  0  0  0  0  # atno 27240 bound_to 18280
  250.9109   -0.4980   37.9928 LP  0  0  0  0  0  0  0  0  0  0  0  0  # atno 27241 bound_to 18315
  252.6584   -0.5038   35.8074 LP  0  0  0  0  0  0  0  0  0  0  0  0  # atno 27242 bound_to 18318
  252.4554   -2.0111   34.9787 LP  0  0  0  0  0  0  0  0  0  0  0  0  # atno 27243 bound_to 18318
  250.0748    0.2153   34.4218 LP  0  0  0  0  0  0  0  0  0  0  0  0  # atno 27244 bound_to 18373
  249.6021    2.4080   31.9316 LP  0  0  0  0  0  0  0  0  0  0  0  0  # atno 27245 bound_to 18376
  249.1042    0.8386   32.4694 LP  0  0  0  0  0  0  0  0  0  0  0  0  # atno 27246 bound_to 18376
  252.1314    0.7854   30.8032 LP  0  0  0  0  0  0  0  0  0  0  0  0  # atno 27247 bound_to 18463
  249.4321    3.1723   29.7998 LP  0  0  0  0  0  0  0  0  0  0  0  0  # atno 27248 bound_to 18535
  253.2379    6.6818   41.6754 LP  0  0  0  0  0  0  0  0  0  0  0  0  # atno 27253 bound_to 17181
  254.5030    5.6453   41.1050 LP  0  0  0  0  0  0  0  0  0  0  0  0  # atno 27254 bound_to 17181
  256.1734    4.5105   37.0579 LP  0  0  0  0  0  0  0  0  0  0  0  0  # atno 27255 bound_to 17058
  257.4837    3.4241   37.3788 LP  0  0  0  0  0  0  0  0  0  0  0  0  # atno 27256 bound_to 17058
  250.7038    4.7486   44.7279 LP  0  0  0  0  0  0  0  0  0  0  0  0  # atno 27257 bound_to 17227
  250.3385    4.1868   43.1308 LP  0  0  0  0  0  0  0  0  0  0  0  0  # atno 27258 bound_to 17227
  255.0180    8.3529   33.2068 LP  0  0  0  0  0  0  0  0  0  0  0  0  # atno 27259 bound_to 18474
  255.9833    7.2543   33.9335 LP  0  0  0  0  0  0  0  0  0  0  0  0  # atno 27260 bound_to 18474
  251.1471    6.2258   43.4697 LP  0  0  0  0  0  0  0  0  0  0  0  0  # atno 27261 bound_to 17285
  249.9196    1.9691   44.9331 LP  0  0  0  0  0  0  0  0  0  0  0  0  # atno 27262 bound_to 18212
  253.3564   -1.7193   39.1640 LP  0  0  0  0  0  0  0  0  0  0  0  0  # atno 27263 bound_to 18282
  251.9339   -1.7937   39.9624 LP  0  0  0  0  0  0  0  0  0  0  0  0  # atno 27264 bound_to 18282
  247.1013   -3.9177   36.3206 LP  0  0  0  0  0  0  0  0  0  0  0  0  # atno 27265 bound_to 10098
  247.9042   -5.2706   35.8827 LP  0  0  0  0  0  0  0  0  0  0  0  0  # atno 27266 bound_to 10098
  249.5588   -1.2821   42.8148 LP  0  0  0  0  0  0  0  0  0  0  0  0  # atno 27267 bound_to 10137
  250.1157   -1.9224   41.3049 LP  0  0  0  0  0  0  0  0  0  0  0  0  # atno 27268 bound_to 10137
  252.1638    8.7865   43.5491 LP  0  0  0  0  0  0  0  0  0  0  0  0  # atno 27269 bound_to 11416
  251.7422    9.9239   42.3127 LP  0  0  0  0  0  0  0  0  0  0  0  0  # atno 27270 bound_to 11416
  256.6645    9.6736   35.1969 LP  0  0  0  0  0  0  0  0  0  0  0  0  # atno 27271 bound_to 16966
  256.9306    9.4419   36.7913 LP  0  0  0  0  0  0  0  0  0  0  0  0  # atno 27272 bound_to 16966
  255.2363   10.0263   43.3642 LP  0  0  0  0  0  0  0  0  0  0  0  0  # atno 27273 bound_to 11466
  255.3633    6.7277   43.1610 LP  0  0  0  0  0  0  0  0  0  0  0  0  # atno 27274 bound_to 11531
  257.5256    7.2632   38.5758 LP  0  0  0  0  0  0  0  0  0  0  0  0  # atno 27275 bound_to 11610
  258.3903    8.4291   37.6309 LP  0  0  0  0  0  0  0  0  0  0  0  0  # atno 27276 bound_to 11610
  257.5618    6.8789   40.9506 LP  0  0  0  0  0  0  0  0  0  0  0  0  # atno 27279 bound_to 11607
  254.0285   12.0574   41.3354 LP  0  0  0  0  0  0  0  0  0  0  0  0  # atno 27282 bound_to 11418
  255.2006   12.4967   42.3842 LP  0  0  0  0  0  0  0  0  0  0  0  0  # atno 27283 bound_to 11418
  253.3007   11.3437   30.0338 LP  0  0  0  0  0  0  0  0  0  0  0  0  # atno 27284 bound_to 18693
  251.7978   12.0176   29.4979 LP  0  0  0  0  0  0  0  0  0  0  0  0  # atno 27285 bound_to 18693

> <Gold.Score>
     Fitness  S(hb_ext) S(vdw_ext)  S(hb_int)    S(int)      intcor
     35.29       8.23      21.93       0.00      -3.09      -0.76

> <Gold.Goldscore.Fitness>
35.2933

> <Gold.Goldscore.Internal.Vdw>
-3.1386

> <Gold.Goldscore.Internal.Torsion>
-0.7079

> <Gold.Goldscore.External.Vdw>
21.9273

> <Gold.Goldscore.Internal.HBond>
0.0000

> <Gold.Goldscore.External.HBond>
8.2312

> <Gold.Goldscore.Internal.Correction>
-0.7585

> <Gold.Goldscore.Hbonds>
donor molecule, donor type, donor heavy atom, donor atom, acceptor molecule, acceptor atom, score
      P1  H 17224 17258       L1    11  0.16
      P1  H 18474 18510       L1    17  0.33
      P1  H 16966 17002       L1    17  0.82
      L1  H    10    23       P1 17178  0.93

> <Gold.Goldscore.Internal.Vdw.Weighted>
-3.1386

> <Gold.Goldscore.Internal.Torsion.Weighted>
-0.7079

> <Gold.Goldscore.External.Vdw.Weighted>
30.1500

> <Gold.Goldscore.Internal.HBond.Weighted>
0.0000

> <Gold.Goldscore.External.HBond.Weighted>
8.2312

> <Gold.Goldscore.Internal.Correction.Weighted>
-0.7585

> <Gold.Rescore>
     Score     S(PLP)   S(hbond)     S(cho)   S(metal)  DE(clash)   DE(tors)     intcor
     21.40     -12.59       3.59       0.00       0.00       0.06       0.94       ----

> <Gold.PLP.Fitness>
21.3994

> <Gold.PLP.PLP>
-12.5867

> <Gold.PLP.part.hbond>
-5.5386

> <Gold.PLP.part.metal>
0.0000

> <Gold.PLP.part.buried>
12.1568

> <Gold.PLP.part.nonpolar>
-28.3995

> <Gold.PLP.part.repulsive>
6.7623

> <Gold.PLP.ligand.clash>
0.0585

> <Gold.PLP.ligand.torsion>
0.9439

> <Gold.PLP.Chemscore.Hbond>
3.5864

> <Gold.PLP.Chemscore.CHOScore>
0.0000

> <Gold.PLP.Chemscore.Metal>
0.0000

> <Gold.Chemscore.Hbonds>
donor molecule, donor type, donor heavy atom, donor atom, acceptor molecule, acceptor atom, score
      L1  H    10    23       P1 17178  0.89
      P1  H 17224 17258       L1    11  0.63
      P1  H 18474 18510       L1    17  0.53
      P1  H 16966 17002       L1    17  1.00

> <Gold.PLP.Chemscore.Internal.Correction>
   9.000000E+99

