#       Name:                CT1002167954
#       Creating user name   hitesit
#       Creation time:       Sun Apr 16 20:31:12 2023


#       File generated by GOLD software.
#

@<TRIPOS>MOLECULE
CT1002167954|ligand_prepared|mol2|1|dock2
    29    30     1
SMALL
NO_CHARGES


@<TRIPOS>ATOM
      1 C1         249.9970   8.2597  36.1464 C.3            1 RES1               0.0000
      2 C2         249.5331   6.9191  35.5413 C.ar           1 RES1               0.0000
      3 C3         251.3021   7.9691  36.8817 C.2            1 RES1               0.0000
      4 C4         250.1438   9.2274  34.9773 C.2            1 RES1               0.0000
      5 C5         248.9934   8.8725  37.1507 C.3            1 RES1               0.0000
      6 C6         248.2805   6.3976  35.8509 C.ar           1 RES1               0.0000
      7 C7         250.3440   6.1950  34.6714 C.ar           1 RES1               0.0000
      8 N8         252.4606   8.4041  36.3084 N.am           1 RES1               0.0000
      9 O9         251.3178   7.3335  37.9285 O.2            1 RES1               0.0000
     10 N10        251.3998   9.6854  34.6767 N.am           1 RES1               0.0000
     11 O11        249.1853   9.5844  34.3033 O.2            1 RES1               0.0000
     12 C12        249.4943  10.1423  37.8207 C.3            1 RES1               0.0000
     13 C13        247.8528   5.1972  35.3083 C.ar           1 RES1               0.0000
     14 C14        249.9144   4.9946  34.1300 C.ar           1 RES1               0.0000
     15 C15        252.5689   9.2936  35.2699 C.2            1 RES1               0.0000
     16 C16        248.6691   4.4951  34.4472 C.ar           1 RES1               0.0000
     17 O17        253.6657   9.7095  34.9076 O.2            1 RES1               0.0000
     18 H18        248.0583   9.0971  36.6229 H              1 RES1               0.0000
     19 H19        248.7706   8.1287  37.9257 H              1 RES1               0.0000
     20 H20        247.6253   6.9347  36.5286 H              1 RES1               0.0000
     21 H21        251.3280   6.5681  34.4085 H              1 RES1               0.0000
     22 H22        253.3265   8.0336  36.6869 H              1 RES1               0.0000
     23 H23        251.4697  10.3830  33.9427 H              1 RES1               0.0000
     24 H24        248.7522  10.5306  38.5151 H              1 RES1               0.0000
     25 H25        250.4101   9.9500  38.3759 H              1 RES1               0.0000
     26 H26        249.7019  10.9126  37.0808 H              1 RES1               0.0000
     27 H27        246.8725   4.8077  35.5622 H              1 RES1               0.0000
     28 H28        250.5604   4.4451  33.4533 H              1 RES1               0.0000
     29 H29        248.3337   3.5550  34.0220 H              1 RES1               0.0000
@<TRIPOS>BOND
    1    1    2 1     
    2    1    3 1     
    3    1    4 1     
    4    1    5 1     
    5    2    6 ar    
    6    2    7 ar    
    7    3    8 1     
    8    3    9 2     
    9    4   10 1     
   10    4   11 2     
   11    5   12 1     
   12    5   18 1     
   13    5   19 1     
   14    6   13 ar    
   15    6   20 1     
   16    7   14 ar    
   17    7   21 1     
   18    8   15 1     
   19    8   22 1     
   20   10   15 1     
   21   10   23 1     
   22   12   24 1     
   23   12   25 1     
   24   12   26 1     
   25   13   16 ar    
   26   13   27 1     
   27   14   16 ar    
   28   14   28 1     
   29   15   17 2     
   30   16   29 1     
@<TRIPOS>SUBSTRUCTURE
      1 RES1           1
@<TRIPOS>SET
DONOR_HYDROGENS      STATIC     ATOMS    <user>   **** ""
2 22 23
ATOM$RED        STATIC     ATOMS    COLORGROUP SYSTEM
2 22 23
@<TRIPOS>COMMENT
> <Gold.Version>
2022.3.0

> <Gold.Id.Protein>
unknown|4v3u_clean|pdb

> <Gold.Protein.RotatedTorsions>
[  581  535  534  533 ] final  173.87 input   59.97 | X-H torsion
[ 2566 2531 2532 2533 ] final  -61.84 input  112.83 | X-H torsion
[ 2636 2605 2606 2607 ] final  162.07 input   41.41 | X-H torsion
[ 26091 26055 26054 26052 ] final -106.22 input   60.03 | X-H torsion
[ 27194 27136 27135 27131 ] final  -29.61 input   60.01 | X-H torsion
[  729  681  682  683 ] final    1.93 input  102.19 | X-H torsion
[ 7435 7417 7418 7419 ] final   76.36 input   81.33 | X-H torsion
[ 7494 7460 7461 7462 ] final -166.27 input  103.22 | X-H torsion
[ 7528 7515 7516 7517 ] final -148.99 input   88.53 | X-H torsion
[ 17198 17178 17179 17180 ] final -126.81 input   47.40 | X-H torsion
[ 17258 17224 17225 17226 ] final  103.85 input  102.98 | X-H torsion
[ 18298 18277 18278 18279 ] final -159.25 input   30.52 | X-H torsion
[ 18328 18315 18316 18317 ] final   43.90 input   53.77 | X-H torsion
[ 18417 18373 18374 18375 ] final  -88.43 input   42.60 | X-H torsion
[ 18502 18463 18464 18465 ] final   74.03 input  104.04 | X-H torsion
[ 18570 18535 18536 18537 ] final   88.73 input   89.36 | X-H torsion
[ 18510 18474 18473 18471 ] final  -17.82 input   60.01 | X-H torsion
[ 17306 17285 17286 17287 ] final  -28.17 input   49.80 | X-H torsion
[ 18250 18212 18213 18214 ] final  -51.62 input   46.53 | X-H torsion
[ 18302 18282 18281 18278 ] final   64.91 input   59.98 | X-H torsion
[ 10118 10098 10097 10094 ] final  167.87 input   59.98 | X-H torsion
[ 17002 16966 16965 16963 ] final    6.98 input   59.99 | X-H torsion
[ 11499 11466 11467 11468 ] final   48.56 input   46.07 | X-H torsion
[ 11572 11531 11532 11533 ] final   -7.60 input  118.20 | X-H torsion
[ 11648 11607 11608 11609 ] final -106.55 input   50.96 | X-H torsion
[ 11438 11418 11417 11414 ] final  -49.38 input   60.01 | X-H torsion
[ 27196 27138 27137 27135 ] final  174.70 input   60.02 | X-H torsion
[ 19310 19290 19289 19286 ] final  -59.26 input   60.00 | X-H torsion
[ 10154 10134 10135 10136 ] final   10.61 input   25.69 | X-H torsion
[ 17361 17335 17336 17337 ] final  -78.46 input   65.66 | X-H torsion
[ 27200  684  683  682 ] final  -74.69 input    0.00 | X-H torsion
[ 27203 2534 2533 2532 ] final -114.22 input    0.00 | X-H torsion
[ 27226 7339 7338 7337 ] final  170.39 input    0.00 | X-H torsion
[ 27232 17131 17130 17129 ] final   61.66 input    0.00 | X-H torsion
[ 27236 18215 18214 18213 ] final   65.31 input    0.00 | X-H torsion
[ 27239 18280 18279 18278 ] final -106.26 input    0.00 | X-H torsion
[ 27242 18318 18317 18316 ] final  -61.56 input    0.00 | X-H torsion
[ 27245 18376 18375 18374 ] final -125.68 input   -0.00 | X-H torsion
[ 27253 17181 17180 17179 ] final -105.90 input    0.00 | X-H torsion
[ 27255 17058 17057 17056 ] final   31.63 input    0.00 | X-H torsion
[ 27257 17227 17226 17225 ] final   87.00 input   -0.00 | X-H torsion
[ 27267 10137 10136 10135 ] final -173.01 input    0.00 | X-H torsion
[ 27269 11416 11415 11414 ] final  -68.74 input    0.00 | X-H torsion
[ 27275 11610 11609 11608 ] final    8.75 input    0.00 | X-H torsion
[ 27284 18693 18692 18691 ] final   88.53 input    0.00 | X-H torsion

> <Gold.Protein.ActiveResidues>
 LYS309  TRP311  GLU314  MET341  HIS342  TRP414  ALA417  ARG419  CYS420  VAL421 
 GLY422  ARG423  SER462  ALA463  SER482  GLN483  LEU484  ILE485  ARG486  ALA502 
 TRP566  TYR567  LEU569  PRO570  ALA571  VAL572  SER573  ASN574  MET575  PHE589 
 SER590  GLY591  TRP592  TYR593  MET594  GLU597  ILE598  ARG601  ASP602  ASP605 
 SER607  ARG608  TRP683  HIS697  GLU699  TYR711  HEM750  H4B760 

> <Gold.Protein.RotatedAtoms>
  247.7126   25.1636   41.4673 H   0  0  0  0  0  0  0  0  0  0  0  0  # atno 581  bound_to 535 
  246.1850   25.1357   42.1107 H   0  0  0  0  0  0  0  0  0  0  0  0  # atno 582  bound_to 535 
  246.6755   23.9282   41.0873 H   0  0  0  0  0  0  0  0  0  0  0  0  # atno 583  bound_to 535 
  245.7702   25.4448   33.7624 H   0  0  0  0  0  0  0  0  0  0  0  0  # atno 729  bound_to 681 
  238.3190   19.4329   38.1367 H   0  0  0  0  0  0  0  0  0  0  0  0  # atno 2566 bound_to 2531
  240.4083   18.7444   40.5090 H   0  0  0  0  0  0  0  0  0  0  0  0  # atno 2636 bound_to 2605
  239.4568    5.5512   35.9172 H   0  0  0  0  0  0  0  0  0  0  0  0  # atno 7435 bound_to 7417
  241.0042    5.2511   32.7099 H   0  0  0  0  0  0  0  0  0  0  0  0  # atno 7494 bound_to 7460
  242.4946    2.4204   31.5123 H   0  0  0  0  0  0  0  0  0  0  0  0  # atno 7528 bound_to 7515
  247.0145   -4.6282   36.1499 H   0  0  0  0  0  0  0  0  0  0  0  0  # atno 10118 bound_to 10098
  249.8340   -3.2192   40.1227 H   0  0  0  0  0  0  0  0  0  0  0  0  # atno 10154 bound_to 10134
  255.2053   12.5778   42.3942 H   0  0  0  0  0  0  0  0  0  0  0  0  # atno 11438 bound_to 11418
  255.4056   10.3479   42.6568 H   0  0  0  0  0  0  0  0  0  0  0  0  # atno 11499 bound_to 11466
  256.1920    7.1637   41.8297 H   0  0  0  0  0  0  0  0  0  0  0  0  # atno 11572 bound_to 11531
  258.4130    6.4748   41.9465 H   0  0  0  0  0  0  0  0  0  0  0  0  # atno 11648 bound_to 11607
  255.9134    8.4914   36.1964 H   0  0  0  0  0  0  0  0  0  0  0  0  # atno 17002 bound_to 16966
  253.2178    3.7491   37.8076 H   0  0  0  0  0  0  0  0  0  0  0  0  # atno 17198 bound_to 17178
  250.7443    4.5570   40.5220 H   0  0  0  0  0  0  0  0  0  0  0  0  # atno 17258 bound_to 17224
  250.6776    7.4620   43.8205 H   0  0  0  0  0  0  0  0  0  0  0  0  # atno 17306 bound_to 17285
  250.6242    7.7026   46.3255 H   0  0  0  0  0  0  0  0  0  0  0  0  # atno 17361 bound_to 17335
  251.2266    2.1979   44.0877 H   0  0  0  0  0  0  0  0  0  0  0  0  # atno 18250 bound_to 18212
  250.5587    0.9701   41.5148 H   0  0  0  0  0  0  0  0  0  0  0  0  # atno 18298 bound_to 18277
  252.4881   -1.8668   39.1376 H   0  0  0  0  0  0  0  0  0  0  0  0  # atno 18302 bound_to 18282
  250.7569    0.8126   37.0863 H   0  0  0  0  0  0  0  0  0  0  0  0  # atno 18328 bound_to 18315
  250.5455   -0.0882   34.7798 H   0  0  0  0  0  0  0  0  0  0  0  0  # atno 18417 bound_to 18373
  252.5548    0.9481   30.8996 H   0  0  0  0  0  0  0  0  0  0  0  0  # atno 18502 bound_to 18463
  254.5071    8.2966   33.5551 H   0  0  0  0  0  0  0  0  0  0  0  0  # atno 18510 bound_to 18474
  249.6553    4.2773   29.9394 H   0  0  0  0  0  0  0  0  0  0  0  0  # atno 18570 bound_to 18535
  252.3211   21.7197   32.4241 H   0  0  0  0  0  0  0  0  0  0  0  0  # atno 19310 bound_to 19290
  242.6148   13.8099   39.5880 H   0  0  0  0  0  0  0  0  0  0  0  0  # atno 26091 bound_to 26055
  244.0004   18.9660   31.8055 H   0  0  0  0  0  0  0  0  0  0  0  0  # atno 27194 bound_to 27136
  239.2559   19.4658   33.7712 H   0  0  0  0  0  0  0  0  0  0  0  0  # atno 27196 bound_to 27138
  249.3914   24.2092   35.8803 LP  0  0  0  0  0  0  0  0  0  0  0  0  # atno 27200 bound_to 684 
  249.4524   22.9151   34.7307 LP  0  0  0  0  0  0  0  0  0  0  0  0  # atno 27201 bound_to 684 
  239.7028   20.4928   38.0123 LP  0  0  0  0  0  0  0  0  0  0  0  0  # atno 27202 bound_to 2531
  239.0827   16.2915   40.5456 LP  0  0  0  0  0  0  0  0  0  0  0  0  # atno 27203 bound_to 2534
  240.7963   16.3179   40.2953 LP  0  0  0  0  0  0  0  0  0  0  0  0  # atno 27204 bound_to 2534
  238.7606   19.3157   40.3896 LP  0  0  0  0  0  0  0  0  0  0  0  0  # atno 27205 bound_to 2605
  241.6935   12.4939   39.8453 LP  0  0  0  0  0  0  0  0  0  0  0  0  # atno 27209 bound_to 26055
  243.3149   12.3472   39.7180 LP  0  0  0  0  0  0  0  0  0  0  0  0  # atno 27210 bound_to 26055
  243.7081   20.4191   32.4779 LP  0  0  0  0  0  0  0  0  0  0  0  0  # atno 27213 bound_to 27136
  242.7720   19.8799   31.2533 LP  0  0  0  0  0  0  0  0  0  0  0  0  # atno 27214 bound_to 27136
  244.6568   24.8138   34.9462 LP  0  0  0  0  0  0  0  0  0  0  0  0  # atno 27215 bound_to 681 
  241.9840    7.0361   34.0655 LP  0  0  0  0  0  0  0  0  0  0  0  0  # atno 27226 bound_to 7339
  241.1866    8.5734   34.0330 LP  0  0  0  0  0  0  0  0  0  0  0  0  # atno 27227 bound_to 7339
  240.3533    6.8666   35.2018 LP  0  0  0  0  0  0  0  0  0  0  0  0  # atno 27228 bound_to 7417
  242.0683    3.9323   33.1480 LP  0  0  0  0  0  0  0  0  0  0  0  0  # atno 27229 bound_to 7460
  241.6803    2.1129   33.0294 LP  0  0  0  0  0  0  0  0  0  0  0  0  # atno 27230 bound_to 7515
  252.5519    1.7339   37.3646 LP  0  0  0  0  0  0  0  0  0  0  0  0  # atno 27232 bound_to 17131
  251.4092    2.9127   37.9166 LP  0  0  0  0  0  0  0  0  0  0  0  0  # atno 27233 bound_to 17131
  254.3255    4.9072   38.5028 LP  0  0  0  0  0  0  0  0  0  0  0  0  # atno 27234 bound_to 17178
  252.3694    5.1231   40.8403 LP  0  0  0  0  0  0  0  0  0  0  0  0  # atno 27235 bound_to 17224
  251.5839    2.7767   41.8682 LP  0  0  0  0  0  0  0  0  0  0  0  0  # atno 27236 bound_to 18215
  250.3609    2.8959   40.6476 LP  0  0  0  0  0  0  0  0  0  0  0  0  # atno 27237 bound_to 18215
  249.9351   -0.5977   41.0629 LP  0  0  0  0  0  0  0  0  0  0  0  0  # atno 27238 bound_to 18277
  250.5015   -2.5105   38.5945 LP  0  0  0  0  0  0  0  0  0  0  0  0  # atno 27239 bound_to 18280
  249.1661   -1.7589   39.4017 LP  0  0  0  0  0  0  0  0  0  0  0  0  # atno 27240 bound_to 18280
  250.2571   -0.4240   38.2197 LP  0  0  0  0  0  0  0  0  0  0  0  0  # atno 27241 bound_to 18315
  252.6054   -0.6003   35.9550 LP  0  0  0  0  0  0  0  0  0  0  0  0  # atno 27242 bound_to 18318
  252.5084   -1.9146   34.8311 LP  0  0  0  0  0  0  0  0  0  0  0  0  # atno 27243 bound_to 18318
  249.7437   -1.1519   33.6532 LP  0  0  0  0  0  0  0  0  0  0  0  0  # atno 27244 bound_to 18373
  249.2669    1.5883   31.3395 LP  0  0  0  0  0  0  0  0  0  0  0  0  # atno 27245 bound_to 18376
  249.4394    1.6583   33.0615 LP  0  0  0  0  0  0  0  0  0  0  0  0  # atno 27246 bound_to 18376
  251.4422    1.4448   32.1584 LP  0  0  0  0  0  0  0  0  0  0  0  0  # atno 27247 bound_to 18463
  250.6158    2.9812   29.2666 LP  0  0  0  0  0  0  0  0  0  0  0  0  # atno 27248 bound_to 18535
  253.7420    5.8447   42.1850 LP  0  0  0  0  0  0  0  0  0  0  0  0  # atno 27253 bound_to 17181
  253.9989    6.4824   40.5953 LP  0  0  0  0  0  0  0  0  0  0  0  0  # atno 27254 bound_to 17181
  257.5917    3.8020   36.8438 LP  0  0  0  0  0  0  0  0  0  0  0  0  # atno 27255 bound_to 17058
  256.0654    4.1327   37.5929 LP  0  0  0  0  0  0  0  0  0  0  0  0  # atno 27256 bound_to 17058
  251.2985    4.1404   43.7329 LP  0  0  0  0  0  0  0  0  0  0  0  0  # atno 27257 bound_to 17227
  249.7438    4.7950   44.1258 LP  0  0  0  0  0  0  0  0  0  0  0  0  # atno 27258 bound_to 17227
  256.0005    7.6574   33.4591 LP  0  0  0  0  0  0  0  0  0  0  0  0  # atno 27259 bound_to 18474
  254.9666    7.1535   34.6183 LP  0  0  0  0  0  0  0  0  0  0  0  0  # atno 27260 bound_to 18474
  252.1303    6.6339   43.3197 LP  0  0  0  0  0  0  0  0  0  0  0  0  # atno 27261 bound_to 17285
  249.5651    2.4978   44.5346 LP  0  0  0  0  0  0  0  0  0  0  0  0  # atno 27262 bound_to 18212
  252.3165   -1.5737   40.7287 LP  0  0  0  0  0  0  0  0  0  0  0  0  # atno 27263 bound_to 18282
  253.7891   -1.4704   40.0305 LP  0  0  0  0  0  0  0  0  0  0  0  0  # atno 27264 bound_to 18282
  248.5815   -4.9765   35.8827 LP  0  0  0  0  0  0  0  0  0  0  0  0  # atno 27265 bound_to 10098
  248.1410   -3.4662   36.3206 LP  0  0  0  0  0  0  0  0  0  0  0  0  # atno 27266 bound_to 10098
  249.7199   -1.2683   42.8502 LP  0  0  0  0  0  0  0  0  0  0  0  0  # atno 27267 bound_to 10137
  249.9545   -1.9362   41.2694 LP  0  0  0  0  0  0  0  0  0  0  0  0  # atno 27268 bound_to 10137
  251.9403    9.1417   43.7701 LP  0  0  0  0  0  0  0  0  0  0  0  0  # atno 27269 bound_to 11416
  251.9657    9.5686   42.0917 LP  0  0  0  0  0  0  0  0  0  0  0  0  # atno 27270 bound_to 11416
  256.5247    9.5432   35.1158 LP  0  0  0  0  0  0  0  0  0  0  0  0  # atno 27271 bound_to 16966
  257.0215    9.5844   36.6709 LP  0  0  0  0  0  0  0  0  0  0  0  0  # atno 27272 bound_to 16966
  253.7353   10.0076   43.0575 LP  0  0  0  0  0  0  0  0  0  0  0  0  # atno 27273 bound_to 11466
  255.1700    6.2041   42.8724 LP  0  0  0  0  0  0  0  0  0  0  0  0  # atno 27274 bound_to 11531
  257.7176    7.0630   38.3843 LP  0  0  0  0  0  0  0  0  0  0  0  0  # atno 27275 bound_to 11610
  258.1982    8.6293   37.8224 LP  0  0  0  0  0  0  0  0  0  0  0  0  # atno 27276 bound_to 11610
  257.5679    5.8922   40.5326 LP  0  0  0  0  0  0  0  0  0  0  0  0  # atno 27279 bound_to 11607
  254.2470   13.6132   41.5836 LP  0  0  0  0  0  0  0  0  0  0  0  0  # atno 27282 bound_to 11418
  254.0751   12.0029   41.3745 LP  0  0  0  0  0  0  0  0  0  0  0  0  # atno 27283 bound_to 11418
  252.7270   11.2715   30.5082 LP  0  0  0  0  0  0  0  0  0  0  0  0  # atno 27284 bound_to 18693
  252.3715   12.0898   29.0236 LP  0  0  0  0  0  0  0  0  0  0  0  0  # atno 27285 bound_to 18693

> <Gold.Score>
     Fitness  S(hb_ext) S(vdw_ext)  S(hb_int)    S(int)      intcor
     40.36       1.36      29.01       0.00      -0.90      -0.76

> <Gold.Goldscore.Fitness>
40.3583

> <Gold.Goldscore.Internal.Vdw>
-1.2576

> <Gold.Goldscore.Internal.Torsion>
-0.3965

> <Gold.Goldscore.External.Vdw>
29.0116

> <Gold.Goldscore.Internal.HBond>
0.0000

> <Gold.Goldscore.External.HBond>
1.3629

> <Gold.Goldscore.Internal.Correction>
-0.7585

> <Gold.Goldscore.Hbonds>
donor molecule, donor type, donor heavy atom, donor atom, acceptor molecule, acceptor atom, score
      P1  H 11473 11505       L1    17  0.01
      P1  H 18474 18510       L1    17  0.04
      L1  H     8    22       P1 11474  0.21

> <Gold.Goldscore.Internal.Vdw.Weighted>
-1.2576

> <Gold.Goldscore.Internal.Torsion.Weighted>
-0.3965

> <Gold.Goldscore.External.Vdw.Weighted>
39.8909

> <Gold.Goldscore.Internal.HBond.Weighted>
0.0000

> <Gold.Goldscore.External.HBond.Weighted>
1.3629

> <Gold.Goldscore.Internal.Correction.Weighted>
-0.7585

> <Gold.Rescore>
     Score     S(PLP)   S(hbond)     S(cho)   S(metal)  DE(clash)   DE(tors)     intcor
     33.45     -29.62       1.30       0.00       0.00       0.00       0.03       ----

> <Gold.PLP.Fitness>
33.4463

> <Gold.PLP.PLP>
-29.6229

> <Gold.PLP.part.hbond>
-3.6335

> <Gold.PLP.part.metal>
0.0000

> <Gold.PLP.part.buried>
11.3918

> <Gold.PLP.part.nonpolar>
-43.7058

> <Gold.PLP.part.repulsive>
3.8333

> <Gold.PLP.ligand.clash>
0.0000

> <Gold.PLP.ligand.torsion>
0.0323

> <Gold.PLP.Chemscore.Hbond>
1.2960

> <Gold.PLP.Chemscore.CHOScore>
0.0000

> <Gold.PLP.Chemscore.Metal>
0.0000

> <Gold.Chemscore.Hbonds>
donor molecule, donor type, donor heavy atom, donor atom, acceptor molecule, acceptor atom, score
      L1  H     8    22       P1 11474  0.70
      P1  H 11473 11505       L1    17  0.07
      P1  H 18474 18510       L1    17  0.62

> <Gold.PLP.Chemscore.Internal.Correction>
   9.000000E+99

