#       Name:                CT1002167954
#       Creating user name   hitesit
#       Creation time:       Sun Apr 16 20:31:15 2023


#       File generated by GOLD software.
#

@<TRIPOS>MOLECULE
CT1002167954|ligand_prepared|mol2|1|dock5
    29    30     1
SMALL
NO_CHARGES


@<TRIPOS>ATOM
      1 C1         250.5485  11.8685  34.5425 C.3            1 RES1               0.0000
      2 C2         250.2654  12.7746  35.7581 C.ar           1 RES1               0.0000
      3 C3         252.0452  11.9773  34.2663 C.2            1 RES1               0.0000
      4 C4         250.0888  10.4693  34.9371 C.2            1 RES1               0.0000
      5 C5         249.7819  12.2804  33.2641 C.3            1 RES1               0.0000
      6 C6         251.1899  12.8815  36.7928 C.ar           1 RES1               0.0000
      7 C7         249.0876  13.5104  35.8574 C.ar           1 RES1               0.0000
      8 N8         252.8292  10.9140  34.6050 N.am           1 RES1               0.0000
      9 O9         252.5356  12.9960  33.7951 O.2            1 RES1               0.0000
     10 N10        251.0401   9.4900  35.0538 N.am           1 RES1               0.0000
     11 O11        248.9135  10.2100  35.1642 O.2            1 RES1               0.0000
     12 C12        250.1786  11.4873  32.0289 C.3            1 RES1               0.0000
     13 C13        250.9471  13.6967  37.8858 C.ar           1 RES1               0.0000
     14 C14        248.8467  14.3249  36.9515 C.ar           1 RES1               0.0000
     15 C15        252.3932   9.6561  34.9356 C.2            1 RES1               0.0000
     16 C16        249.7757  14.4192  37.9658 C.ar           1 RES1               0.0000
     17 O17        253.1894   8.7379  35.1085 O.2            1 RES1               0.0000
     18 H18        248.7071  12.1478  33.4388 H              1 RES1               0.0000
     19 H19        249.9615  13.3455  33.0725 H              1 RES1               0.0000
     20 H20        252.1163  12.3185  36.7485 H              1 RES1               0.0000
     21 H21        248.3419  13.4509  35.0719 H              1 RES1               0.0000
     22 H22        253.8324  11.0684  34.6132 H              1 RES1               0.0000
     23 H23        250.7090   8.5500  35.2465 H              1 RES1               0.0000
     24 H24        249.6112  11.8161  31.1608 H              1 RES1               0.0000
     25 H25        251.2367  11.6164  31.8110 H              1 RES1               0.0000
     26 H26        249.9897  10.4258  32.1751 H              1 RES1               0.0000
     27 H27        251.6809  13.7664  38.6820 H              1 RES1               0.0000
     28 H28        247.9231  14.8912  37.0106 H              1 RES1               0.0000
     29 H29        249.5860  15.0580  38.8220 H              1 RES1               0.0000
@<TRIPOS>BOND
    1    1    2 1     
    2    1    3 1     
    3    1    4 1     
    4    1    5 1     
    5    2    6 ar    
    6    2    7 ar    
    7    3    8 1     
    8    3    9 2     
    9    4   10 1     
   10    4   11 2     
   11    5   12 1     
   12    5   18 1     
   13    5   19 1     
   14    6   13 ar    
   15    6   20 1     
   16    7   14 ar    
   17    7   21 1     
   18    8   15 1     
   19    8   22 1     
   20   10   15 1     
   21   10   23 1     
   22   12   24 1     
   23   12   25 1     
   24   12   26 1     
   25   13   16 ar    
   26   13   27 1     
   27   14   16 ar    
   28   14   28 1     
   29   15   17 2     
   30   16   29 1     
@<TRIPOS>SUBSTRUCTURE
      1 RES1           1
@<TRIPOS>SET
DONOR_HYDROGENS      STATIC     ATOMS    <user>   **** ""
2 22 23
ATOM$RED        STATIC     ATOMS    COLORGROUP SYSTEM
2 22 23
@<TRIPOS>COMMENT
> <Gold.Version>
2022.3.0

> <Gold.Id.Protein>
unknown|4v3u_clean|pdb

> <Gold.Protein.RotatedTorsions>
[  581  535  534  533 ] final  -86.27 input   59.97 | X-H torsion
[ 2566 2531 2532 2533 ] final   14.61 input  112.83 | X-H torsion
[ 2636 2605 2606 2607 ] final -158.68 input   41.41 | X-H torsion
[ 26091 26055 26054 26052 ] final  145.44 input   60.03 | X-H torsion
[ 27194 27136 27135 27131 ] final   28.75 input   60.01 | X-H torsion
[  729  681  682  683 ] final -152.25 input  102.19 | X-H torsion
[ 7435 7417 7418 7419 ] final  -90.59 input   81.33 | X-H torsion
[ 7494 7460 7461 7462 ] final  126.63 input  103.22 | X-H torsion
[ 7528 7515 7516 7517 ] final  -60.73 input   88.53 | X-H torsion
[ 17198 17178 17179 17180 ] final -159.58 input   47.40 | X-H torsion
[ 17258 17224 17225 17226 ] final  176.91 input  102.98 | X-H torsion
[ 18298 18277 18278 18279 ] final  176.30 input   30.52 | X-H torsion
[ 18328 18315 18316 18317 ] final  101.07 input   53.77 | X-H torsion
[ 18417 18373 18374 18375 ] final  -35.35 input   42.60 | X-H torsion
[ 18502 18463 18464 18465 ] final -129.81 input  104.04 | X-H torsion
[ 18570 18535 18536 18537 ] final  140.58 input   89.36 | X-H torsion
[ 18510 18474 18473 18471 ] final   16.27 input   60.01 | X-H torsion
[ 17306 17285 17286 17287 ] final  146.37 input   49.80 | X-H torsion
[ 18250 18212 18213 18214 ] final   57.25 input   46.53 | X-H torsion
[ 18302 18282 18281 18278 ] final  -79.61 input   59.98 | X-H torsion
[ 10118 10098 10097 10094 ] final    9.09 input   59.98 | X-H torsion
[ 17002 16966 16965 16963 ] final   15.92 input   59.99 | X-H torsion
[ 11499 11466 11467 11468 ] final -156.73 input   46.07 | X-H torsion
[ 11572 11531 11532 11533 ] final   34.92 input  118.20 | X-H torsion
[ 11648 11607 11608 11609 ] final  -12.68 input   50.96 | X-H torsion
[ 11438 11418 11417 11414 ] final -109.51 input   60.01 | X-H torsion
[ 27196 27138 27137 27135 ] final  146.80 input   60.02 | X-H torsion
[ 19310 19290 19289 19286 ] final  -37.41 input   60.00 | X-H torsion
[ 10154 10134 10135 10136 ] final  146.22 input   25.69 | X-H torsion
[ 17361 17335 17336 17337 ] final -179.41 input   65.66 | X-H torsion
[ 27200  684  683  682 ] final  -31.28 input    0.00 | X-H torsion
[ 27203 2534 2533 2532 ] final  100.52 input    0.00 | X-H torsion
[ 27226 7339 7338 7337 ] final   60.01 input    0.00 | X-H torsion
[ 27232 17131 17130 17129 ] final  113.44 input    0.00 | X-H torsion
[ 27236 18215 18214 18213 ] final  -38.54 input    0.00 | X-H torsion
[ 27239 18280 18279 18278 ] final   71.17 input    0.00 | X-H torsion
[ 27242 18318 18317 18316 ] final   13.54 input    0.00 | X-H torsion
[ 27245 18376 18375 18374 ] final -136.95 input   -0.00 | X-H torsion
[ 27253 17181 17180 17179 ] final  141.06 input    0.00 | X-H torsion
[ 27255 17058 17057 17056 ] final  143.05 input    0.00 | X-H torsion
[ 27257 17227 17226 17225 ] final  -73.60 input   -0.00 | X-H torsion
[ 27267 10137 10136 10135 ] final   92.35 input    0.00 | X-H torsion
[ 27269 11416 11415 11414 ] final  103.54 input    0.00 | X-H torsion
[ 27275 11610 11609 11608 ] final  -32.90 input    0.00 | X-H torsion
[ 27284 18693 18692 18691 ] final   18.86 input    0.00 | X-H torsion

> <Gold.Protein.ActiveResidues>
 LYS309  TRP311  GLU314  MET341  HIS342  TRP414  ALA417  ARG419  CYS420  VAL421 
 GLY422  ARG423  SER462  ALA463  SER482  GLN483  LEU484  ILE485  ARG486  ALA502 
 TRP566  TYR567  LEU569  PRO570  ALA571  VAL572  SER573  ASN574  MET575  PHE589 
 SER590  GLY591  TRP592  TYR593  MET594  GLU597  ILE598  ARG601  ASP602  ASP605 
 SER607  ARG608  TRP683  HIS697  GLU699  TYR711  HEM750  H4B760 

> <Gold.Protein.RotatedAtoms>
  246.4326   25.3579   42.1526 H   0  0  0  0  0  0  0  0  0  0  0  0  # atno 581  bound_to 535 
  246.3834   23.9722   41.2439 H   0  0  0  0  0  0  0  0  0  0  0  0  # atno 582  bound_to 535 
  247.7573   24.8985   41.2692 H   0  0  0  0  0  0  0  0  0  0  0  0  # atno 583  bound_to 535 
  244.7836   25.1386   35.1208 H   0  0  0  0  0  0  0  0  0  0  0  0  # atno 729  bound_to 681 
  238.7521   20.0740   38.9099 H   0  0  0  0  0  0  0  0  0  0  0  0  # atno 2566 bound_to 2531
  240.0537   18.2974   40.3432 H   0  0  0  0  0  0  0  0  0  0  0  0  # atno 2636 bound_to 2605
  240.2377    6.8453   35.0414 H   0  0  0  0  0  0  0  0  0  0  0  0  # atno 7435 bound_to 7417
  241.9556    5.2155   32.4633 H   0  0  0  0  0  0  0  0  0  0  0  0  # atno 7494 bound_to 7460
  241.3982    1.9419   31.8179 H   0  0  0  0  0  0  0  0  0  0  0  0  # atno 7528 bound_to 7515
  248.8370   -4.4194   36.0000 H   0  0  0  0  0  0  0  0  0  0  0  0  # atno 10118 bound_to 10098
  250.5997   -4.6248   39.7872 H   0  0  0  0  0  0  0  0  0  0  0  0  # atno 10154 bound_to 10134
  254.9416   13.4551   42.1932 H   0  0  0  0  0  0  0  0  0  0  0  0  # atno 11438 bound_to 11418
  253.6792   10.1404   42.7000 H   0  0  0  0  0  0  0  0  0  0  0  0  # atno 11499 bound_to 11466
  255.9953    6.6304   41.5351 H   0  0  0  0  0  0  0  0  0  0  0  0  # atno 11572 bound_to 11531
  257.6150    6.9624   41.0577 H   0  0  0  0  0  0  0  0  0  0  0  0  # atno 11648 bound_to 11607
  255.9646    8.5037   36.3325 H   0  0  0  0  0  0  0  0  0  0  0  0  # atno 17002 bound_to 16966
  253.6426    3.5034   37.8932 H   0  0  0  0  0  0  0  0  0  0  0  0  # atno 17198 bound_to 17178
  251.2869    5.2658   39.9537 H   0  0  0  0  0  0  0  0  0  0  0  0  # atno 17258 bound_to 17224
  252.1805    6.7019   43.3163 H   0  0  0  0  0  0  0  0  0  0  0  0  # atno 17306 bound_to 17285
  251.5113    8.5728   45.7657 H   0  0  0  0  0  0  0  0  0  0  0  0  # atno 17361 bound_to 17335
  250.0622    2.9817   43.7925 H   0  0  0  0  0  0  0  0  0  0  0  0  # atno 18250 bound_to 18212
  250.8336    0.7413   41.6232 H   0  0  0  0  0  0  0  0  0  0  0  0  # atno 18298 bound_to 18277
  252.6790   -1.4821   40.8678 H   0  0  0  0  0  0  0  0  0  0  0  0  # atno 18302 bound_to 18282
  249.9670    0.8446   37.4019 H   0  0  0  0  0  0  0  0  0  0  0  0  # atno 18328 bound_to 18315
  249.9729    0.2275   34.3465 H   0  0  0  0  0  0  0  0  0  0  0  0  # atno 18417 bound_to 18373
  251.7377    1.6086   32.2953 H   0  0  0  0  0  0  0  0  0  0  0  0  # atno 18502 bound_to 18463
  254.2865    8.0327   33.9827 H   0  0  0  0  0  0  0  0  0  0  0  0  # atno 18510 bound_to 18474
  249.3207    3.5799   29.9266 H   0  0  0  0  0  0  0  0  0  0  0  0  # atno 18570 bound_to 18535
  252.6202   21.5299   32.4421 H   0  0  0  0  0  0  0  0  0  0  0  0  # atno 19310 bound_to 19290
  241.6364   12.6754   39.8288 H   0  0  0  0  0  0  0  0  0  0  0  0  # atno 26091 bound_to 26055
  243.3024   19.0766   31.2271 H   0  0  0  0  0  0  0  0  0  0  0  0  # atno 27194 bound_to 27136
  239.4694   19.6780   34.1076 H   0  0  0  0  0  0  0  0  0  0  0  0  # atno 27196 bound_to 27138
  249.0480   23.7043   36.0736 LP  0  0  0  0  0  0  0  0  0  0  0  0  # atno 27200 bound_to 684 
  249.7958   23.4201   34.5374 LP  0  0  0  0  0  0  0  0  0  0  0  0  # atno 27201 bound_to 684 
  239.2796   19.8664   37.2569 LP  0  0  0  0  0  0  0  0  0  0  0  0  # atno 27202 bound_to 2531
  240.7115   16.4258   40.7938 LP  0  0  0  0  0  0  0  0  0  0  0  0  # atno 27203 bound_to 2534
  239.1676   16.1836   40.0471 LP  0  0  0  0  0  0  0  0  0  0  0  0  # atno 27204 bound_to 2534
  239.1068   19.7519   40.5515 LP  0  0  0  0  0  0  0  0  0  0  0  0  # atno 27205 bound_to 2605
  243.1914   12.2039   39.7484 LP  0  0  0  0  0  0  0  0  0  0  0  0  # atno 27209 bound_to 26055
  242.8028   13.7802   39.5723 LP  0  0  0  0  0  0  0  0  0  0  0  0  # atno 27210 bound_to 26055
  244.2131   19.6516   32.4474 LP  0  0  0  0  0  0  0  0  0  0  0  0  # atno 27213 bound_to 27136
  242.9696   20.5361   31.8659 LP  0  0  0  0  0  0  0  0  0  0  0  0  # atno 27214 bound_to 27136
  245.6349   25.1173   33.5996 LP  0  0  0  0  0  0  0  0  0  0  0  0  # atno 27215 bound_to 681 
  241.8628    8.3023   34.7015 LP  0  0  0  0  0  0  0  0  0  0  0  0  # atno 27226 bound_to 7339
  241.3078    7.3072   33.3970 LP  0  0  0  0  0  0  0  0  0  0  0  0  # atno 27227 bound_to 7339
  239.5840    5.5918   36.0646 LP  0  0  0  0  0  0  0  0  0  0  0  0  # atno 27228 bound_to 7417
  241.1481    3.9667   33.3864 LP  0  0  0  0  0  0  0  0  0  0  0  0  # atno 27229 bound_to 7460
  242.7468    2.5783   32.7321 LP  0  0  0  0  0  0  0  0  0  0  0  0  # atno 27230 bound_to 7515
  252.5112    1.8287   38.1137 LP  0  0  0  0  0  0  0  0  0  0  0  0  # atno 27232 bound_to 17131
  251.4499    2.8179   37.1675 LP  0  0  0  0  0  0  0  0  0  0  0  0  # atno 27233 bound_to 17131
  253.9098    5.1476   38.4191 LP  0  0  0  0  0  0  0  0  0  0  0  0  # atno 27234 bound_to 17178
  251.8438    4.4366   41.3907 LP  0  0  0  0  0  0  0  0  0  0  0  0  # atno 27235 bound_to 17224
  250.2978    3.1856   41.6737 LP  0  0  0  0  0  0  0  0  0  0  0  0  # atno 27236 bound_to 18215
  251.6470    2.4869   40.8421 LP  0  0  0  0  0  0  0  0  0  0  0  0  # atno 27237 bound_to 18215
  249.6658   -0.3736   40.9567 LP  0  0  0  0  0  0  0  0  0  0  0  0  # atno 27238 bound_to 18277
  249.1877   -1.7572   39.4340 LP  0  0  0  0  0  0  0  0  0  0  0  0  # atno 27239 bound_to 18280
  250.4799   -2.5122   38.5622 LP  0  0  0  0  0  0  0  0  0  0  0  0  # atno 27240 bound_to 18280
  251.0216   -0.4550   37.9143 LP  0  0  0  0  0  0  0  0  0  0  0  0  # atno 27241 bound_to 18315
  252.3221   -1.5975   36.1541 LP  0  0  0  0  0  0  0  0  0  0  0  0  # atno 27242 bound_to 18318
  252.7916   -0.9175   34.6319 LP  0  0  0  0  0  0  0  0  0  0  0  0  # atno 27243 bound_to 18318
  250.3092   -1.4636   34.0811 LP  0  0  0  0  0  0  0  0  0  0  0  0  # atno 27244 bound_to 18373
  249.3229    1.7487   31.3442 LP  0  0  0  0  0  0  0  0  0  0  0  0  # atno 27245 bound_to 18376
  249.3834    1.4979   33.0569 LP  0  0  0  0  0  0  0  0  0  0  0  0  # atno 27246 bound_to 18376
  252.2283    0.8092   30.8155 LP  0  0  0  0  0  0  0  0  0  0  0  0  # atno 27247 bound_to 18463
  250.9422    3.6616   29.2791 LP  0  0  0  0  0  0  0  0  0  0  0  0  # atno 27248 bound_to 18535
  253.3507    6.8310   41.2046 LP  0  0  0  0  0  0  0  0  0  0  0  0  # atno 27253 bound_to 17181
  254.3902    5.4961   41.5757 LP  0  0  0  0  0  0  0  0  0  0  0  0  # atno 27254 bound_to 17181
  256.3971    4.5885   36.7963 LP  0  0  0  0  0  0  0  0  0  0  0  0  # atno 27255 bound_to 17058
  257.2600    3.3462   37.6404 LP  0  0  0  0  0  0  0  0  0  0  0  0  # atno 27256 bound_to 17058
  249.6894    4.6978   43.8560 LP  0  0  0  0  0  0  0  0  0  0  0  0  # atno 27257 bound_to 17227
  251.3528    4.2376   44.0027 LP  0  0  0  0  0  0  0  0  0  0  0  0  # atno 27258 bound_to 17227
  255.7056    8.0371   33.1864 LP  0  0  0  0  0  0  0  0  0  0  0  0  # atno 27259 bound_to 18474
  255.4839    7.0396   34.4602 LP  0  0  0  0  0  0  0  0  0  0  0  0  # atno 27260 bound_to 18474
  250.6521    7.3815   43.8155 LP  0  0  0  0  0  0  0  0  0  0  0  0  # atno 27261 bound_to 17285
  250.7074    1.7288   44.8242 LP  0  0  0  0  0  0  0  0  0  0  0  0  # atno 27262 bound_to 18212
  253.7462   -1.5568   39.6420 LP  0  0  0  0  0  0  0  0  0  0  0  0  # atno 27263 bound_to 18282
  252.1670   -1.8748   39.3742 LP  0  0  0  0  0  0  0  0  0  0  0  0  # atno 27264 bound_to 18282
  247.5210   -3.5373   36.3716 LP  0  0  0  0  0  0  0  0  0  0  0  0  # atno 27265 bound_to 10098
  247.3662   -5.1157   35.9827 LP  0  0  0  0  0  0  0  0  0  0  0  0  # atno 27266 bound_to 10098
  248.9915   -1.6696   41.8860 LP  0  0  0  0  0  0  0  0  0  0  0  0  # atno 27267 bound_to 10137
  250.6830   -1.5349   42.2337 LP  0  0  0  0  0  0  0  0  0  0  0  0  # atno 27268 bound_to 10137
  251.9091    9.6655   42.1236 LP  0  0  0  0  0  0  0  0  0  0  0  0  # atno 27269 bound_to 11416
  251.9969    9.0449   43.7382 LP  0  0  0  0  0  0  0  0  0  0  0  0  # atno 27270 bound_to 11416
  256.4243    9.4407   35.0841 LP  0  0  0  0  0  0  0  0  0  0  0  0  # atno 27271 bound_to 16966
  257.0703    9.6745   36.5656 LP  0  0  0  0  0  0  0  0  0  0  0  0  # atno 27272 bound_to 16966
  255.4003   10.2078   43.0159 LP  0  0  0  0  0  0  0  0  0  0  0  0  # atno 27273 bound_to 11466
  255.3626    6.7263   43.1608 LP  0  0  0  0  0  0  0  0  0  0  0  0  # atno 27274 bound_to 11531
  258.1444    7.0158   37.9428 LP  0  0  0  0  0  0  0  0  0  0  0  0  # atno 27275 bound_to 11610
  257.7714    8.6765   38.2639 LP  0  0  0  0  0  0  0  0  0  0  0  0  # atno 27276 bound_to 11610
  258.3491    5.4149   41.4026 LP  0  0  0  0  0  0  0  0  0  0  0  0  # atno 27279 bound_to 11607
  253.8106   12.8830   41.1729 LP  0  0  0  0  0  0  0  0  0  0  0  0  # atno 27282 bound_to 11418
  254.7771   11.8494   41.9878 LP  0  0  0  0  0  0  0  0  0  0  0  0  # atno 27283 bound_to 11418
  251.8406   11.6353   30.2616 LP  0  0  0  0  0  0  0  0  0  0  0  0  # atno 27284 bound_to 18693
  253.2579   11.7260   29.2701 LP  0  0  0  0  0  0  0  0  0  0  0  0  # atno 27285 bound_to 18693

> <Gold.Score>
     Fitness  S(hb_ext) S(vdw_ext)  S(hb_int)    S(int)      intcor
     30.40       7.23      17.28       0.00      -0.59      -0.76

> <Gold.Goldscore.Fitness>
30.4024

> <Gold.Goldscore.Internal.Vdw>
-0.9136

> <Gold.Goldscore.Internal.Torsion>
-0.4373

> <Gold.Goldscore.External.Vdw>
17.2842

> <Gold.Goldscore.Internal.HBond>
0.0000

> <Gold.Goldscore.External.HBond>
7.2290

> <Gold.Goldscore.Internal.Correction>
-0.7585

> <Gold.Goldscore.Hbonds>
donor molecule, donor type, donor heavy atom, donor atom, acceptor molecule, acceptor atom, score
      P1  H 19353 19403       L1     9  0.96
      P1  H 18474 18510       L1    17  0.74

> <Gold.Goldscore.Internal.Vdw.Weighted>
-0.9136

> <Gold.Goldscore.Internal.Torsion.Weighted>
-0.4373

> <Gold.Goldscore.External.Vdw.Weighted>
23.7658

> <Gold.Goldscore.Internal.HBond.Weighted>
0.0000

> <Gold.Goldscore.External.HBond.Weighted>
7.2290

> <Gold.Goldscore.Internal.Correction.Weighted>
-0.7585

> <Gold.Rescore>
     Score     S(PLP)   S(hbond)     S(cho)   S(metal)  DE(clash)   DE(tors)     intcor
     12.67      -7.43       1.97       0.00       0.00       0.00       0.34       ----

> <Gold.PLP.Fitness>
12.6680

> <Gold.PLP.PLP>
-7.4348

> <Gold.PLP.part.hbond>
-3.8102

> <Gold.PLP.part.metal>
0.0000

> <Gold.PLP.part.buried>
2.6757

> <Gold.PLP.part.nonpolar>
-12.8155

> <Gold.PLP.part.repulsive>
5.5233

> <Gold.PLP.ligand.clash>
0.0000

> <Gold.PLP.ligand.torsion>
0.3354

> <Gold.PLP.Chemscore.Hbond>
1.9680

> <Gold.PLP.Chemscore.CHOScore>
0.0000

> <Gold.PLP.Chemscore.Metal>
0.0000

> <Gold.Chemscore.Hbonds>
donor molecule, donor type, donor heavy atom, donor atom, acceptor molecule, acceptor atom, score
      P1  H 19353 19403       L1     9  0.83
      P1  H 18474 18510       L1    17  1.00

> <Gold.PLP.Chemscore.Internal.Correction>
   9.000000E+99

