#       Name:                CT1002167954
#       Creating user name   hitesit
#       Creation time:       Sun Apr 16 20:31:14 2023


#       File generated by GOLD software.
#

@<TRIPOS>MOLECULE
CT1002167954|ligand_prepared|mol2|1|dock4
    29    30     1
SMALL
NO_CHARGES


@<TRIPOS>ATOM
      1 C1         251.0052  11.0497  34.8740 C.3            1 RES1               0.0000
      2 C2         250.4008  10.7089  36.2514 C.ar           1 RES1               0.0000
      3 C3         251.7525  12.3686  35.0485 C.2            1 RES1               0.0000
      4 C4         251.8990   9.8734  34.4973 C.2            1 RES1               0.0000
      5 C5         249.9516  11.2264  33.7558 C.3            1 RES1               0.0000
      6 C6         250.8985  11.2991  37.4093 C.ar           1 RES1               0.0000
      7 C7         249.3455   9.8098  36.3796 C.ar           1 RES1               0.0000
      8 N8         253.1153  12.3241  35.0737 N.am           1 RES1               0.0000
      9 O9         251.1544  13.4265  35.2013 O.2            1 RES1               0.0000
     10 N10        253.2483  10.0951  34.4075 N.am           1 RES1               0.0000
     11 O11        251.4488   8.7526  34.2939 O.2            1 RES1               0.0000
     12 C12        250.5302  11.7270  32.4417 C.3            1 RES1               0.0000
     13 C13        250.3589  11.0035  38.6501 C.ar           1 RES1               0.0000
     14 C14        248.8074   9.5154  37.6216 C.ar           1 RES1               0.0000
     15 C15        253.9001  11.2599  34.7086 C.2            1 RES1               0.0000
     16 C16        249.3128  10.1120  38.7571 C.ar           1 RES1               0.0000
     17 O17        255.1220  11.3662  34.6559 O.2            1 RES1               0.0000
     18 H18        249.4583  10.2625  33.5800 H              1 RES1               0.0000
     19 H19        249.1884  11.9360  34.0986 H              1 RES1               0.0000
     20 H20        251.7231  12.0013  37.3450 H              1 RES1               0.0000
     21 H21        248.9326   9.3276  35.5001 H              1 RES1               0.0000
     22 H22        253.5953  13.1593  35.3936 H              1 RES1               0.0000
     23 H23        253.8197   9.3201  34.0862 H              1 RES1               0.0000
     24 H24        249.7490  11.8334  31.6920 H              1 RES1               0.0000
     25 H25        251.0068  12.6960  32.5744 H              1 RES1               0.0000
     26 H26        251.2751  11.0325  32.0588 H              1 RES1               0.0000
     27 H27        250.7611  11.4747  39.5409 H              1 RES1               0.0000
     28 H28        247.9846   8.8127  37.7011 H              1 RES1               0.0000
     29 H29        248.8900   9.8809  39.7292 H              1 RES1               0.0000
@<TRIPOS>BOND
    1    1    2 1     
    2    1    3 1     
    3    1    4 1     
    4    1    5 1     
    5    2    6 ar    
    6    2    7 ar    
    7    3    8 1     
    8    3    9 2     
    9    4   10 1     
   10    4   11 2     
   11    5   12 1     
   12    5   18 1     
   13    5   19 1     
   14    6   13 ar    
   15    6   20 1     
   16    7   14 ar    
   17    7   21 1     
   18    8   15 1     
   19    8   22 1     
   20   10   15 1     
   21   10   23 1     
   22   12   24 1     
   23   12   25 1     
   24   12   26 1     
   25   13   16 ar    
   26   13   27 1     
   27   14   16 ar    
   28   14   28 1     
   29   15   17 2     
   30   16   29 1     
@<TRIPOS>SUBSTRUCTURE
      1 RES1           1
@<TRIPOS>SET
DONOR_HYDROGENS      STATIC     ATOMS    <user>   **** ""
2 22 23
ATOM$RED        STATIC     ATOMS    COLORGROUP SYSTEM
2 22 23
@<TRIPOS>COMMENT
> <Gold.Version>
2022.3.0

> <Gold.Id.Protein>
unknown|4v3u_clean|pdb

> <Gold.Protein.RotatedTorsions>
[  581  535  534  533 ] final   27.39 input   59.97 | X-H torsion
[ 2566 2531 2532 2533 ] final  164.05 input  112.83 | X-H torsion
[ 2636 2605 2606 2607 ] final  113.11 input   41.41 | X-H torsion
[ 26091 26055 26054 26052 ] final  -50.41 input   60.03 | X-H torsion
[ 27194 27136 27135 27131 ] final  -52.00 input   60.01 | X-H torsion
[  729  681  682  683 ] final  -51.94 input  102.19 | X-H torsion
[ 7435 7417 7418 7419 ] final  -44.82 input   81.33 | X-H torsion
[ 7494 7460 7461 7462 ] final  -62.23 input  103.22 | X-H torsion
[ 7528 7515 7516 7517 ] final  128.36 input   88.53 | X-H torsion
[ 17198 17178 17179 17180 ] final -136.37 input   47.40 | X-H torsion
[ 17258 17224 17225 17226 ] final  124.34 input  102.98 | X-H torsion
[ 18298 18277 18278 18279 ] final   -5.82 input   30.52 | X-H torsion
[ 18328 18315 18316 18317 ] final  124.36 input   53.77 | X-H torsion
[ 18417 18373 18374 18375 ] final   73.71 input   42.60 | X-H torsion
[ 18502 18463 18464 18465 ] final -143.29 input  104.04 | X-H torsion
[ 18570 18535 18536 18537 ] final  -30.07 input   89.36 | X-H torsion
[ 18510 18474 18473 18471 ] final  107.29 input   60.01 | X-H torsion
[ 17306 17285 17286 17287 ] final -100.59 input   49.80 | X-H torsion
[ 18250 18212 18213 18214 ] final  169.90 input   46.53 | X-H torsion
[ 18302 18282 18281 18278 ] final -117.22 input   59.98 | X-H torsion
[ 10118 10098 10097 10094 ] final  139.74 input   59.98 | X-H torsion
[ 17002 16966 16965 16963 ] final  -56.36 input   59.99 | X-H torsion
[ 11499 11466 11467 11468 ] final  148.27 input   46.07 | X-H torsion
[ 11572 11531 11532 11533 ] final  -97.41 input  118.20 | X-H torsion
[ 11648 11607 11608 11609 ] final  -39.51 input   50.96 | X-H torsion
[ 11438 11418 11417 11414 ] final  107.95 input   60.01 | X-H torsion
[ 27196 27138 27137 27135 ] final  -28.78 input   60.02 | X-H torsion
[ 19310 19290 19289 19286 ] final -150.45 input   60.00 | X-H torsion
[ 10154 10134 10135 10136 ] final  131.15 input   25.69 | X-H torsion
[ 17361 17335 17336 17337 ] final   64.33 input   65.66 | X-H torsion
[ 27200  684  683  682 ] final   29.64 input    0.00 | X-H torsion
[ 27203 2534 2533 2532 ] final  162.92 input    0.00 | X-H torsion
[ 27226 7339 7338 7337 ] final   33.61 input    0.00 | X-H torsion
[ 27232 17131 17130 17129 ] final -130.94 input    0.00 | X-H torsion
[ 27236 18215 18214 18213 ] final  -13.71 input    0.00 | X-H torsion
[ 27239 18280 18279 18278 ] final -160.65 input    0.00 | X-H torsion
[ 27242 18318 18317 18316 ] final   16.05 input    0.00 | X-H torsion
[ 27245 18376 18375 18374 ] final  109.19 input   -0.00 | X-H torsion
[ 27253 17181 17180 17179 ] final    7.89 input    0.00 | X-H torsion
[ 27255 17058 17057 17056 ] final -122.94 input    0.00 | X-H torsion
[ 27257 17227 17226 17225 ] final -130.09 input   -0.00 | X-H torsion
[ 27267 10137 10136 10135 ] final  144.09 input    0.00 | X-H torsion
[ 27269 11416 11415 11414 ] final  -47.27 input    0.00 | X-H torsion
[ 27275 11610 11609 11608 ] final  105.84 input    0.00 | X-H torsion
[ 27284 18693 18692 18691 ] final  -34.62 input    0.00 | X-H torsion

> <Gold.Protein.ActiveResidues>
 LYS309  TRP311  GLU314  MET341  HIS342  TRP414  ALA417  ARG419  CYS420  VAL421 
 GLY422  ARG423  SER462  ALA463  SER482  GLN483  LEU484  ILE485  ARG486  ALA502 
 TRP566  TYR567  LEU569  PRO570  ALA571  VAL572  SER573  ASN574  MET575  PHE589 
 SER590  GLY591  TRP592  TYR593  MET594  GLU597  ILE598  ARG601  ASP602  ASP605 
 SER607  ARG608  TRP683  HIS697  GLU699  TYR711  HEM750  H4B760 

> <Gold.Protein.RotatedAtoms>
  246.3011   24.0061   41.3027 H   0  0  0  0  0  0  0  0  0  0  0  0  # atno 581  bound_to 535 
  247.7487   24.8091   41.2135 H   0  0  0  0  0  0  0  0  0  0  0  0  # atno 582  bound_to 535 
  246.5223   25.4131   42.1500 H   0  0  0  0  0  0  0  0  0  0  0  0  # atno 583  bound_to 535 
  245.7008   25.8486   34.4413 H   0  0  0  0  0  0  0  0  0  0  0  0  # atno 729  bound_to 681 
  239.5856   20.1674   37.4251 H   0  0  0  0  0  0  0  0  0  0  0  0  # atno 2566 bound_to 2531
  240.3203   19.4539   40.6715 H   0  0  0  0  0  0  0  0  0  0  0  0  # atno 2636 bound_to 2605
  239.7386    6.4886   34.7392 H   0  0  0  0  0  0  0  0  0  0  0  0  # atno 7435 bound_to 7417
  241.0176    4.0147   33.3719 H   0  0  0  0  0  0  0  0  0  0  0  0  # atno 7494 bound_to 7460
  242.8295    2.5998   32.6198 H   0  0  0  0  0  0  0  0  0  0  0  0  # atno 7528 bound_to 7515
  247.2394   -5.0046   36.0279 H   0  0  0  0  0  0  0  0  0  0  0  0  # atno 10118 bound_to 10098
  250.7220   -4.4291   39.8067 H   0  0  0  0  0  0  0  0  0  0  0  0  # atno 10154 bound_to 10134
  253.8301   12.5165   41.1800 H   0  0  0  0  0  0  0  0  0  0  0  0  # atno 11438 bound_to 11418
  254.1601   10.4665   42.1169 H   0  0  0  0  0  0  0  0  0  0  0  0  # atno 11499 bound_to 11466
  255.7679    7.2806   42.9958 H   0  0  0  0  0  0  0  0  0  0  0  0  # atno 11572 bound_to 11531
  257.8366    7.0353   41.3946 H   0  0  0  0  0  0  0  0  0  0  0  0  # atno 11648 bound_to 11607
  255.9746    8.8629   35.2886 H   0  0  0  0  0  0  0  0  0  0  0  0  # atno 17002 bound_to 16966
  253.3286    3.6533   37.8216 H   0  0  0  0  0  0  0  0  0  0  0  0  # atno 17198 bound_to 17178
  250.7817    4.7586   40.2813 H   0  0  0  0  0  0  0  0  0  0  0  0  # atno 17258 bound_to 17224
  250.7623    6.4496   43.5995 H   0  0  0  0  0  0  0  0  0  0  0  0  # atno 17306 bound_to 17285
  250.2458    8.5945   44.9597 H   0  0  0  0  0  0  0  0  0  0  0  0  # atno 17361 bound_to 17335
  249.7988    2.0556   44.8998 H   0  0  0  0  0  0  0  0  0  0  0  0  # atno 18250 bound_to 18212
  249.6348   -0.3597   40.9417 H   0  0  0  0  0  0  0  0  0  0  0  0  # atno 18298 bound_to 18277
  253.2696   -1.4028   40.7735 H   0  0  0  0  0  0  0  0  0  0  0  0  # atno 18302 bound_to 18282
  249.7535    0.6619   37.6254 H   0  0  0  0  0  0  0  0  0  0  0  0  # atno 18328 bound_to 18315
  249.5933   -0.9322   33.6016 H   0  0  0  0  0  0  0  0  0  0  0  0  # atno 18417 bound_to 18373
  251.9420    1.6525   32.3102 H   0  0  0  0  0  0  0  0  0  0  0  0  # atno 18502 bound_to 18463
  255.0446    7.1258   34.6043 H   0  0  0  0  0  0  0  0  0  0  0  0  # atno 18510 bound_to 18474
  250.9529    3.8043   29.2976 H   0  0  0  0  0  0  0  0  0  0  0  0  # atno 18570 bound_to 18535
  251.8013   22.3779   33.4656 H   0  0  0  0  0  0  0  0  0  0  0  0  # atno 19310 bound_to 19290
  243.3512   13.3357   39.5849 H   0  0  0  0  0  0  0  0  0  0  0  0  # atno 26091 bound_to 26055
  244.1667   19.1431   32.0762 H   0  0  0  0  0  0  0  0  0  0  0  0  # atno 27194 bound_to 27136
  240.4368   18.0810   33.9900 H   0  0  0  0  0  0  0  0  0  0  0  0  # atno 27196 bound_to 27138
  248.9335   22.9396   35.6574 LP  0  0  0  0  0  0  0  0  0  0  0  0  # atno 27200 bound_to 684 
  249.9104   24.1848   34.9536 LP  0  0  0  0  0  0  0  0  0  0  0  0  # atno 27201 bound_to 684 
  238.4653   19.7751   38.7076 LP  0  0  0  0  0  0  0  0  0  0  0  0  # atno 27202 bound_to 2531
  239.9511   16.4950   41.2652 LP  0  0  0  0  0  0  0  0  0  0  0  0  # atno 27203 bound_to 2534
  239.9279   16.1144   39.5757 LP  0  0  0  0  0  0  0  0  0  0  0  0  # atno 27204 bound_to 2534
  238.8466   18.6232   40.2311 LP  0  0  0  0  0  0  0  0  0  0  0  0  # atno 27205 bound_to 2605
  241.7306   13.3673   39.7248 LP  0  0  0  0  0  0  0  0  0  0  0  0  # atno 27209 bound_to 26055
  242.5359   11.9515   39.8417 LP  0  0  0  0  0  0  0  0  0  0  0  0  # atno 27210 bound_to 26055
  243.4209   20.5709   32.3092 LP  0  0  0  0  0  0  0  0  0  0  0  0  # atno 27213 bound_to 27136
  242.8919   19.5500   31.1496 LP  0  0  0  0  0  0  0  0  0  0  0  0  # atno 27214 bound_to 27136
  244.7256   24.4134   34.2732 LP  0  0  0  0  0  0  0  0  0  0  0  0  # atno 27215 bound_to 681 
  241.5988    8.5328   34.5180 LP  0  0  0  0  0  0  0  0  0  0  0  0  # atno 27226 bound_to 7339
  241.5718    7.0767   33.5805 LP  0  0  0  0  0  0  0  0  0  0  0  0  # atno 27227 bound_to 7339
  240.0757    5.9432   36.3623 LP  0  0  0  0  0  0  0  0  0  0  0  0  # atno 27228 bound_to 7417
  242.0553    5.1281   32.5076 LP  0  0  0  0  0  0  0  0  0  0  0  0  # atno 27229 bound_to 7460
  241.3545    1.9383   31.9520 LP  0  0  0  0  0  0  0  0  0  0  0  0  # atno 27230 bound_to 7515
  251.4721    2.8624   38.0889 LP  0  0  0  0  0  0  0  0  0  0  0  0  # atno 27232 bound_to 17131
  252.4889    1.7842   37.1923 LP  0  0  0  0  0  0  0  0  0  0  0  0  # atno 27233 bound_to 17131
  254.2171    5.0010   38.4892 LP  0  0  0  0  0  0  0  0  0  0  0  0  # atno 27234 bound_to 17178
  252.3331    4.9278   41.0734 LP  0  0  0  0  0  0  0  0  0  0  0  0  # atno 27235 bound_to 17224
  250.5548    3.1637   41.9423 LP  0  0  0  0  0  0  0  0  0  0  0  0  # atno 27236 bound_to 18215
  251.3900    2.5088   40.5735 LP  0  0  0  0  0  0  0  0  0  0  0  0  # atno 27237 bound_to 18215
  250.8400    0.7047   41.6242 LP  0  0  0  0  0  0  0  0  0  0  0  0  # atno 27238 bound_to 18277
  249.8437   -2.3907   38.1709 LP  0  0  0  0  0  0  0  0  0  0  0  0  # atno 27239 bound_to 18280
  249.8239   -1.8787   39.8254 LP  0  0  0  0  0  0  0  0  0  0  0  0  # atno 27240 bound_to 18280
  251.2282   -0.2782   37.6979 LP  0  0  0  0  0  0  0  0  0  0  0  0  # atno 27241 bound_to 18315
  252.3174   -1.6310   36.1368 LP  0  0  0  0  0  0  0  0  0  0  0  0  # atno 27242 bound_to 18318
  252.7963   -0.8840   34.6493 LP  0  0  0  0  0  0  0  0  0  0  0  0  # atno 27243 bound_to 18318
  250.6842   -0.3183   34.8167 LP  0  0  0  0  0  0  0  0  0  0  0  0  # atno 27244 bound_to 18373
  249.6304    2.3123   32.6459 LP  0  0  0  0  0  0  0  0  0  0  0  0  # atno 27245 bound_to 18376
  249.0759    0.9343   31.7551 LP  0  0  0  0  0  0  0  0  0  0  0  0  # atno 27246 bound_to 18376
  252.0317    0.7670   30.8012 LP  0  0  0  0  0  0  0  0  0  0  0  0  # atno 27247 bound_to 18463
  249.3498    3.4426   29.8928 LP  0  0  0  0  0  0  0  0  0  0  0  0  # atno 27248 bound_to 18535
  254.4891    5.7526   40.9447 LP  0  0  0  0  0  0  0  0  0  0  0  0  # atno 27253 bound_to 17181
  253.2519    6.5745   41.8356 LP  0  0  0  0  0  0  0  0  0  0  0  0  # atno 27254 bound_to 17181
  256.2098    3.8581   37.8143 LP  0  0  0  0  0  0  0  0  0  0  0  0  # atno 27255 bound_to 17058
  257.4473    4.0766   36.6224 LP  0  0  0  0  0  0  0  0  0  0  0  0  # atno 27256 bound_to 17058
  250.0798    4.8715   44.5556 LP  0  0  0  0  0  0  0  0  0  0  0  0  # atno 27257 bound_to 17227
  250.9624    4.0639   43.3031 LP  0  0  0  0  0  0  0  0  0  0  0  0  # atno 27258 bound_to 17227
  254.4524    8.2736   33.6144 LP  0  0  0  0  0  0  0  0  0  0  0  0  # atno 27259 bound_to 18474
  255.9733    7.7168   33.4059 LP  0  0  0  0  0  0  0  0  0  0  0  0  # atno 27260 bound_to 18474
  252.0470    7.6296   43.5370 LP  0  0  0  0  0  0  0  0  0  0  0  0  # atno 27261 bound_to 17285
  250.9658    2.6374   43.7379 LP  0  0  0  0  0  0  0  0  0  0  0  0  # atno 27262 bound_to 18212
  253.3828   -1.7116   39.1801 LP  0  0  0  0  0  0  0  0  0  0  0  0  # atno 27263 bound_to 18282
  251.9355   -1.7998   39.9312 LP  0  0  0  0  0  0  0  0  0  0  0  0  # atno 27264 bound_to 18282
  248.8106   -4.5866   35.9574 LP  0  0  0  0  0  0  0  0  0  0  0  0  # atno 27265 bound_to 10098
  247.6853   -3.4771   36.3687 LP  0  0  0  0  0  0  0  0  0  0  0  0  # atno 27266 bound_to 10098
  249.1673   -1.3852   42.5638 LP  0  0  0  0  0  0  0  0  0  0  0  0  # atno 27267 bound_to 10137
  250.5072   -1.8194   41.5558 LP  0  0  0  0  0  0  0  0  0  0  0  0  # atno 27268 bound_to 10137
  251.7871    9.4257   43.7780 LP  0  0  0  0  0  0  0  0  0  0  0  0  # atno 27269 bound_to 11416
  252.1189    9.2847   42.0838 LP  0  0  0  0  0  0  0  0  0  0  0  0  # atno 27270 bound_to 11416
  257.0772    9.9227   35.8443 LP  0  0  0  0  0  0  0  0  0  0  0  0  # atno 27271 bound_to 16966
  256.4073    8.8307   36.8569 LP  0  0  0  0  0  0  0  0  0  0  0  0  # atno 27272 bound_to 16966
  254.9364    9.8933   43.5782 LP  0  0  0  0  0  0  0  0  0  0  0  0  # atno 27273 bound_to 11466
  255.5853    6.0897   41.7305 LP  0  0  0  0  0  0  0  0  0  0  0  0  # atno 27274 bound_to 11531
  257.4410    8.3088   38.6218 LP  0  0  0  0  0  0  0  0  0  0  0  0  # atno 27275 bound_to 11610
  258.4748    7.3835   37.5849 LP  0  0  0  0  0  0  0  0  0  0  0  0  # atno 27276 bound_to 11610
  258.1322    5.3435   41.0728 LP  0  0  0  0  0  0  0  0  0  0  0  0  # atno 27279 bound_to 11607
  255.0081   12.0444   42.1983 LP  0  0  0  0  0  0  0  0  0  0  0  0  # atno 27282 bound_to 11418
  254.6992   13.6334   41.9829 LP  0  0  0  0  0  0  0  0  0  0  0  0  # atno 27283 bound_to 11418
  251.7641   11.9907   29.5724 LP  0  0  0  0  0  0  0  0  0  0  0  0  # atno 27284 bound_to 18693
  253.3344   11.3705   29.9593 LP  0  0  0  0  0  0  0  0  0  0  0  0  # atno 27285 bound_to 18693

> <Gold.Score>
     Fitness  S(hb_ext) S(vdw_ext)  S(hb_int)    S(int)      intcor
     37.94       5.05      24.83       0.00      -1.26      -0.76

> <Gold.Goldscore.Fitness>
37.9356

> <Gold.Goldscore.Internal.Vdw>
-1.5670

> <Gold.Goldscore.Internal.Torsion>
-0.4487

> <Gold.Goldscore.External.Vdw>
24.8328

> <Gold.Goldscore.Internal.HBond>
0.0000

> <Gold.Goldscore.External.HBond>
5.0477

> <Gold.Goldscore.Internal.Correction>
-0.7585

> <Gold.Goldscore.Hbonds>
donor molecule, donor type, donor heavy atom, donor atom, acceptor molecule, acceptor atom, score
      P1  H 11473 11505       L1    17  0.02
      P1  H 19354 19405       L1    17  0.51
      L1  H    10    23       P1 18474  0.98

> <Gold.Goldscore.Internal.Vdw.Weighted>
-1.5670

> <Gold.Goldscore.Internal.Torsion.Weighted>
-0.4487

> <Gold.Goldscore.External.Vdw.Weighted>
34.1451

> <Gold.Goldscore.Internal.HBond.Weighted>
0.0000

> <Gold.Goldscore.External.HBond.Weighted>
5.0477

> <Gold.Goldscore.Internal.Correction.Weighted>
-0.7585

> <Gold.Rescore>
     Score     S(PLP)   S(hbond)     S(cho)   S(metal)  DE(clash)   DE(tors)     intcor
     27.07     -26.24       1.05       0.00       0.00       1.81       0.25       ----

> <Gold.PLP.Fitness>
27.0668

> <Gold.PLP.PLP>
-26.2376

> <Gold.PLP.part.hbond>
-3.4710

> <Gold.PLP.part.metal>
0.0000

> <Gold.PLP.part.buried>
-1.5840

> <Gold.PLP.part.nonpolar>
-23.7579

> <Gold.PLP.part.repulsive>
1.0432

> <Gold.PLP.ligand.clash>
1.8071

> <Gold.PLP.ligand.torsion>
0.2509

> <Gold.PLP.Chemscore.Hbond>
1.0460

> <Gold.PLP.Chemscore.CHOScore>
0.0000

> <Gold.PLP.Chemscore.Metal>
0.0000

> <Gold.Chemscore.Hbonds>
donor molecule, donor type, donor heavy atom, donor atom, acceptor molecule, acceptor atom, score
      L1  H    10    23       P1 18474  0.48
      P1  H 19354 19405       L1    17  0.84

> <Gold.PLP.Chemscore.Internal.Correction>
   9.000000E+99

