#       Name:                CT1002167954
#       Creating user name   hitesit
#       Creation time:       Sun Apr 16 20:17:28 2023


#       File generated by GOLD software.
#

@<TRIPOS>MOLECULE
CT1002167954|ligand_prepared|mol2|1|dock1
    29    30     1
SMALL
NO_CHARGES


@<TRIPOS>ATOM
      1 C1         -13.0279   3.1612  19.4433 C.3            1 RES1               0.0000
      2 C2         -13.9188   2.4375  20.4734 C.ar           1 RES1               0.0000
      3 C3         -13.9522   4.0761  18.6452 C.2            1 RES1               0.0000
      4 C4         -11.9622   3.8999  20.2453 C.2            1 RES1               0.0000
      5 C5         -12.3102   2.2085  18.4590 C.3            1 RES1               0.0000
      6 C6         -13.7656   1.0745  20.7093 C.ar           1 RES1               0.0000
      7 C7         -14.8947   3.1186  21.1961 C.ar           1 RES1               0.0000
      8 N8         -13.8843   5.4153  18.8938 N.am           1 RES1               0.0000
      9 O9         -14.7563   3.6257  17.8385 O.2            1 RES1               0.0000
     10 N10        -11.9706   5.2699  20.2154 N.am           1 RES1               0.0000
     11 O11        -11.1254   3.3083  20.9162 O.2            1 RES1               0.0000
     12 C12        -11.6832   2.9159  17.2680 C.3            1 RES1               0.0000
     13 C13        -14.5571   0.4168  21.6362 C.ar           1 RES1               0.0000
     14 C14        -15.6854   2.4589  22.1225 C.ar           1 RES1               0.0000
     15 C15        -12.9022   6.0615  19.6007 C.2            1 RES1               0.0000
     16 C16        -15.5171   1.1085  22.3437 C.ar           1 RES1               0.0000
     17 O17        -12.8735   7.2871  19.6642 O.2            1 RES1               0.0000
     18 H18        -11.5255   1.6665  19.0011 H              1 RES1               0.0000
     19 H19        -13.0339   1.4708  18.0906 H              1 RES1               0.0000
     20 H20        -13.0170   0.5131  20.1602 H              1 RES1               0.0000
     21 H21        -15.0455   4.1810  21.0379 H              1 RES1               0.0000
     22 H22        -14.6330   5.9895  18.5195 H              1 RES1               0.0000
     23 H23        -11.2122   5.7435  20.6958 H              1 RES1               0.0000
     24 H24        -11.1931   2.2019  16.6094 H              1 RES1               0.0000
     25 H25        -12.4394   3.4449  16.6916 H              1 RES1               0.0000
     26 H26        -10.9399   3.6394  17.5966 H              1 RES1               0.0000
     27 H27        -14.4217  -0.6463  21.8056 H              1 RES1               0.0000
     28 H28        -16.4401   3.0072  22.6766 H              1 RES1               0.0000
     29 H29        -16.1368   0.5932  23.0700 H              1 RES1               0.0000
@<TRIPOS>BOND
    1    1    2 1     
    2    1    3 1     
    3    1    4 1     
    4    1    5 1     
    5    2    6 ar    
    6    2    7 ar    
    7    3    8 1     
    8    3    9 2     
    9    4   10 1     
   10    4   11 2     
   11    5   12 1     
   12    5   18 1     
   13    5   19 1     
   14    6   13 ar    
   15    6   20 1     
   16    7   14 ar    
   17    7   21 1     
   18    8   15 1     
   19    8   22 1     
   20   10   15 1     
   21   10   23 1     
   22   12   24 1     
   23   12   25 1     
   24   12   26 1     
   25   13   16 ar    
   26   13   27 1     
   27   14   16 ar    
   28   14   28 1     
   29   15   17 2     
   30   16   29 1     
@<TRIPOS>SUBSTRUCTURE
      1 RES1           1
@<TRIPOS>SET
DONOR_HYDROGENS      STATIC     ATOMS    <user>   **** ""
2 22 23
ATOM$RED        STATIC     ATOMS    COLORGROUP SYSTEM
2 22 23
@<TRIPOS>COMMENT
> <Gold.Version>
2022.3.0

> <Gold.Id.Protein>
unknown|3mvj_clean|pdb

> <Gold.Protein.RotatedTorsions>
[ 11816 11799 11798 11795 ] final   51.13 input   60.01 | X-H torsion
[ 11879 11856 11855 11854 ] final -137.28 input   60.02 | X-H torsion
[ 10986 10959 10958 10956 ] final -127.47 input   60.00 | X-H torsion
[ 10978 10948 10949 10950 ] final  108.52 input   32.02 | X-H torsion
[ 10745 10719 10718 10716 ] final   78.27 input   60.01 | X-H torsion
[ 12083 12056 12057 12058 ] final  -41.64 input   63.02 | X-H torsion
[ 10921 10911 10912 10913 ] final  126.04 input  -92.90 | X-H torsion
[ 6177 6140 6141 6142 ] final -118.32 input   39.58 | X-H torsion
[ 6115 6105 6106 6107 ] final   81.40 input  -69.34 | X-H torsion
[ 5955 5918 5919 5920 ] final  -88.27 input  125.26 | X-H torsion
[ 6027 5990 5991 5992 ] final  102.57 input  110.40 | X-H torsion
[ 6086 6056 6057 6058 ] final -126.16 input  107.04 | X-H torsion
[ 11660 11631 11630 11629 ] final  150.68 input   60.02 | X-H torsion
[ 11213 11201 11202 11203 ] final -133.56 input   18.84 | X-H torsion
[ 11249 11237 11238 11239 ] final -124.47 input  111.29 | X-H torsion
[ 11182 11153 11154 11155 ] final   89.98 input   30.50 | X-H torsion
[ 11292 11275 11276 11277 ] final   -4.15 input   58.53 | X-H torsion
[ 9445 9430 9431 9432 ] final  -27.16 input  110.06 | X-H torsion
[ 11493 11474 11475 11476 ] final   17.76 input  115.95 | X-H torsion
[ 11385 11366 11367 11368 ] final    6.95 input  117.79 | X-H torsion
[ 11568 11550 11549 11547 ] final   89.39 input   59.97 | X-H torsion
[ 9362 9348 9346 9343 ] final  142.99 input   60.02 | X-H torsion
[ 9502 9481 9482 9483 ] final   50.38 input   75.78 | X-H torsion
[ 15476 15466 15465 15463 ] final -175.80 input   60.00 | X-H torsion
[ 7768 7731 7730 7729 ] final -178.79 input   60.02 | X-H torsion
[ 7852 7831 7832 7833 ] final   -5.54 input  113.97 | X-H torsion
[ 5737 5717 5718 5719 ] final -140.43 input  137.93 | X-H torsion
[ 5778 5767 5768 5769 ] final   45.57 input  116.46 | X-H torsion
[ 1832 1818 1819 1820 ] final  -52.31 input   43.70 | X-H torsion
[ 5782 5772 5771 5768 ] final   43.23 input   59.97 | X-H torsion
[ 15411 15403 15404 15405 ] final -114.53 input  102.24 | X-H torsion
[ 1801 1791 1792 1793 ] final  172.06 input  -10.55 | X-H torsion
[ 5638 5617 5618 5619 ] final   46.62 input   93.34 | X-H torsion
[ 7894 7874 7875 7876 ] final  176.69 input   68.03 | X-H torsion
[ 1838 1824 1822 1819 ] final   13.42 input   60.02 | X-H torsion
[ 1861 1854 1855 1856 ] final   96.95 input   57.50 | X-H torsion
[ 9356 9342 9343 9344 ] final   93.09 input   55.58 | X-H torsion
[ 9510 9492 9491 9489 ] final   44.21 input   60.02 | X-H torsion
[ 7758 7723 7724 7725 ] final  135.34 input   17.81 | X-H torsion
[ 1898 1884 1883 1880 ] final -162.65 input   60.01 | X-H torsion
[ 9322 9315 9316 9317 ] final   59.85 input  -36.21 | X-H torsion
[ 1894 1879 1880 1881 ] final -170.27 input   98.21 | X-H torsion
[ 9297 9286 9287 9288 ] final  -92.29 input   37.00 | X-H torsion
[ 9252 9233 9234 9235 ] final  -59.04 input   95.32 | X-H torsion
[ 3370 3362 3363 3364 ] final  -90.99 input   97.92 | X-H torsion
[ 1951 1922 1923 1924 ] final   12.71 input  104.43 | X-H torsion
[ 12164 12148 12149 12150 ] final  143.61 input  116.04 | X-H torsion
[ 11673 11649 11648 11647 ] final   52.29 input   59.99 | X-H torsion
[ 12008 11984 11985 11986 ] final -105.36 input   61.04 | X-H torsion
[ 11122 11093 11094 11095 ] final  -44.81 input   39.50 | X-H torsion
[ 7946 7916 7917 7918 ] final  -65.03 input   66.66 | X-H torsion
[ 8659 8630 8631 8632 ] final   84.20 input   75.31 | X-H torsion
[ 9555 9536 9537 9538 ] final -133.66 input  103.50 | X-H torsion
[ 16472 10886 10885 10884 ] final   36.43 input    0.00 | X-H torsion
[ 16475 11004 11003 11002 ] final -116.85 input    0.00 | X-H torsion
[ 16477 10914 10913 10912 ] final  -99.86 input    0.00 | X-H torsion
[ 16479 10951 10950 10949 ] final  -50.95 input   -0.00 | X-H torsion
[ 16484 11987 11986 11985 ] final  -78.50 input    0.00 | X-H torsion
[ 16486 12059 12058 12057 ] final -172.19 input   -0.00 | X-H torsion
[ 16490 11046 11045 11044 ] final  177.17 input    0.00 | X-H torsion
[ 16500 6108 6107 6106 ] final -167.36 input    0.00 | X-H torsion
[ 16503 5921 5920 5919 ] final   51.99 input   -0.00 | X-H torsion
[ 16506 6059 6058 6057 ] final -120.29 input    0.00 | X-H torsion
[ 16510 5858 5857 5856 ] final   95.42 input    0.00 | X-H torsion
[ 16518 5993 5992 5991 ] final   44.34 input   -0.00 | X-H torsion
[ 16523 11156 11155 11154 ] final  170.13 input    0.00 | X-H torsion
[ 16528 11204 11203 11202 ] final -119.04 input    0.00 | X-H torsion
[ 16540 11096 11095 11094 ] final -122.11 input   -0.00 | X-H torsion
[ 16544 10768 10767 10766 ] final   43.72 input   -0.00 | X-H torsion
[ 16552 11240 11239 11238 ] final  153.89 input    0.00 | X-H torsion
[ 16558 11278 11277 11276 ] final   35.73 input   -0.00 | X-H torsion
[ 16562 11325 11324 11323 ] final  -81.24 input   -0.00 | X-H torsion
[ 16566 9387 9386 9385 ] final  101.76 input   -0.00 | X-H torsion
[ 16570 9345 9344 9343 ] final   51.43 input    0.00 | X-H torsion
[ 16579 5720 5719 5718 ] final  -58.09 input    0.00 | X-H torsion
[ 16592 1821 1820 1819 ] final -155.21 input    0.00 | X-H torsion
[ 16594 7834 7833 7832 ] final   15.09 input    0.00 | X-H torsion
[ 16600 1745 1744 1743 ] final  168.23 input    0.00 | X-H torsion
[ 16608 5620 5619 5618 ] final   22.01 input   -0.00 | X-H torsion
[ 16610 7788 7787 7786 ] final   90.24 input   -0.00 | X-H torsion
[ 16613 1794 1793 1792 ] final  147.23 input   -0.00 | X-H torsion
[ 16622 9318 9317 9316 ] final -138.15 input   -0.00 | X-H torsion
[ 16627 9433 9432 9431 ] final -101.65 input    0.00 | X-H torsion
[ 16631 7667 7666 7665 ] final   86.63 input   -0.00 | X-H torsion
[ 16635 7726 7725 7724 ] final   62.40 input    0.00 | X-H torsion
[ 16637 10539 10538 10537 ] final   54.25 input   -0.00 | X-H torsion
[ 16643 1857 1856 1855 ] final -137.51 input    0.00 | X-H torsion
[ 16645 7565 7564 7563 ] final   24.54 input    0.00 | X-H torsion
[ 16647 9289 9288 9287 ] final  -46.48 input    0.00 | X-H torsion
[ 16649 9236 9235 9234 ] final   43.15 input    0.00 | X-H torsion
[ 16655 3365 3364 3363 ] final   26.53 input    0.00 | X-H torsion

> <Gold.Protein.ActiveResidues>
 LEU49   GLY50   THR51   GLY52   SER53   PHE54   VAL57   LEU82   LYS83   GLN84  
 HIS87   GLU127  PHE129  SER130  LEU132  ARG133  ARG134  ILE135  GLY136  ARG137 
 ARG165  ASP166  LEU167  LYS168  PRO169  GLU170  ASN171  LEU172  LEU173  ASP184 
 GLY186  PHE187  TPO197  LEU198  CYS199  GLY200  THR201  PRO202  GLU203  TYR204 
 LEU205  ILE209  ILE210  VAL226  LEU227  TYR229  GLU230  ALA233  GLY234  TYR235 
 PRO236  PRO237  PHE238  PHE239  ALA240  ASP241  GLN242  PRO243  ILE244  GLN245 
 ILE246  TYR247  GLU248  LYS249  ILE250  VAL251  SER252  LYS254  ARG256  PHE257 
 PRO258  SER259  PHE327  ASP328  TYR330 

> <Gold.Protein.RotatedAtoms>
    0.6612  -13.7375   20.3992 H   0  0  0  0  0  0  0  0  0  0  0  0  # atno 1801 bound_to 1791
   -1.6735  -14.4214   23.8458 H   0  0  0  0  0  0  0  0  0  0  0  0  # atno 1832 bound_to 1818
   -1.3567  -14.6533   28.1689 H   0  0  0  0  0  0  0  0  0  0  0  0  # atno 1838 bound_to 1824
   -2.6469  -16.8380   26.4923 H   0  0  0  0  0  0  0  0  0  0  0  0  # atno 1861 bound_to 1854
   -4.5471  -16.0522   30.1433 H   0  0  0  0  0  0  0  0  0  0  0  0  # atno 1894 bound_to 1879
   -6.3564  -15.7216   33.2083 H   0  0  0  0  0  0  0  0  0  0  0  0  # atno 1898 bound_to 1884
   -3.7870  -19.0568   30.1327 H   0  0  0  0  0  0  0  0  0  0  0  0  # atno 1951 bound_to 1922
   -8.1546  -24.4009   37.1483 H   0  0  0  0  0  0  0  0  0  0  0  0  # atno 3370 bound_to 3362
   -4.1538   -9.2665   13.6548 H   0  0  0  0  0  0  0  0  0  0  0  0  # atno 5638 bound_to 5617
   -9.7695   -7.9045   14.5443 H   0  0  0  0  0  0  0  0  0  0  0  0  # atno 5737 bound_to 5717
   -6.8914   -6.1795   14.6578 H   0  0  0  0  0  0  0  0  0  0  0  0  # atno 5778 bound_to 5767
   -4.4385   -5.7149   13.3381 H   0  0  0  0  0  0  0  0  0  0  0  0  # atno 5782 bound_to 5772
   -9.9544   -1.4711   14.4227 H   0  0  0  0  0  0  0  0  0  0  0  0  # atno 5955 bound_to 5918
   -6.9160   -0.6080   14.2004 H   0  0  0  0  0  0  0  0  0  0  0  0  # atno 6027 bound_to 5990
   -6.7862    1.4972   11.8467 H   0  0  0  0  0  0  0  0  0  0  0  0  # atno 6086 bound_to 6056
  -10.0816    2.5441   11.4928 H   0  0  0  0  0  0  0  0  0  0  0  0  # atno 6115 bound_to 6105
  -12.5182    1.8252   12.3245 H   0  0  0  0  0  0  0  0  0  0  0  0  # atno 6177 bound_to 6140
  -15.2608  -13.4264   18.9466 H   0  0  0  0  0  0  0  0  0  0  0  0  # atno 7758 bound_to 7723
  -11.4466  -13.2367   24.3978 H   0  0  0  0  0  0  0  0  0  0  0  0  # atno 7768 bound_to 7731
  -11.5424  -11.6365   23.9761 H   0  0  0  0  0  0  0  0  0  0  0  0  # atno 7769 bound_to 7731
  -12.9017  -12.4459   24.4730 H   0  0  0  0  0  0  0  0  0  0  0  0  # atno 7770 bound_to 7731
  -11.1168  -10.8563   17.0878 H   0  0  0  0  0  0  0  0  0  0  0  0  # atno 7852 bound_to 7831
  -10.1356  -12.6983   18.4240 H   0  0  0  0  0  0  0  0  0  0  0  0  # atno 7894 bound_to 7874
   -9.5440  -14.1827   15.4074 H   0  0  0  0  0  0  0  0  0  0  0  0  # atno 7946 bound_to 7916
  -13.5634  -21.8171   22.8204 H   0  0  0  0  0  0  0  0  0  0  0  0  # atno 8659 bound_to 8630
  -21.3223  -21.1892   30.3809 H   0  0  0  0  0  0  0  0  0  0  0  0  # atno 9252 bound_to 9233
  -20.0259  -18.2739   30.0441 H   0  0  0  0  0  0  0  0  0  0  0  0  # atno 9297 bound_to 9286
  -17.9467  -16.5248   28.0591 H   0  0  0  0  0  0  0  0  0  0  0  0  # atno 9322 bound_to 9315
  -17.2511  -13.8263   24.7179 H   0  0  0  0  0  0  0  0  0  0  0  0  # atno 9356 bound_to 9342
  -14.4552  -13.2245   23.5872 H   0  0  0  0  0  0  0  0  0  0  0  0  # atno 9362 bound_to 9348
  -19.1510   -9.1648   25.9650 H   0  0  0  0  0  0  0  0  0  0  0  0  # atno 9445 bound_to 9430
  -19.3693   -9.9798   24.4145 H   0  0  0  0  0  0  0  0  0  0  0  0  # atno 9502 bound_to 9481
  -16.0819   -7.6251   18.3075 H   0  0  0  0  0  0  0  0  0  0  0  0  # atno 9510 bound_to 9492
  -20.8151  -11.6702   24.0369 H   0  0  0  0  0  0  0  0  0  0  0  0  # atno 9555 bound_to 9536
  -23.6517    1.8866   17.3102 H   0  0  0  0  0  0  0  0  0  0  0  0  # atno 10745 bound_to 10719
  -17.2867    1.5187   13.7377 H   0  0  0  0  0  0  0  0  0  0  0  0  # atno 10921 bound_to 10911
  -17.1435    1.5586   16.7414 H   0  0  0  0  0  0  0  0  0  0  0  0  # atno 10978 bound_to 10948
  -21.7146    4.8990   16.4740 H   0  0  0  0  0  0  0  0  0  0  0  0  # atno 10986 bound_to 10959
  -22.0189   -1.8179   22.2999 H   0  0  0  0  0  0  0  0  0  0  0  0  # atno 11122 bound_to 11093
  -21.2870   -0.6914   24.7213 H   0  0  0  0  0  0  0  0  0  0  0  0  # atno 11182 bound_to 11153
  -19.3966   -0.1516   27.4176 H   0  0  0  0  0  0  0  0  0  0  0  0  # atno 11213 bound_to 11201
  -17.4652    0.9829   30.3900 H   0  0  0  0  0  0  0  0  0  0  0  0  # atno 11249 bound_to 11237
  -17.7593   -1.3555   32.2161 H   0  0  0  0  0  0  0  0  0  0  0  0  # atno 11292 bound_to 11275
  -19.8939   -5.1258   33.6565 H   0  0  0  0  0  0  0  0  0  0  0  0  # atno 11385 bound_to 11366
  -22.5634   -4.1234   31.7859 H   0  0  0  0  0  0  0  0  0  0  0  0  # atno 11493 bound_to 11474
  -18.6336   -9.8448   31.8617 H   0  0  0  0  0  0  0  0  0  0  0  0  # atno 11568 bound_to 11550
   -9.2996    8.5832   26.8751 H   0  0  0  0  0  0  0  0  0  0  0  0  # atno 11660 bound_to 11631
   -8.6365    8.0644   25.4479 H   0  0  0  0  0  0  0  0  0  0  0  0  # atno 11661 bound_to 11631
   -7.9044    9.2764   26.3084 H   0  0  0  0  0  0  0  0  0  0  0  0  # atno 11662 bound_to 11631
  -24.2885    2.3551   29.2015 H   0  0  0  0  0  0  0  0  0  0  0  0  # atno 11673 bound_to 11649
  -24.2440    3.0696   27.7059 H   0  0  0  0  0  0  0  0  0  0  0  0  # atno 11674 bound_to 11649
  -25.5905    2.2284   28.1826 H   0  0  0  0  0  0  0  0  0  0  0  0  # atno 11675 bound_to 11649
  -13.3011   16.9624   23.0329 H   0  0  0  0  0  0  0  0  0  0  0  0  # atno 11816 bound_to 11799
  -17.5585   16.3450   23.9642 H   0  0  0  0  0  0  0  0  0  0  0  0  # atno 11879 bound_to 11856
  -16.8951   14.9544   24.5759 H   0  0  0  0  0  0  0  0  0  0  0  0  # atno 11880 bound_to 11856
  -18.2863   15.5688   25.2357 H   0  0  0  0  0  0  0  0  0  0  0  0  # atno 11881 bound_to 11856
  -29.4063    0.8259   19.4829 H   0  0  0  0  0  0  0  0  0  0  0  0  # atno 12008 bound_to 11984
  -27.4022    3.7051   17.4548 H   0  0  0  0  0  0  0  0  0  0  0  0  # atno 12083 bound_to 12056
  -24.8618    7.8817   13.4934 H   0  0  0  0  0  0  0  0  0  0  0  0  # atno 12164 bound_to 12148
    1.4200   -7.4709   17.0305 H   0  0  0  0  0  0  0  0  0  0  0  0  # atno 15411 bound_to 15403
   -2.1285   -9.7937   22.3271 H   0  0  0  0  0  0  0  0  0  0  0  0  # atno 15476 bound_to 15466
  -12.3154   15.9330   22.2477 LP  0  0  0  0  0  0  0  0  0  0  0  0  # atno 16466 bound_to 11799
  -13.2751   15.3904   23.4524 LP  0  0  0  0  0  0  0  0  0  0  0  0  # atno 16467 bound_to 11799
  -21.6814    5.7192   17.8792 LP  0  0  0  0  0  0  0  0  0  0  0  0  # atno 16468 bound_to 10959
  -22.6020    4.3782   17.7348 LP  0  0  0  0  0  0  0  0  0  0  0  0  # atno 16469 bound_to 10959
  -18.1545    3.6345   14.7446 LP  0  0  0  0  0  0  0  0  0  0  0  0  # atno 16472 bound_to 10886
  -16.5509    3.3027   14.1806 LP  0  0  0  0  0  0  0  0  0  0  0  0  # atno 16473 bound_to 10886
  -16.5361   -0.0560   16.4303 LP  0  0  0  0  0  0  0  0  0  0  0  0  # atno 16474 bound_to 10948
  -20.9932   -0.5756   21.8757 LP  0  0  0  0  0  0  0  0  0  0  0  0  # atno 16475 bound_to 11004
  -20.3032    0.1485   20.4617 LP  0  0  0  0  0  0  0  0  0  0  0  0  # atno 16476 bound_to 11004
  -14.1499    0.3026   17.5595 LP  0  0  0  0  0  0  0  0  0  0  0  0  # atno 16477 bound_to 10914
  -14.3610    2.0128   17.3841 LP  0  0  0  0  0  0  0  0  0  0  0  0  # atno 16478 bound_to 10914
  -19.6229    0.1578   17.4473 LP  0  0  0  0  0  0  0  0  0  0  0  0  # atno 16479 bound_to 10951
  -19.4605   -1.5629   17.3343 LP  0  0  0  0  0  0  0  0  0  0  0  0  # atno 16480 bound_to 10951
  -23.3462    1.2487   18.7756 LP  0  0  0  0  0  0  0  0  0  0  0  0  # atno 16482 bound_to 10719
  -24.8593    1.2066   18.1628 LP  0  0  0  0  0  0  0  0  0  0  0  0  # atno 16483 bound_to 10719
  -25.5994    2.1449   18.3431 LP  0  0  0  0  0  0  0  0  0  0  0  0  # atno 16484 bound_to 11987
  -26.3751    0.8596   17.4792 LP  0  0  0  0  0  0  0  0  0  0  0  0  # atno 16485 bound_to 11987
  -26.4811    6.2390   14.8761 LP  0  0  0  0  0  0  0  0  0  0  0  0  # atno 16486 bound_to 12059
  -27.7572    5.3721   15.6635 LP  0  0  0  0  0  0  0  0  0  0  0  0  # atno 16487 bound_to 12059
  -24.5339   -0.7815   23.2756 LP  0  0  0  0  0  0  0  0  0  0  0  0  # atno 16490 bound_to 11046
  -24.8512   -0.3344   21.6326 LP  0  0  0  0  0  0  0  0  0  0  0  0  # atno 16491 bound_to 11046
  -28.6037    2.6975   16.6851 LP  0  0  0  0  0  0  0  0  0  0  0  0  # atno 16492 bound_to 12056
  -17.5420    0.0121   14.5921 LP  0  0  0  0  0  0  0  0  0  0  0  0  # atno 16493 bound_to 10911
  -13.6554    0.5048   13.2894 LP  0  0  0  0  0  0  0  0  0  0  0  0  # atno 16500 bound_to 6108
  -12.7225    1.2612   14.5374 LP  0  0  0  0  0  0  0  0  0  0  0  0  # atno 16501 bound_to 6108
  -12.8928    3.0295   11.1143 LP  0  0  0  0  0  0  0  0  0  0  0  0  # atno 16502 bound_to 6140
   -8.5373    2.2005   16.3112 LP  0  0  0  0  0  0  0  0  0  0  0  0  # atno 16503 bound_to 5921
   -8.5838    2.4203   14.5938 LP  0  0  0  0  0  0  0  0  0  0  0  0  # atno 16504 bound_to 5921
   -9.6038    1.7902   12.9989 LP  0  0  0  0  0  0  0  0  0  0  0  0  # atno 16505 bound_to 6105
   -9.8476    4.8205   11.7352 LP  0  0  0  0  0  0  0  0  0  0  0  0  # atno 16506 bound_to 6059
  -10.2280    4.2147   10.1578 LP  0  0  0  0  0  0  0  0  0  0  0  0  # atno 16507 bound_to 6059
  -10.9719    0.2931   13.8938 LP  0  0  0  0  0  0  0  0  0  0  0  0  # atno 16510 bound_to 5858
   -9.5438    0.4795   12.9317 LP  0  0  0  0  0  0  0  0  0  0  0  0  # atno 16511 bound_to 5858
   -8.4507   -2.2664   14.8173 LP  0  0  0  0  0  0  0  0  0  0  0  0  # atno 16516 bound_to 5918
   -7.7105    0.6640   15.1088 LP  0  0  0  0  0  0  0  0  0  0  0  0  # atno 16517 bound_to 5990
   -5.8601    3.6668   12.4577 LP  0  0  0  0  0  0  0  0  0  0  0  0  # atno 16518 bound_to 5993
   -7.5643    3.9093   12.2652 LP  0  0  0  0  0  0  0  0  0  0  0  0  # atno 16519 bound_to 5993
   -8.2852    0.8099   12.4052 LP  0  0  0  0  0  0  0  0  0  0  0  0  # atno 16520 bound_to 6056
  -20.9779    1.0119   28.1522 LP  0  0  0  0  0  0  0  0  0  0  0  0  # atno 16523 bound_to 11156
  -21.3079    0.7202   26.4770 LP  0  0  0  0  0  0  0  0  0  0  0  0  # atno 16524 bound_to 11156
  -18.8562   -1.5429   28.3375 LP  0  0  0  0  0  0  0  0  0  0  0  0  # atno 16525 bound_to 11201
  -16.4907   -1.5025   30.1541 LP  0  0  0  0  0  0  0  0  0  0  0  0  # atno 16528 bound_to 11204
  -16.3932   -0.4117   28.8122 LP  0  0  0  0  0  0  0  0  0  0  0  0  # atno 16529 bound_to 11204
  -18.3527    0.4373   31.7934 LP  0  0  0  0  0  0  0  0  0  0  0  0  # atno 16530 bound_to 11237
  -21.7062   -2.0668   25.7197 LP  0  0  0  0  0  0  0  0  0  0  0  0  # atno 16533 bound_to 11153
  -20.4099   -3.9307   25.4929 LP  0  0  0  0  0  0  0  0  0  0  0  0  # atno 16540 bound_to 11096
  -20.5170   -3.7985   23.7692 LP  0  0  0  0  0  0  0  0  0  0  0  0  # atno 16541 bound_to 11096
  -16.2590   -1.8717   15.2473 LP  0  0  0  0  0  0  0  0  0  0  0  0  # atno 16544 bound_to 10768
  -16.7440   -1.4992   13.6267 LP  0  0  0  0  0  0  0  0  0  0  0  0  # atno 16545 bound_to 10768
  -14.8636   -2.2170   33.2329 LP  0  0  0  0  0  0  0  0  0  0  0  0  # atno 16552 bound_to 11240
  -14.3848   -1.2494   31.8784 LP  0  0  0  0  0  0  0  0  0  0  0  0  # atno 16553 bound_to 11240
  -16.7582   -0.6912   33.4854 LP  0  0  0  0  0  0  0  0  0  0  0  0  # atno 16554 bound_to 11275
  -19.2114   -2.6108   32.0325 LP  0  0  0  0  0  0  0  0  0  0  0  0  # atno 16558 bound_to 11278
  -19.9244   -4.1147   32.5121 LP  0  0  0  0  0  0  0  0  0  0  0  0  # atno 16559 bound_to 11278
  -17.8733   -7.9852   26.1565 LP  0  0  0  0  0  0  0  0  0  0  0  0  # atno 16561 bound_to 9430
  -21.1208   -5.4378   31.4960 LP  0  0  0  0  0  0  0  0  0  0  0  0  # atno 16562 bound_to 11325
  -21.2780   -7.1100   31.9192 LP  0  0  0  0  0  0  0  0  0  0  0  0  # atno 16563 bound_to 11325
  -21.5614   -2.7911   31.2463 LP  0  0  0  0  0  0  0  0  0  0  0  0  # atno 16564 bound_to 11474
  -19.6033   -6.6068   34.5214 LP  0  0  0  0  0  0  0  0  0  0  0  0  # atno 16565 bound_to 11366
  -21.0422   -7.9660   27.1631 LP  0  0  0  0  0  0  0  0  0  0  0  0  # atno 16566 bound_to 9387
  -21.2331   -9.5265   26.4363 LP  0  0  0  0  0  0  0  0  0  0  0  0  # atno 16567 bound_to 9387
  -19.2308  -11.0024   30.8864 LP  0  0  0  0  0  0  0  0  0  0  0  0  # atno 16568 bound_to 11550
  -19.3059  -11.1783   32.5081 LP  0  0  0  0  0  0  0  0  0  0  0  0  # atno 16569 bound_to 11550
  -19.0008  -12.2591   25.2411 LP  0  0  0  0  0  0  0  0  0  0  0  0  # atno 16570 bound_to 9345
  -18.8682  -10.5599   24.9327 LP  0  0  0  0  0  0  0  0  0  0  0  0  # atno 16571 bound_to 9345
  -15.0035  -13.9175   24.9534 LP  0  0  0  0  0  0  0  0  0  0  0  0  # atno 16572 bound_to 9348
  -13.7343  -12.8915   25.0074 LP  0  0  0  0  0  0  0  0  0  0  0  0  # atno 16573 bound_to 9348
  -19.7853   -8.5883   23.4392 LP  0  0  0  0  0  0  0  0  0  0  0  0  # atno 16574 bound_to 9481
   -9.0318   -3.8792   15.1841 LP  0  0  0  0  0  0  0  0  0  0  0  0  # atno 16579 bound_to 5720
   -7.9077   -3.5526   16.4607 LP  0  0  0  0  0  0  0  0  0  0  0  0  # atno 16580 bound_to 5720
   -1.7554  -10.9270   21.2208 LP  0  0  0  0  0  0  0  0  0  0  0  0  # atno 16587 bound_to 15466
   -1.3230   -9.3711   20.9780 LP  0  0  0  0  0  0  0  0  0  0  0  0  # atno 16588 bound_to 15466
  -10.8774   -9.3707   17.9917 LP  0  0  0  0  0  0  0  0  0  0  0  0  # atno 16591 bound_to 7831
   -3.7296  -13.7101   27.2413 LP  0  0  0  0  0  0  0  0  0  0  0  0  # atno 16592 bound_to 1821
   -2.9470  -13.2463   25.7674 LP  0  0  0  0  0  0  0  0  0  0  0  0  # atno 16593 bound_to 1821
   -7.3067  -12.4025   18.5026 LP  0  0  0  0  0  0  0  0  0  0  0  0  # atno 16594 bound_to 7834
   -7.8323  -13.7045   17.4884 LP  0  0  0  0  0  0  0  0  0  0  0  0  # atno 16595 bound_to 7834
   -8.0335   -7.7774   14.3160 LP  0  0  0  0  0  0  0  0  0  0  0  0  # atno 16596 bound_to 5717
   -6.9808   -5.7928   16.3625 LP  0  0  0  0  0  0  0  0  0  0  0  0  # atno 16597 bound_to 5767
   -1.1133  -13.0911   19.9759 LP  0  0  0  0  0  0  0  0  0  0  0  0  # atno 16600 bound_to 1745
   -0.0824  -12.6628   18.6516 LP  0  0  0  0  0  0  0  0  0  0  0  0  # atno 16601 bound_to 1745
   -0.2257  -13.6153   24.4066 LP  0  0  0  0  0  0  0  0  0  0  0  0  # atno 16602 bound_to 1818
   -4.4361   -6.9486   14.3993 LP  0  0  0  0  0  0  0  0  0  0  0  0  # atno 16603 bound_to 5772
   -3.0332   -6.2252   13.9806 LP  0  0  0  0  0  0  0  0  0  0  0  0  # atno 16604 bound_to 5772
    1.1075   -8.8523   18.0549 LP  0  0  0  0  0  0  0  0  0  0  0  0  # atno 16605 bound_to 15403
    1.4825  -14.6264   21.6643 LP  0  0  0  0  0  0  0  0  0  0  0  0  # atno 16606 bound_to 1791
   -4.1040  -10.9481   13.1672 LP  0  0  0  0  0  0  0  0  0  0  0  0  # atno 16607 bound_to 5617
   -5.2484   -7.9436   13.2443 LP  0  0  0  0  0  0  0  0  0  0  0  0  # atno 16608 bound_to 5620
   -6.8232   -7.2224   13.2517 LP  0  0  0  0  0  0  0  0  0  0  0  0  # atno 16609 bound_to 5620
   -9.3868   -9.5367   15.2967 LP  0  0  0  0  0  0  0  0  0  0  0  0  # atno 16610 bound_to 7788
   -9.9460  -11.1685   15.1396 LP  0  0  0  0  0  0  0  0  0  0  0  0  # atno 16611 bound_to 7788
  -10.3242  -12.3628   16.7228 LP  0  0  0  0  0  0  0  0  0  0  0  0  # atno 16612 bound_to 7874
    0.7206  -16.1386   24.2884 LP  0  0  0  0  0  0  0  0  0  0  0  0  # atno 16613 bound_to 1794
    0.2371  -16.4252   22.6501 LP  0  0  0  0  0  0  0  0  0  0  0  0  # atno 16614 bound_to 1794
   -0.2852  -13.4366   28.3088 LP  0  0  0  0  0  0  0  0  0  0  0  0  # atno 16615 bound_to 1824
    0.1001  -14.9327   28.8379 LP  0  0  0  0  0  0  0  0  0  0  0  0  # atno 16616 bound_to 1824
   -2.1883  -15.2826   27.1636 LP  0  0  0  0  0  0  0  0  0  0  0  0  # atno 16617 bound_to 1854
  -15.8174  -13.9064   27.9216 LP  0  0  0  0  0  0  0  0  0  0  0  0  # atno 16622 bound_to 9318
  -15.3126  -15.4637   27.3561 LP  0  0  0  0  0  0  0  0  0  0  0  0  # atno 16623 bound_to 9318
  -17.3204  -14.1458   26.4368 LP  0  0  0  0  0  0  0  0  0  0  0  0  # atno 16624 bound_to 9342
  -22.0416   -7.9571   23.3667 LP  0  0  0  0  0  0  0  0  0  0  0  0  # atno 16627 bound_to 9433
  -20.9063   -7.2431   22.2706 LP  0  0  0  0  0  0  0  0  0  0  0  0  # atno 16628 bound_to 9433
  -17.4929   -6.8193   18.2179 LP  0  0  0  0  0  0  0  0  0  0  0  0  # atno 16629 bound_to 9492
  -17.1942   -8.0637   17.2035 LP  0  0  0  0  0  0  0  0  0  0  0  0  # atno 16630 bound_to 9492
  -16.9184  -13.0156   20.3398 LP  0  0  0  0  0  0  0  0  0  0  0  0  # atno 16631 bound_to 7667
  -17.7107  -12.1807   19.0455 LP  0  0  0  0  0  0  0  0  0  0  0  0  # atno 16632 bound_to 7667
  -15.2439  -13.2930   17.1977 LP  0  0  0  0  0  0  0  0  0  0  0  0  # atno 16634 bound_to 7723
  -13.5691  -12.7724   16.0654 LP  0  0  0  0  0  0  0  0  0  0  0  0  # atno 16635 bound_to 7726
  -12.0645  -12.3441   16.8089 LP  0  0  0  0  0  0  0  0  0  0  0  0  # atno 16636 bound_to 7726
  -20.3262   -5.7851   17.3314 LP  0  0  0  0  0  0  0  0  0  0  0  0  # atno 16637 bound_to 10539
  -20.4721   -5.9459   15.6130 LP  0  0  0  0  0  0  0  0  0  0  0  0  # atno 16638 bound_to 10539
   -6.4121  -15.9508   31.5985 LP  0  0  0  0  0  0  0  0  0  0  0  0  # atno 16639 bound_to 1884
   -5.0663  -15.3403   32.2933 LP  0  0  0  0  0  0  0  0  0  0  0  0  # atno 16640 bound_to 1884
  -17.2585  -17.7383   26.9989 LP  0  0  0  0  0  0  0  0  0  0  0  0  # atno 16641 bound_to 9315
   -4.5843  -17.6745   29.4905 LP  0  0  0  0  0  0  0  0  0  0  0  0  # atno 16642 bound_to 1879
   -1.9611  -17.6256   30.1595 LP  0  0  0  0  0  0  0  0  0  0  0  0  # atno 16643 bound_to 1857
   -1.6652  -16.0789   29.4382 LP  0  0  0  0  0  0  0  0  0  0  0  0  # atno 16644 bound_to 1857
  -18.3249  -18.2031   23.5501 LP  0  0  0  0  0  0  0  0  0  0  0  0  # atno 16645 bound_to 7565
  -17.4197  -16.8699   22.9150 LP  0  0  0  0  0  0  0  0  0  0  0  0  # atno 16646 bound_to 7565
  -20.1978  -18.3301   26.6339 LP  0  0  0  0  0  0  0  0  0  0  0  0  # atno 16647 bound_to 9289
  -20.1452  -16.6005   26.7094 LP  0  0  0  0  0  0  0  0  0  0  0  0  # atno 16648 bound_to 9289
  -18.7554  -19.7551   31.9987 LP  0  0  0  0  0  0  0  0  0  0  0  0  # atno 16649 bound_to 9236
  -18.0905  -18.3602   31.2163 LP  0  0  0  0  0  0  0  0  0  0  0  0  # atno 16650 bound_to 9236
  -20.2407  -19.5928   28.9171 LP  0  0  0  0  0  0  0  0  0  0  0  0  # atno 16653 bound_to 9286
  -21.6064  -21.0512   32.1015 LP  0  0  0  0  0  0  0  0  0  0  0  0  # atno 16654 bound_to 9233
  -10.8230  -22.7280   33.6733 LP  0  0  0  0  0  0  0  0  0  0  0  0  # atno 16655 bound_to 3365
  -12.0514  -23.8347   34.1893 LP  0  0  0  0  0  0  0  0  0  0  0  0  # atno 16656 bound_to 3365
   -7.3692  -24.5057   35.5904 LP  0  0  0  0  0  0  0  0  0  0  0  0  # atno 16657 bound_to 3362
   -5.1451  -19.5266   31.1361 LP  0  0  0  0  0  0  0  0  0  0  0  0  # atno 16658 bound_to 1922

> <Gold.Score>
     Fitness  S(hb_ext) S(vdw_ext)  S(hb_int)    S(int)      intcor
     27.60       0.00      20.62       0.00      -0.75      -0.77

> <Gold.Goldscore.Fitness>
27.5987

> <Gold.Goldscore.Internal.Vdw>
-0.8999

> <Gold.Goldscore.Internal.Torsion>
-0.6226

> <Gold.Goldscore.External.Vdw>
20.6201

> <Gold.Goldscore.Internal.HBond>
0.0000

> <Gold.Goldscore.External.HBond>
0.0000

> <Gold.Goldscore.Internal.Correction>
-0.7686

> <Gold.Goldscore.Internal.Vdw.Weighted>
-0.8999

> <Gold.Goldscore.Internal.Torsion.Weighted>
-0.6226

> <Gold.Goldscore.External.Vdw.Weighted>
28.3526

> <Gold.Goldscore.Internal.HBond.Weighted>
0.0000

> <Gold.Goldscore.External.HBond.Weighted>
0.0000

> <Gold.Goldscore.Internal.Correction.Weighted>
-0.7686

> <Gold.Rescore>
     Score     S(PLP)   S(hbond)     S(cho)   S(metal)  DE(clash)   DE(tors)     intcor
     19.32     -20.79       0.00       0.00       0.00       0.00       0.74       ----

> <Gold.PLP.Fitness>
19.3206

> <Gold.PLP.PLP>
-20.7935

> <Gold.PLP.part.hbond>
0.0000

> <Gold.PLP.part.metal>
0.0000

> <Gold.PLP.part.buried>
3.3375

> <Gold.PLP.part.nonpolar>
-28.5321

> <Gold.PLP.part.repulsive>
4.8527

> <Gold.PLP.ligand.clash>
0.0000

> <Gold.PLP.ligand.torsion>
0.7365

> <Gold.PLP.Chemscore.Hbond>
0.0000

> <Gold.PLP.Chemscore.CHOScore>
0.0000

> <Gold.PLP.Chemscore.Metal>
0.0000

> <Gold.PLP.Chemscore.Internal.Correction>
   9.000000E+99

