#       Name:                CT1002167954
#       Creating user name   hitesit
#       Creation time:       Sun Apr 16 20:17:43 2023


#       File generated by GOLD software.
#

@<TRIPOS>MOLECULE
CT1002167954|ligand_prepared|mol2|1|dock5
    29    30     1
SMALL
NO_CHARGES


@<TRIPOS>ATOM
      1 C1         -13.2326   5.2459  16.4016 C.3            1 RES1               0.0000
      2 C2         -12.7690   4.0554  17.2657 C.ar           1 RES1               0.0000
      3 C3         -14.2111   4.6771  15.3782 C.2            1 RES1               0.0000
      4 C4         -13.8533   6.2542  17.3621 C.2            1 RES1               0.0000
      5 C5         -12.0845   5.9523  15.6436 C.3            1 RES1               0.0000
      6 C6         -11.5362   3.4516  17.0372 C.ar           1 RES1               0.0000
      7 C7         -13.5606   3.5526  18.2949 C.ar           1 RES1               0.0000
      8 N8         -15.5371   4.9407  15.5573 N.am           1 RES1               0.0000
      9 O9         -13.8288   3.9748  14.4503 O.2            1 RES1               0.0000
     10 N10        -15.1962   6.5036  17.2518 N.am           1 RES1               0.0000
     11 O11        -13.1948   6.8225  18.2245 O.2            1 RES1               0.0000
     12 C12        -12.4964   7.2613  14.9887 C.3            1 RES1               0.0000
     13 C13        -11.1088   2.3856  17.8113 C.ar           1 RES1               0.0000
     14 C14        -13.1314   2.4863  19.0677 C.ar           1 RES1               0.0000
     15 C15        -16.0721   5.8697  16.4131 C.2            1 RES1               0.0000
     16 C16        -11.9058   1.9026  18.8273 C.ar           1 RES1               0.0000
     17 O17        -17.2759   6.1104  16.4101 O.2            1 RES1               0.0000
     18 H18        -11.2669   6.1515  16.3473 H              1 RES1               0.0000
     19 H19        -11.7031   5.2749  14.8696 H              1 RES1               0.0000
     20 H20        -10.8965   3.8164  16.2405 H              1 RES1               0.0000
     21 H21        -14.5290   3.9955  18.5014 H              1 RES1               0.0000
     22 H22        -16.1914   4.3968  15.0039 H              1 RES1               0.0000
     23 H23        -15.5783   7.2290  17.8501 H              1 RES1               0.0000
     24 H24        -11.6542   7.7153  14.4708 H              1 RES1               0.0000
     25 H25        -13.2911   7.0968  14.2640 H              1 RES1               0.0000
     26 H26        -12.8575   7.9681  15.7330 H              1 RES1               0.0000
     27 H27        -10.1440   1.9287  17.6172 H              1 RES1               0.0000
     28 H28        -13.7622   2.1091  19.8658 H              1 RES1               0.0000
     29 H29        -11.5706   1.0677  19.4338 H              1 RES1               0.0000
@<TRIPOS>BOND
    1    1    2 1     
    2    1    3 1     
    3    1    4 1     
    4    1    5 1     
    5    2    6 ar    
    6    2    7 ar    
    7    3    8 1     
    8    3    9 2     
    9    4   10 1     
   10    4   11 2     
   11    5   12 1     
   12    5   18 1     
   13    5   19 1     
   14    6   13 ar    
   15    6   20 1     
   16    7   14 ar    
   17    7   21 1     
   18    8   15 1     
   19    8   22 1     
   20   10   15 1     
   21   10   23 1     
   22   12   24 1     
   23   12   25 1     
   24   12   26 1     
   25   13   16 ar    
   26   13   27 1     
   27   14   16 ar    
   28   14   28 1     
   29   15   17 2     
   30   16   29 1     
@<TRIPOS>SUBSTRUCTURE
      1 RES1           1
@<TRIPOS>SET
DONOR_HYDROGENS      STATIC     ATOMS    <user>   **** ""
2 22 23
ATOM$RED        STATIC     ATOMS    COLORGROUP SYSTEM
2 22 23
@<TRIPOS>COMMENT
> <Gold.Version>
2022.3.0

> <Gold.Id.Protein>
unknown|3mvj_clean|pdb

> <Gold.Protein.RotatedTorsions>
[ 11816 11799 11798 11795 ] final  -95.85 input   60.01 | X-H torsion
[ 11879 11856 11855 11854 ] final  124.88 input   60.02 | X-H torsion
[ 10986 10959 10958 10956 ] final    1.21 input   60.00 | X-H torsion
[ 10978 10948 10949 10950 ] final   39.21 input   32.02 | X-H torsion
[ 10745 10719 10718 10716 ] final  129.00 input   60.01 | X-H torsion
[ 12083 12056 12057 12058 ] final -158.85 input   63.02 | X-H torsion
[ 10921 10911 10912 10913 ] final   29.66 input  -92.90 | X-H torsion
[ 6177 6140 6141 6142 ] final  160.57 input   39.58 | X-H torsion
[ 6115 6105 6106 6107 ] final   26.47 input  -69.34 | X-H torsion
[ 5955 5918 5919 5920 ] final   88.95 input  125.26 | X-H torsion
[ 6027 5990 5991 5992 ] final  -62.34 input  110.40 | X-H torsion
[ 6086 6056 6057 6058 ] final  -84.11 input  107.04 | X-H torsion
[ 11660 11631 11630 11629 ] final  -22.83 input   60.02 | X-H torsion
[ 11213 11201 11202 11203 ] final -138.53 input   18.84 | X-H torsion
[ 11249 11237 11238 11239 ] final  133.95 input  111.29 | X-H torsion
[ 11182 11153 11154 11155 ] final  139.59 input   30.50 | X-H torsion
[ 11292 11275 11276 11277 ] final -101.44 input   58.53 | X-H torsion
[ 9445 9430 9431 9432 ] final   22.56 input  110.06 | X-H torsion
[ 11493 11474 11475 11476 ] final  -15.85 input  115.95 | X-H torsion
[ 11385 11366 11367 11368 ] final -171.53 input  117.79 | X-H torsion
[ 11568 11550 11549 11547 ] final  -83.13 input   59.97 | X-H torsion
[ 9362 9348 9346 9343 ] final  -18.41 input   60.02 | X-H torsion
[ 9502 9481 9482 9483 ] final -149.53 input   75.78 | X-H torsion
[ 15476 15466 15465 15463 ] final  -17.55 input   60.00 | X-H torsion
[ 7768 7731 7730 7729 ] final   99.21 input   60.02 | X-H torsion
[ 7852 7831 7832 7833 ] final   37.84 input  113.97 | X-H torsion
[ 5737 5717 5718 5719 ] final   85.73 input  137.93 | X-H torsion
[ 5778 5767 5768 5769 ] final  171.15 input  116.46 | X-H torsion
[ 1832 1818 1819 1820 ] final   43.61 input   43.70 | X-H torsion
[ 5782 5772 5771 5768 ] final  -82.14 input   59.97 | X-H torsion
[ 15411 15403 15404 15405 ] final  -69.41 input  102.24 | X-H torsion
[ 1801 1791 1792 1793 ] final  170.77 input  -10.55 | X-H torsion
[ 5638 5617 5618 5619 ] final  -76.84 input   93.34 | X-H torsion
[ 7894 7874 7875 7876 ] final  -93.88 input   68.03 | X-H torsion
[ 1838 1824 1822 1819 ] final  -90.60 input   60.02 | X-H torsion
[ 1861 1854 1855 1856 ] final -153.57 input   57.50 | X-H torsion
[ 9356 9342 9343 9344 ] final -158.57 input   55.58 | X-H torsion
[ 9510 9492 9491 9489 ] final -140.00 input   60.02 | X-H torsion
[ 7758 7723 7724 7725 ] final -139.88 input   17.81 | X-H torsion
[ 1898 1884 1883 1880 ] final  100.59 input   60.01 | X-H torsion
[ 9322 9315 9316 9317 ] final  112.66 input  -36.21 | X-H torsion
[ 1894 1879 1880 1881 ] final -157.91 input   98.21 | X-H torsion
[ 9297 9286 9287 9288 ] final  -40.48 input   37.00 | X-H torsion
[ 9252 9233 9234 9235 ] final  -27.16 input   95.32 | X-H torsion
[ 3370 3362 3363 3364 ] final   57.07 input   97.92 | X-H torsion
[ 1951 1922 1923 1924 ] final  -79.86 input  104.43 | X-H torsion
[ 12164 12148 12149 12150 ] final  166.62 input  116.04 | X-H torsion
[ 11673 11649 11648 11647 ] final  -24.45 input   59.99 | X-H torsion
[ 12008 11984 11985 11986 ] final -137.31 input   61.04 | X-H torsion
[ 11122 11093 11094 11095 ] final -175.75 input   39.50 | X-H torsion
[ 7946 7916 7917 7918 ] final  -45.92 input   66.66 | X-H torsion
[ 8659 8630 8631 8632 ] final  -47.25 input   75.31 | X-H torsion
[ 9555 9536 9537 9538 ] final  -99.16 input  103.50 | X-H torsion
[ 16472 10886 10885 10884 ] final -168.19 input    0.00 | X-H torsion
[ 16475 11004 11003 11002 ] final -110.90 input    0.00 | X-H torsion
[ 16477 10914 10913 10912 ] final -132.05 input    0.00 | X-H torsion
[ 16479 10951 10950 10949 ] final  -43.87 input   -0.00 | X-H torsion
[ 16484 11987 11986 11985 ] final   11.09 input    0.00 | X-H torsion
[ 16486 12059 12058 12057 ] final   43.35 input   -0.00 | X-H torsion
[ 16490 11046 11045 11044 ] final   66.23 input    0.00 | X-H torsion
[ 16500 6108 6107 6106 ] final  -77.35 input    0.00 | X-H torsion
[ 16503 5921 5920 5919 ] final -177.20 input   -0.00 | X-H torsion
[ 16506 6059 6058 6057 ] final  136.26 input    0.00 | X-H torsion
[ 16510 5858 5857 5856 ] final  -14.20 input    0.00 | X-H torsion
[ 16518 5993 5992 5991 ] final   78.61 input   -0.00 | X-H torsion
[ 16523 11156 11155 11154 ] final  176.89 input    0.00 | X-H torsion
[ 16528 11204 11203 11202 ] final  165.69 input    0.00 | X-H torsion
[ 16540 11096 11095 11094 ] final  -14.33 input   -0.00 | X-H torsion
[ 16544 10768 10767 10766 ] final -160.74 input   -0.00 | X-H torsion
[ 16552 11240 11239 11238 ] final -118.39 input    0.00 | X-H torsion
[ 16558 11278 11277 11276 ] final  -98.70 input   -0.00 | X-H torsion
[ 16562 11325 11324 11323 ] final   96.70 input   -0.00 | X-H torsion
[ 16566 9387 9386 9385 ] final -154.96 input   -0.00 | X-H torsion
[ 16570 9345 9344 9343 ] final  -69.16 input    0.00 | X-H torsion
[ 16579 5720 5719 5718 ] final  124.83 input    0.00 | X-H torsion
[ 16592 1821 1820 1819 ] final   16.54 input    0.00 | X-H torsion
[ 16594 7834 7833 7832 ] final  -91.74 input    0.00 | X-H torsion
[ 16600 1745 1744 1743 ] final  -39.65 input    0.00 | X-H torsion
[ 16608 5620 5619 5618 ] final  -81.68 input   -0.00 | X-H torsion
[ 16610 7788 7787 7786 ] final  137.64 input   -0.00 | X-H torsion
[ 16613 1794 1793 1792 ] final  132.02 input   -0.00 | X-H torsion
[ 16622 9318 9317 9316 ] final -101.42 input   -0.00 | X-H torsion
[ 16627 9433 9432 9431 ] final   81.34 input    0.00 | X-H torsion
[ 16631 7667 7666 7665 ] final   25.41 input   -0.00 | X-H torsion
[ 16635 7726 7725 7724 ] final  -69.90 input    0.00 | X-H torsion
[ 16637 10539 10538 10537 ] final  -19.82 input   -0.00 | X-H torsion
[ 16643 1857 1856 1855 ] final  -18.44 input    0.00 | X-H torsion
[ 16645 7565 7564 7563 ] final  -19.86 input    0.00 | X-H torsion
[ 16647 9289 9288 9287 ] final  110.92 input    0.00 | X-H torsion
[ 16649 9236 9235 9234 ] final  103.89 input    0.00 | X-H torsion
[ 16655 3365 3364 3363 ] final -139.29 input    0.00 | X-H torsion

> <Gold.Protein.ActiveResidues>
 LEU49   GLY50   THR51   GLY52   SER53   PHE54   VAL57   LEU82   LYS83   GLN84  
 HIS87   GLU127  PHE129  SER130  LEU132  ARG133  ARG134  ILE135  GLY136  ARG137 
 ARG165  ASP166  LEU167  LYS168  PRO169  GLU170  ASN171  LEU172  LEU173  ASP184 
 GLY186  PHE187  TPO197  LEU198  CYS199  GLY200  THR201  PRO202  GLU203  TYR204 
 LEU205  ILE209  ILE210  VAL226  LEU227  TYR229  GLU230  ALA233  GLY234  TYR235 
 PRO236  PRO237  PHE238  PHE239  ALA240  ASP241  GLN242  PRO243  ILE244  GLN245 
 ILE246  TYR247  GLU248  LYS249  ILE250  VAL251  SER252  LYS254  ARG256  PHE257 
 PRO258  SER259  PHE327  ASP328  TYR330 

> <Gold.Protein.RotatedAtoms>
    0.6538  -13.7547   20.3922 H   0  0  0  0  0  0  0  0  0  0  0  0  # atno 1801 bound_to 1791
   -1.3572  -13.3325   24.5176 H   0  0  0  0  0  0  0  0  0  0  0  0  # atno 1832 bound_to 1818
   -0.5258  -13.4344   28.2071 H   0  0  0  0  0  0  0  0  0  0  0  0  # atno 1838 bound_to 1824
   -2.8470  -15.3876   26.3993 H   0  0  0  0  0  0  0  0  0  0  0  0  # atno 1861 bound_to 1854
   -4.3616  -16.0606   30.0984 H   0  0  0  0  0  0  0  0  0  0  0  0  # atno 1894 bound_to 1879
   -6.6630  -16.0138   31.8748 H   0  0  0  0  0  0  0  0  0  0  0  0  # atno 1898 bound_to 1884
   -3.9698  -19.3558   31.3773 H   0  0  0  0  0  0  0  0  0  0  0  0  # atno 1951 bound_to 1922
   -7.6935  -24.8612   35.5768 H   0  0  0  0  0  0  0  0  0  0  0  0  # atno 3370 bound_to 3362
   -4.3508  -10.4046   12.5899 H   0  0  0  0  0  0  0  0  0  0  0  0  # atno 5638 bound_to 5617
   -8.1717   -8.2527   14.7976 H   0  0  0  0  0  0  0  0  0  0  0  0  # atno 5737 bound_to 5717
   -6.4311   -6.3396   16.1622 H   0  0  0  0  0  0  0  0  0  0  0  0  # atno 5778 bound_to 5767
   -4.3555   -6.9673   14.4300 H   0  0  0  0  0  0  0  0  0  0  0  0  # atno 5782 bound_to 5772
   -8.4177   -2.2519   14.7895 H   0  0  0  0  0  0  0  0  0  0  0  0  # atno 5955 bound_to 5918
   -7.8566    0.7102   14.9289 H   0  0  0  0  0  0  0  0  0  0  0  0  # atno 6027 bound_to 5990
   -7.0422    1.8509   12.2937 H   0  0  0  0  0  0  0  0  0  0  0  0  # atno 6086 bound_to 6056
  -10.3633    1.7878   11.6438 H   0  0  0  0  0  0  0  0  0  0  0  0  # atno 6115 bound_to 6105
  -13.2071    2.7459   12.3731 H   0  0  0  0  0  0  0  0  0  0  0  0  # atno 6177 bound_to 6140
  -16.1075  -13.1055   18.1457 H   0  0  0  0  0  0  0  0  0  0  0  0  # atno 7758 bound_to 7723
  -12.6681  -13.0135   24.5822 H   0  0  0  0  0  0  0  0  0  0  0  0  # atno 7768 bound_to 7731
  -11.0731  -12.7807   24.1963 H   0  0  0  0  0  0  0  0  0  0  0  0  # atno 7769 bound_to 7731
  -12.1488  -11.5254   24.0684 H   0  0  0  0  0  0  0  0  0  0  0  0  # atno 7770 bound_to 7731
  -11.3958  -10.8878   17.6902 H   0  0  0  0  0  0  0  0  0  0  0  0  # atno 7852 bound_to 7831
   -9.3633  -12.4145   17.5041 H   0  0  0  0  0  0  0  0  0  0  0  0  # atno 7894 bound_to 7874
   -9.3828  -13.9405   15.3748 H   0  0  0  0  0  0  0  0  0  0  0  0  # atno 7946 bound_to 7916
  -13.3308  -23.4148   22.9575 H   0  0  0  0  0  0  0  0  0  0  0  0  # atno 8659 bound_to 8630
  -20.8855  -21.2347   30.5928 H   0  0  0  0  0  0  0  0  0  0  0  0  # atno 9252 bound_to 9233
  -20.3933  -18.0999   29.3866 H   0  0  0  0  0  0  0  0  0  0  0  0  # atno 9297 bound_to 9286
  -18.4621  -16.9821   27.6643 H   0  0  0  0  0  0  0  0  0  0  0  0  # atno 9322 bound_to 9315
  -16.5382  -14.4051   25.8279 H   0  0  0  0  0  0  0  0  0  0  0  0  # atno 9356 bound_to 9342
  -14.5778  -13.6423   25.3828 H   0  0  0  0  0  0  0  0  0  0  0  0  # atno 9362 bound_to 9348
  -18.5614   -9.2652   25.5177 H   0  0  0  0  0  0  0  0  0  0  0  0  # atno 9445 bound_to 9430
  -19.5207   -8.6408   23.2992 H   0  0  0  0  0  0  0  0  0  0  0  0  # atno 9502 bound_to 9481
  -17.7466   -7.4353   17.4740 H   0  0  0  0  0  0  0  0  0  0  0  0  # atno 9510 bound_to 9492
  -21.1548  -11.5825   23.6558 H   0  0  0  0  0  0  0  0  0  0  0  0  # atno 9555 bound_to 9536
  -24.4331    1.7065   17.3209 H   0  0  0  0  0  0  0  0  0  0  0  0  # atno 10745 bound_to 10719
  -17.7893    1.1115   14.8974 H   0  0  0  0  0  0  0  0  0  0  0  0  # atno 10921 bound_to 10911
  -17.7213    0.7643   16.4779 H   0  0  0  0  0  0  0  0  0  0  0  0  # atno 10978 bound_to 10948
  -22.5869    4.4596   17.8505 H   0  0  0  0  0  0  0  0  0  0  0  0  # atno 10986 bound_to 10959
  -23.5714   -2.3007   22.1852 H   0  0  0  0  0  0  0  0  0  0  0  0  # atno 11122 bound_to 11093
  -21.0969   -1.3546   24.4364 H   0  0  0  0  0  0  0  0  0  0  0  0  # atno 11182 bound_to 11153
  -19.4692   -0.1711   27.4371 H   0  0  0  0  0  0  0  0  0  0  0  0  # atno 11213 bound_to 11201
  -18.0811    1.4711   31.5131 H   0  0  0  0  0  0  0  0  0  0  0  0  # atno 11249 bound_to 11237
  -16.4691   -1.1894   32.4845 H   0  0  0  0  0  0  0  0  0  0  0  0  # atno 11292 bound_to 11275
  -19.5748   -6.6137   34.4908 H   0  0  0  0  0  0  0  0  0  0  0  0  # atno 11385 bound_to 11366
  -22.8817   -3.7307   31.6795 H   0  0  0  0  0  0  0  0  0  0  0  0  # atno 11493 bound_to 11474
  -19.4710  -11.4801   31.5228 H   0  0  0  0  0  0  0  0  0  0  0  0  # atno 11568 bound_to 11550
   -7.8840    8.7780   25.6060 H   0  0  0  0  0  0  0  0  0  0  0  0  # atno 11660 bound_to 11631
   -8.6815    9.1693   27.0048 H   0  0  0  0  0  0  0  0  0  0  0  0  # atno 11661 bound_to 11631
   -9.2747    7.9762   26.0199 H   0  0  0  0  0  0  0  0  0  0  0  0  # atno 11662 bound_to 11631
  -25.3681    2.0330   28.8233 H   0  0  0  0  0  0  0  0  0  0  0  0  # atno 11673 bound_to 11649
  -23.8696    2.7416   28.7846 H   0  0  0  0  0  0  0  0  0  0  0  0  # atno 11674 bound_to 11649
  -24.8848    2.8789   27.4816 H   0  0  0  0  0  0  0  0  0  0  0  0  # atno 11675 bound_to 11649
  -12.3845   15.5412   22.4316 H   0  0  0  0  0  0  0  0  0  0  0  0  # atno 11816 bound_to 11799
  -18.3784   15.8761   25.0552 H   0  0  0  0  0  0  0  0  0  0  0  0  # atno 11879 bound_to 11856
  -17.2575   16.1576   23.8668 H   0  0  0  0  0  0  0  0  0  0  0  0  # atno 11880 bound_to 11856
  -17.1043   14.8345   24.8539 H   0  0  0  0  0  0  0  0  0  0  0  0  # atno 11881 bound_to 11856
  -29.4825    1.0679   19.9078 H   0  0  0  0  0  0  0  0  0  0  0  0  # atno 12008 bound_to 11984
  -27.9430    2.3249   17.1880 H   0  0  0  0  0  0  0  0  0  0  0  0  # atno 12083 bound_to 12056
  -25.1466    7.7242   13.6290 H   0  0  0  0  0  0  0  0  0  0  0  0  # atno 12164 bound_to 12148
    1.9579   -7.8816   17.0851 H   0  0  0  0  0  0  0  0  0  0  0  0  # atno 15411 bound_to 15403
   -1.2779   -9.9196   20.7021 H   0  0  0  0  0  0  0  0  0  0  0  0  # atno 15476 bound_to 15466
  -13.4998   15.7388   23.5998 LP  0  0  0  0  0  0  0  0  0  0  0  0  # atno 16466 bound_to 11799
  -13.0142   17.0163   22.7061 LP  0  0  0  0  0  0  0  0  0  0  0  0  # atno 16467 bound_to 11799
  -21.7973    4.7836   16.4649 LP  0  0  0  0  0  0  0  0  0  0  0  0  # atno 16468 bound_to 10959
  -21.6076    5.7564   17.7627 LP  0  0  0  0  0  0  0  0  0  0  0  0  # atno 16469 bound_to 10959
  -16.5230    3.2333   14.5422 LP  0  0  0  0  0  0  0  0  0  0  0  0  # atno 16472 bound_to 10886
  -18.1824    3.7038   14.3830 LP  0  0  0  0  0  0  0  0  0  0  0  0  # atno 16473 bound_to 10886
  -15.9814    0.7065   16.6833 LP  0  0  0  0  0  0  0  0  0  0  0  0  # atno 16474 bound_to 10948
  -20.9092   -0.5936   21.9019 LP  0  0  0  0  0  0  0  0  0  0  0  0  # atno 16475 bound_to 11004
  -20.3872    0.1665   20.4356 LP  0  0  0  0  0  0  0  0  0  0  0  0  # atno 16476 bound_to 11004
  -14.4192    0.4423   17.9315 LP  0  0  0  0  0  0  0  0  0  0  0  0  # atno 16477 bound_to 10914
  -14.0917    1.8731   17.0121 LP  0  0  0  0  0  0  0  0  0  0  0  0  # atno 16478 bound_to 10914
  -19.5479    0.1633   17.3711 LP  0  0  0  0  0  0  0  0  0  0  0  0  # atno 16479 bound_to 10951
  -19.5355   -1.5683   17.4104 LP  0  0  0  0  0  0  0  0  0  0  0  0  # atno 16480 bound_to 10951
  -23.0281    1.6287   18.1378 LP  0  0  0  0  0  0  0  0  0  0  0  0  # atno 16482 bound_to 10719
  -24.3905    1.0080   18.7898 LP  0  0  0  0  0  0  0  0  0  0  0  0  # atno 16483 bound_to 10719
  -26.2820    1.1845   18.6609 LP  0  0  0  0  0  0  0  0  0  0  0  0  # atno 16484 bound_to 11987
  -25.6925    1.8200   17.1614 LP  0  0  0  0  0  0  0  0  0  0  0  0  # atno 16485 bound_to 11987
  -27.4210    5.5380   16.0361 LP  0  0  0  0  0  0  0  0  0  0  0  0  # atno 16486 bound_to 12059
  -26.8173    6.0731   14.5034 LP  0  0  0  0  0  0  0  0  0  0  0  0  # atno 16487 bound_to 12059
  -25.3067   -1.0619   22.1093 LP  0  0  0  0  0  0  0  0  0  0  0  0  # atno 16490 bound_to 11046
  -24.0784   -0.0540   22.7988 LP  0  0  0  0  0  0  0  0  0  0  0  0  # atno 16491 bound_to 11046
  -28.0738    4.0499   16.9465 LP  0  0  0  0  0  0  0  0  0  0  0  0  # atno 16492 bound_to 12056
  -17.0569    0.4052   13.4726 LP  0  0  0  0  0  0  0  0  0  0  0  0  # atno 16493 bound_to 10911
  -12.5251    0.3555   13.7370 LP  0  0  0  0  0  0  0  0  0  0  0  0  # atno 16500 bound_to 6108
  -13.8528    1.4105   14.0898 LP  0  0  0  0  0  0  0  0  0  0  0  0  # atno 16501 bound_to 6108
  -12.2211    2.1318   11.0669 LP  0  0  0  0  0  0  0  0  0  0  0  0  # atno 16502 bound_to 6140
   -7.9510    2.5802   14.8997 LP  0  0  0  0  0  0  0  0  0  0  0  0  # atno 16503 bound_to 5921
   -9.1702    2.0406   16.0053 LP  0  0  0  0  0  0  0  0  0  0  0  0  # atno 16504 bound_to 5921
   -9.3314    2.5213   12.8529 LP  0  0  0  0  0  0  0  0  0  0  0  0  # atno 16505 bound_to 6105
  -10.8798    4.3233   11.0031 LP  0  0  0  0  0  0  0  0  0  0  0  0  # atno 16506 bound_to 6059
   -9.1957    4.7119   10.8899 LP  0  0  0  0  0  0  0  0  0  0  0  0  # atno 16507 bound_to 6059
  -10.4164    0.1236   12.6029 LP  0  0  0  0  0  0  0  0  0  0  0  0  # atno 16510 bound_to 5858
  -10.0993    0.6489   14.2226 LP  0  0  0  0  0  0  0  0  0  0  0  0  # atno 16511 bound_to 5858
   -9.9585   -1.5003   14.4573 LP  0  0  0  0  0  0  0  0  0  0  0  0  # atno 16516 bound_to 5918
   -6.8101   -0.5980   14.4114 LP  0  0  0  0  0  0  0  0  0  0  0  0  # atno 16517 bound_to 5990
   -5.9635    3.6195   11.9601 LP  0  0  0  0  0  0  0  0  0  0  0  0  # atno 16518 bound_to 5993
   -7.4609    3.9567   12.7627 LP  0  0  0  0  0  0  0  0  0  0  0  0  # atno 16519 bound_to 5993
   -8.0295    0.4566   11.9586 LP  0  0  0  0  0  0  0  0  0  0  0  0  # atno 16520 bound_to 6056
  -20.9100    1.0812   28.1205 LP  0  0  0  0  0  0  0  0  0  0  0  0  # atno 16523 bound_to 11156
  -21.3758    0.6510   26.5087 LP  0  0  0  0  0  0  0  0  0  0  0  0  # atno 16524 bound_to 11156
  -18.7866   -1.5241   28.3188 LP  0  0  0  0  0  0  0  0  0  0  0  0  # atno 16525 bound_to 11201
  -15.8648   -0.6560   30.0542 LP  0  0  0  0  0  0  0  0  0  0  0  0  # atno 16528 bound_to 11204
  -17.0192   -1.2583   28.9120 LP  0  0  0  0  0  0  0  0  0  0  0  0  # atno 16529 bound_to 11204
  -17.7517   -0.0391   30.6974 LP  0  0  0  0  0  0  0  0  0  0  0  0  # atno 16530 bound_to 11237
  -21.8902   -1.4250   25.9954 LP  0  0  0  0  0  0  0  0  0  0  0  0  # atno 16533 bound_to 11153
  -21.1583   -4.3131   24.3740 LP  0  0  0  0  0  0  0  0  0  0  0  0  # atno 16540 bound_to 11096
  -19.7687   -3.4161   24.8881 LP  0  0  0  0  0  0  0  0  0  0  0  0  # atno 16541 bound_to 11096
  -16.4561   -1.7203   13.5729 LP  0  0  0  0  0  0  0  0  0  0  0  0  # atno 16544 bound_to 10768
  -16.5469   -1.6506   15.3011 LP  0  0  0  0  0  0  0  0  0  0  0  0  # atno 16545 bound_to 10768
  -14.9839   -2.3326   32.0444 LP  0  0  0  0  0  0  0  0  0  0  0  0  # atno 16552 bound_to 11240
  -14.2644   -1.1338   33.0668 LP  0  0  0  0  0  0  0  0  0  0  0  0  # atno 16553 bound_to 11240
  -18.0167   -0.8532   33.2237 LP  0  0  0  0  0  0  0  0  0  0  0  0  # atno 16554 bound_to 11275
  -20.0078   -3.6304   32.9686 LP  0  0  0  0  0  0  0  0  0  0  0  0  # atno 16558 bound_to 11278
  -19.1281   -3.0951   31.5759 LP  0  0  0  0  0  0  0  0  0  0  0  0  # atno 16559 bound_to 11278
  -18.4450   -7.8880   26.5903 LP  0  0  0  0  0  0  0  0  0  0  0  0  # atno 16561 bound_to 9430
  -21.2561   -7.1168   31.8980 LP  0  0  0  0  0  0  0  0  0  0  0  0  # atno 16562 bound_to 11325
  -21.1427   -5.4310   31.5171 LP  0  0  0  0  0  0  0  0  0  0  0  0  # atno 16563 bound_to 11325
  -21.2555   -3.1685   31.3486 LP  0  0  0  0  0  0  0  0  0  0  0  0  # atno 16564 bound_to 11474
  -19.9237   -5.1128   33.6837 LP  0  0  0  0  0  0  0  0  0  0  0  0  # atno 16565 bound_to 11366
  -21.1881   -8.5669   25.9539 LP  0  0  0  0  0  0  0  0  0  0  0  0  # atno 16566 bound_to 9387
  -21.0872   -8.9256   27.6454 LP  0  0  0  0  0  0  0  0  0  0  0  0  # atno 16567 bound_to 9387
  -18.9319  -10.4479   32.6595 LP  0  0  0  0  0  0  0  0  0  0  0  0  # atno 16568 bound_to 11550
  -18.7613  -10.0856   31.0764 LP  0  0  0  0  0  0  0  0  0  0  0  0  # atno 16569 bound_to 11550
  -18.4541  -11.1173   24.4283 LP  0  0  0  0  0  0  0  0  0  0  0  0  # atno 16570 bound_to 9345
  -19.4149  -11.7018   25.7456 LP  0  0  0  0  0  0  0  0  0  0  0  0  # atno 16571 bound_to 9345
  -13.6900  -12.7408   24.3598 LP  0  0  0  0  0  0  0  0  0  0  0  0  # atno 16572 bound_to 9348
  -14.9242  -13.6474   23.7929 LP  0  0  0  0  0  0  0  0  0  0  0  0  # atno 16573 bound_to 9348
  -19.6384   -9.8872   24.5212 LP  0  0  0  0  0  0  0  0  0  0  0  0  # atno 16574 bound_to 9481
   -7.8786   -3.5398   16.4302 LP  0  0  0  0  0  0  0  0  0  0  0  0  # atno 16579 bound_to 5720
   -9.0609   -3.8921   15.2145 LP  0  0  0  0  0  0  0  0  0  0  0  0  # atno 16580 bound_to 5720
   -1.8940   -9.2866   22.0686 LP  0  0  0  0  0  0  0  0  0  0  0  0  # atno 16587 bound_to 15466
   -2.0412  -10.8847   21.7668 LP  0  0  0  0  0  0  0  0  0  0  0  0  # atno 16588 bound_to 15466
  -10.6119   -9.3408   17.4184 LP  0  0  0  0  0  0  0  0  0  0  0  0  # atno 16591 bound_to 7831
   -2.8624  -13.1908   25.8402 LP  0  0  0  0  0  0  0  0  0  0  0  0  # atno 16592 bound_to 1821
   -3.8141  -13.7656   27.1684 LP  0  0  0  0  0  0  0  0  0  0  0  0  # atno 16593 bound_to 1821
   -7.3935  -12.8225   17.1796 LP  0  0  0  0  0  0  0  0  0  0  0  0  # atno 16594 bound_to 7834
   -7.7455  -13.2845   18.8114 LP  0  0  0  0  0  0  0  0  0  0  0  0  # atno 16595 bound_to 7834
   -9.5534   -7.4462   14.0750 LP  0  0  0  0  0  0  0  0  0  0  0  0  # atno 16596 bound_to 5717
   -7.4267   -5.6378   14.9053 LP  0  0  0  0  0  0  0  0  0  0  0  0  # atno 16597 bound_to 5767
   -0.0410  -12.3445   18.9183 LP  0  0  0  0  0  0  0  0  0  0  0  0  # atno 16600 bound_to 1745
   -1.1547  -13.4094   19.7092 LP  0  0  0  0  0  0  0  0  0  0  0  0  # atno 16601 bound_to 1745
   -0.5330  -14.6733   23.7539 LP  0  0  0  0  0  0  0  0  0  0  0  0  # atno 16602 bound_to 1818
   -3.0376   -6.1587   13.9227 LP  0  0  0  0  0  0  0  0  0  0  0  0  # atno 16603 bound_to 5772
   -4.5153   -5.7538   13.3575 LP  0  0  0  0  0  0  0  0  0  0  0  0  # atno 16604 bound_to 5772
    0.5829   -8.4517   18.0016 LP  0  0  0  0  0  0  0  0  0  0  0  0  # atno 16605 bound_to 15403
    1.4896  -14.6097   21.6711 LP  0  0  0  0  0  0  0  0  0  0  0  0  # atno 16606 bound_to 1791
   -3.9141   -9.8513   14.1934 LP  0  0  0  0  0  0  0  0  0  0  0  0  # atno 16607 bound_to 5617
   -6.1888   -7.4334   14.0872 LP  0  0  0  0  0  0  0  0  0  0  0  0  # atno 16608 bound_to 5620
   -5.8828   -7.7326   12.4088 LP  0  0  0  0  0  0  0  0  0  0  0  0  # atno 16609 bound_to 5620
   -9.0531   -9.9877   15.7088 LP  0  0  0  0  0  0  0  0  0  0  0  0  # atno 16610 bound_to 7788
  -10.2797  -10.7175   14.7275 LP  0  0  0  0  0  0  0  0  0  0  0  0  # atno 16611 bound_to 7788
  -11.0876  -12.6434   17.6321 LP  0  0  0  0  0  0  0  0  0  0  0  0  # atno 16612 bound_to 7874
    0.8980  -16.0355   24.1859 LP  0  0  0  0  0  0  0  0  0  0  0  0  # atno 16613 bound_to 1794
    0.0598  -16.5283   22.7525 LP  0  0  0  0  0  0  0  0  0  0  0  0  # atno 16614 bound_to 1794
    0.2477  -14.7162   28.8447 LP  0  0  0  0  0  0  0  0  0  0  0  0  # atno 16615 bound_to 1824
   -1.2695  -14.8807   28.2636 LP  0  0  0  0  0  0  0  0  0  0  0  0  # atno 16616 bound_to 1824
   -1.9976  -16.6648   27.2523 LP  0  0  0  0  0  0  0  0  0  0  0  0  # atno 16617 bound_to 1854
  -16.1016  -14.2872   28.1900 LP  0  0  0  0  0  0  0  0  0  0  0  0  # atno 16622 bound_to 9318
  -15.0284  -15.0829   27.0877 LP  0  0  0  0  0  0  0  0  0  0  0  0  # atno 16623 bound_to 9318
  -18.0114  -13.5848   25.3608 LP  0  0  0  0  0  0  0  0  0  0  0  0  # atno 16624 bound_to 9342
  -20.9091   -7.2805   22.2453 LP  0  0  0  0  0  0  0  0  0  0  0  0  # atno 16627 bound_to 9433
  -22.0389   -7.9198   23.3920 LP  0  0  0  0  0  0  0  0  0  0  0  0  # atno 16628 bound_to 9433
  -16.3028   -8.1653   17.6499 LP  0  0  0  0  0  0  0  0  0  0  0  0  # atno 16629 bound_to 9492
  -16.7081   -6.9088   18.6109 LP  0  0  0  0  0  0  0  0  0  0  0  0  # atno 16630 bound_to 9492
  -17.6213  -13.3690   19.9411 LP  0  0  0  0  0  0  0  0  0  0  0  0  # atno 16631 bound_to 7667
  -17.0078  -11.8273   19.4442 LP  0  0  0  0  0  0  0  0  0  0  0  0  # atno 16632 bound_to 7667
  -14.4345  -13.5998   17.9633 LP  0  0  0  0  0  0  0  0  0  0  0  0  # atno 16634 bound_to 7723
  -12.4482  -12.7938   17.1846 LP  0  0  0  0  0  0  0  0  0  0  0  0  # atno 16635 bound_to 7726
  -13.1855  -12.3228   15.6897 LP  0  0  0  0  0  0  0  0  0  0  0  0  # atno 16636 bound_to 7726
  -21.1622   -5.5629   16.7482 LP  0  0  0  0  0  0  0  0  0  0  0  0  # atno 16637 bound_to 10539
  -19.6361   -6.1681   16.1961 LP  0  0  0  0  0  0  0  0  0  0  0  0  # atno 16638 bound_to 10539
   -5.1495  -15.4196   31.9315 LP  0  0  0  0  0  0  0  0  0  0  0  0  # atno 16639 bound_to 1884
   -6.0200  -15.5771   33.3041 LP  0  0  0  0  0  0  0  0  0  0  0  0  # atno 16640 bound_to 1884
  -16.7625  -17.2982   27.3789 LP  0  0  0  0  0  0  0  0  0  0  0  0  # atno 16641 bound_to 9315
   -4.7645  -17.6663   29.5341 LP  0  0  0  0  0  0  0  0  0  0  0  0  # atno 16642 bound_to 1879
   -1.6175  -16.8115   28.9562 LP  0  0  0  0  0  0  0  0  0  0  0  0  # atno 16643 bound_to 1857
   -2.0089  -16.8931   30.6415 LP  0  0  0  0  0  0  0  0  0  0  0  0  # atno 16644 bound_to 1857
  -18.7073  -17.6936   23.3999 LP  0  0  0  0  0  0  0  0  0  0  0  0  # atno 16645 bound_to 7565
  -17.0372  -17.3794   23.0653 LP  0  0  0  0  0  0  0  0  0  0  0  0  # atno 16646 bound_to 7565
  -20.3043  -16.6749   26.9997 LP  0  0  0  0  0  0  0  0  0  0  0  0  # atno 16647 bound_to 9289
  -20.0387  -18.2557   26.3436 LP  0  0  0  0  0  0  0  0  0  0  0  0  # atno 16648 bound_to 9289
  -18.2346  -19.8453   31.3006 LP  0  0  0  0  0  0  0  0  0  0  0  0  # atno 16649 bound_to 9236
  -18.6113  -18.2701   31.9144 LP  0  0  0  0  0  0  0  0  0  0  0  0  # atno 16650 bound_to 9236
  -19.8821  -19.7626   29.5588 LP  0  0  0  0  0  0  0  0  0  0  0  0  # atno 16653 bound_to 9286
  -22.0303  -21.0071   31.8958 LP  0  0  0  0  0  0  0  0  0  0  0  0  # atno 16654 bound_to 9233
  -12.0914  -23.6819   34.3333 LP  0  0  0  0  0  0  0  0  0  0  0  0  # atno 16655 bound_to 3365
  -10.7830  -22.8808   33.5293 LP  0  0  0  0  0  0  0  0  0  0  0  0  # atno 16656 bound_to 3365
   -7.8190  -24.0567   37.1234 LP  0  0  0  0  0  0  0  0  0  0  0  0  # atno 16657 bound_to 3362
   -4.9698  -19.2398   29.9425 LP  0  0  0  0  0  0  0  0  0  0  0  0  # atno 16658 bound_to 1922

> <Gold.Score>
     Fitness  S(hb_ext) S(vdw_ext)  S(hb_int)    S(int)      intcor
     35.70       3.17      24.07       0.00      -0.56      -0.76

> <Gold.Goldscore.Fitness>
35.7035

> <Gold.Goldscore.Internal.Vdw>
-0.7945

> <Gold.Goldscore.Internal.Torsion>
-0.5209

> <Gold.Goldscore.External.Vdw>
24.0654

> <Gold.Goldscore.Internal.HBond>
0.0000

> <Gold.Goldscore.External.HBond>
3.1704

> <Gold.Goldscore.Internal.Correction>
-0.7585

> <Gold.Goldscore.Hbonds>
donor molecule, donor type, donor heavy atom, donor atom, acceptor molecule, acceptor atom, score
      P1  H  6140  6177       L1     9  0.74
      L1  H     8    22       P1 10886  0.84

> <Gold.Goldscore.Internal.Vdw.Weighted>
-0.7945

> <Gold.Goldscore.Internal.Torsion.Weighted>
-0.5209

> <Gold.Goldscore.External.Vdw.Weighted>
33.0900

> <Gold.Goldscore.Internal.HBond.Weighted>
0.0000

> <Gold.Goldscore.External.HBond.Weighted>
3.1704

> <Gold.Goldscore.Internal.Correction.Weighted>
-0.7585

> <Gold.Rescore>
     Score     S(PLP)   S(hbond)     S(cho)   S(metal)  DE(clash)   DE(tors)     intcor
     31.32     -33.16       0.00       0.00       0.00       0.00       0.92       ----

> <Gold.PLP.Fitness>
31.3231

> <Gold.PLP.PLP>
-33.1551

> <Gold.PLP.part.hbond>
0.0000

> <Gold.PLP.part.metal>
0.0000

> <Gold.PLP.part.buried>
-3.8085

> <Gold.PLP.part.nonpolar>
-31.3778

> <Gold.PLP.part.repulsive>
0.3611

> <Gold.PLP.ligand.clash>
0.0000

> <Gold.PLP.ligand.torsion>
0.9160

> <Gold.PLP.Chemscore.Hbond>
0.0000

> <Gold.PLP.Chemscore.CHOScore>
0.0000

> <Gold.PLP.Chemscore.Metal>
0.0000

> <Gold.Chemscore.Hbonds>
donor molecule, donor type, donor heavy atom, donor atom, acceptor molecule, acceptor atom, score
      L1  H     8    22       P1 10886  1.00
      P1  H  6140  6177       L1     9  0.02

> <Gold.PLP.Chemscore.Internal.Correction>
   9.000000E+99

