#       Name:                CT1002167954
#       Creating user name   hitesit
#       Creation time:       Sun Apr 16 20:17:55 2023


#       File generated by GOLD software.
#

@<TRIPOS>MOLECULE
CT1002167954|ligand_prepared|mol2|1|dock10
    29    30     1
SMALL
NO_CHARGES


@<TRIPOS>ATOM
      1 C1         -12.8302   2.1513  20.7646 C.3            1 RES1               0.0000
      2 C2         -12.6822   2.5347  19.2780 C.ar           1 RES1               0.0000
      3 C3         -12.7479   0.6288  20.8247 C.2            1 RES1               0.0000
      4 C4         -11.7035   2.8649  21.5034 C.2            1 RES1               0.0000
      5 C5         -14.1710   2.5960  21.3940 C.3            1 RES1               0.0000
      6 C6         -11.9254   1.7475  18.4152 C.ar           1 RES1               0.0000
      7 C7         -13.2974   3.6690  18.7552 C.ar           1 RES1               0.0000
      8 N8         -11.6021   0.0770  21.3169 N.am           1 RES1               0.0000
      9 O9         -13.6587  -0.0772  20.4097 O.2            1 RES1               0.0000
     10 N10        -10.7293   2.0964  22.0849 N.am           1 RES1               0.0000
     11 O11        -11.6416   4.0862  21.5731 O.2            1 RES1               0.0000
     12 C12        -14.4513   1.9654  22.7489 C.3            1 RES1               0.0000
     13 C13        -11.7910   2.0806  17.0775 C.ar           1 RES1               0.0000
     14 C14        -13.1615   4.0004  17.4172 C.ar           1 RES1               0.0000
     15 C15        -10.6110   0.7360  21.9989 C.2            1 RES1               0.0000
     16 C16        -12.4093   3.2068  16.5776 C.ar           1 RES1               0.0000
     17 O17         -9.6760   0.1206  22.5033 O.2            1 RES1               0.0000
     18 H18        -14.1633   3.6871  21.5071 H              1 RES1               0.0000
     19 H19        -14.9866   2.3357  20.7080 H              1 RES1               0.0000
     20 H20        -11.4296   0.8588  18.7911 H              1 RES1               0.0000
     21 H21        -13.8932   4.3087  19.3975 H              1 RES1               0.0000
     22 H22        -11.4698  -0.9177  21.1638 H              1 RES1               0.0000
     23 H23        -10.0273   2.5837  22.6328 H              1 RES1               0.0000
     24 H24        -15.4036   2.3109  23.1456 H              1 RES1               0.0000
     25 H25        -14.4909   0.8810  22.6690 H              1 RES1               0.0000
     26 H26        -13.6725   2.2243  23.4633 H              1 RES1               0.0000
     27 H27        -11.1968   1.4534  16.4212 H              1 RES1               0.0000
     28 H28        -13.6493   4.8881  17.0282 H              1 RES1               0.0000
     29 H29        -12.3041   3.4673  15.5296 H              1 RES1               0.0000
@<TRIPOS>BOND
    1    1    2 1     
    2    1    3 1     
    3    1    4 1     
    4    1    5 1     
    5    2    6 ar    
    6    2    7 ar    
    7    3    8 1     
    8    3    9 2     
    9    4   10 1     
   10    4   11 2     
   11    5   12 1     
   12    5   18 1     
   13    5   19 1     
   14    6   13 ar    
   15    6   20 1     
   16    7   14 ar    
   17    7   21 1     
   18    8   15 1     
   19    8   22 1     
   20   10   15 1     
   21   10   23 1     
   22   12   24 1     
   23   12   25 1     
   24   12   26 1     
   25   13   16 ar    
   26   13   27 1     
   27   14   16 ar    
   28   14   28 1     
   29   15   17 2     
   30   16   29 1     
@<TRIPOS>SUBSTRUCTURE
      1 RES1           1
@<TRIPOS>SET
DONOR_HYDROGENS      STATIC     ATOMS    <user>   **** ""
2 22 23
ATOM$RED        STATIC     ATOMS    COLORGROUP SYSTEM
2 22 23
@<TRIPOS>COMMENT
> <Gold.Version>
2022.3.0

> <Gold.Id.Protein>
unknown|3mvj_clean|pdb

> <Gold.Protein.RotatedTorsions>
[ 11816 11799 11798 11795 ] final  100.79 input   60.01 | X-H torsion
[ 11879 11856 11855 11854 ] final -127.01 input   60.02 | X-H torsion
[ 10986 10959 10958 10956 ] final  -70.78 input   60.00 | X-H torsion
[ 10978 10948 10949 10950 ] final  174.05 input   32.02 | X-H torsion
[ 10745 10719 10718 10716 ] final   -4.68 input   60.01 | X-H torsion
[ 12083 12056 12057 12058 ] final   86.93 input   63.02 | X-H torsion
[ 10921 10911 10912 10913 ] final   89.91 input  -92.90 | X-H torsion
[ 6177 6140 6141 6142 ] final -119.33 input   39.58 | X-H torsion
[ 6115 6105 6106 6107 ] final  -13.09 input  -69.34 | X-H torsion
[ 5955 5918 5919 5920 ] final  -80.05 input  125.26 | X-H torsion
[ 6027 5990 5991 5992 ] final   17.58 input  110.40 | X-H torsion
[ 6086 6056 6057 6058 ] final -134.83 input  107.04 | X-H torsion
[ 11660 11631 11630 11629 ] final -159.35 input   60.02 | X-H torsion
[ 11213 11201 11202 11203 ] final  106.03 input   18.84 | X-H torsion
[ 11249 11237 11238 11239 ] final   14.26 input  111.29 | X-H torsion
[ 11182 11153 11154 11155 ] final   -6.06 input   30.50 | X-H torsion
[ 11292 11275 11276 11277 ] final   19.16 input   58.53 | X-H torsion
[ 9445 9430 9431 9432 ] final   25.68 input  110.06 | X-H torsion
[ 11493 11474 11475 11476 ] final   32.98 input  115.95 | X-H torsion
[ 11385 11366 11367 11368 ] final -147.99 input  117.79 | X-H torsion
[ 11568 11550 11549 11547 ] final   99.35 input   59.97 | X-H torsion
[ 9362 9348 9346 9343 ] final   29.08 input   60.02 | X-H torsion
[ 9502 9481 9482 9483 ] final   87.03 input   75.78 | X-H torsion
[ 15476 15466 15465 15463 ] final  148.59 input   60.00 | X-H torsion
[ 7768 7731 7730 7729 ] final  142.99 input   60.02 | X-H torsion
[ 7852 7831 7832 7833 ] final   80.22 input  113.97 | X-H torsion
[ 5737 5717 5718 5719 ] final -143.32 input  137.93 | X-H torsion
[ 5778 5767 5768 5769 ] final  -38.23 input  116.46 | X-H torsion
[ 1832 1818 1819 1820 ] final   -2.71 input   43.70 | X-H torsion
[ 5782 5772 5771 5768 ] final  -32.84 input   59.97 | X-H torsion
[ 15411 15403 15404 15405 ] final -150.88 input  102.24 | X-H torsion
[ 1801 1791 1792 1793 ] final   52.74 input  -10.55 | X-H torsion
[ 5638 5617 5618 5619 ] final  146.78 input   93.34 | X-H torsion
[ 7894 7874 7875 7876 ] final  -68.37 input   68.03 | X-H torsion
[ 1838 1824 1822 1819 ] final   51.58 input   60.02 | X-H torsion
[ 1861 1854 1855 1856 ] final  -11.41 input   57.50 | X-H torsion
[ 9356 9342 9343 9344 ] final  123.08 input   55.58 | X-H torsion
[ 9510 9492 9491 9489 ] final  113.46 input   60.02 | X-H torsion
[ 7758 7723 7724 7725 ] final  -38.44 input   17.81 | X-H torsion
[ 1898 1884 1883 1880 ] final  -41.24 input   60.01 | X-H torsion
[ 9322 9315 9316 9317 ] final -172.62 input  -36.21 | X-H torsion
[ 1894 1879 1880 1881 ] final -143.66 input   98.21 | X-H torsion
[ 9297 9286 9287 9288 ] final  100.29 input   37.00 | X-H torsion
[ 9252 9233 9234 9235 ] final -131.08 input   95.32 | X-H torsion
[ 3370 3362 3363 3364 ] final  141.52 input   97.92 | X-H torsion
[ 1951 1922 1923 1924 ] final  -69.95 input  104.43 | X-H torsion
[ 12164 12148 12149 12150 ] final  -21.77 input  116.04 | X-H torsion
[ 11673 11649 11648 11647 ] final -111.57 input   59.99 | X-H torsion
[ 12008 11984 11985 11986 ] final  107.44 input   61.04 | X-H torsion
[ 11122 11093 11094 11095 ] final  -71.60 input   39.50 | X-H torsion
[ 7946 7916 7917 7918 ] final  -12.09 input   66.66 | X-H torsion
[ 8659 8630 8631 8632 ] final   44.37 input   75.31 | X-H torsion
[ 9555 9536 9537 9538 ] final   31.78 input  103.50 | X-H torsion
[ 16472 10886 10885 10884 ] final  -21.09 input    0.00 | X-H torsion
[ 16475 11004 11003 11002 ] final  -82.97 input    0.00 | X-H torsion
[ 16477 10914 10913 10912 ] final -147.66 input    0.00 | X-H torsion
[ 16479 10951 10950 10949 ] final  -64.69 input   -0.00 | X-H torsion
[ 16484 11987 11986 11985 ] final  -77.34 input    0.00 | X-H torsion
[ 16486 12059 12058 12057 ] final  -75.94 input   -0.00 | X-H torsion
[ 16490 11046 11045 11044 ] final -165.94 input    0.00 | X-H torsion
[ 16500 6108 6107 6106 ] final    4.22 input    0.00 | X-H torsion
[ 16503 5921 5920 5919 ] final  129.37 input   -0.00 | X-H torsion
[ 16506 6059 6058 6057 ] final -149.06 input    0.00 | X-H torsion
[ 16510 5858 5857 5856 ] final   -7.03 input    0.00 | X-H torsion
[ 16518 5993 5992 5991 ] final -174.38 input   -0.00 | X-H torsion
[ 16523 11156 11155 11154 ] final  -39.37 input    0.00 | X-H torsion
[ 16528 11204 11203 11202 ] final -163.13 input    0.00 | X-H torsion
[ 16540 11096 11095 11094 ] final   74.53 input   -0.00 | X-H torsion
[ 16544 10768 10767 10766 ] final -143.44 input   -0.00 | X-H torsion
[ 16552 11240 11239 11238 ] final  118.12 input    0.00 | X-H torsion
[ 16558 11278 11277 11276 ] final  -56.25 input   -0.00 | X-H torsion
[ 16562 11325 11324 11323 ] final  -32.34 input   -0.00 | X-H torsion
[ 16566 9387 9386 9385 ] final   14.06 input   -0.00 | X-H torsion
[ 16570 9345 9344 9343 ] final   45.00 input    0.00 | X-H torsion
[ 16579 5720 5719 5718 ] final   32.34 input    0.00 | X-H torsion
[ 16592 1821 1820 1819 ] final   43.59 input    0.00 | X-H torsion
[ 16594 7834 7833 7832 ] final   37.97 input    0.00 | X-H torsion
[ 16600 1745 1744 1743 ] final -118.12 input    0.00 | X-H torsion
[ 16608 5620 5619 5618 ] final  -73.13 input   -0.00 | X-H torsion
[ 16610 7788 7787 7786 ] final  -61.87 input   -0.00 | X-H torsion
[ 16613 1794 1793 1792 ] final   54.84 input   -0.00 | X-H torsion
[ 16622 9318 9317 9316 ] final  136.41 input   -0.00 | X-H torsion
[ 16627 9433 9432 9431 ] final   30.94 input    0.00 | X-H torsion
[ 16631 7667 7666 7665 ] final   46.41 input   -0.00 | X-H torsion
[ 16635 7726 7725 7724 ] final  177.19 input    0.00 | X-H torsion
[ 16637 10539 10538 10537 ] final -130.78 input   -0.00 | X-H torsion
[ 16643 1857 1856 1855 ] final  -78.75 input    0.00 | X-H torsion
[ 16645 7565 7564 7563 ] final   88.59 input    0.00 | X-H torsion
[ 16647 9289 9288 9287 ] final -120.94 input    0.00 | X-H torsion
[ 16649 9236 9235 9234 ] final  -94.22 input    0.00 | X-H torsion
[ 16655 3365 3364 3363 ] final  -56.25 input    0.00 | X-H torsion

> <Gold.Protein.ActiveResidues>
 LEU49   GLY50   THR51   GLY52   SER53   PHE54   VAL57   LEU82   LYS83   GLN84  
 HIS87   GLU127  PHE129  SER130  LEU132  ARG133  ARG134  ILE135  GLY136  ARG137 
 ARG165  ASP166  LEU167  LYS168  PRO169  GLU170  ASN171  LEU172  LEU173  ASP184 
 GLY186  PHE187  TPO197  LEU198  CYS199  GLY200  THR201  PRO202  GLU203  TYR204 
 LEU205  ILE209  ILE210  VAL226  LEU227  TYR229  GLU230  ALA233  GLY234  TYR235 
 PRO236  PRO237  PHE238  PHE239  ALA240  ASP241  GLN242  PRO243  ILE244  GLN245 
 ILE246  TYR247  GLU248  LYS249  ILE250  VAL251  SER252  LYS254  ARG256  PHE257 
 PRO258  SER259  PHE327  ASP328  TYR330 

> <Gold.Protein.RotatedAtoms>
    0.9790  -15.0730   21.0898 H   0  0  0  0  0  0  0  0  0  0  0  0  # atno 1801 bound_to 1791
   -1.7930  -13.7874   24.2173 H   0  0  0  0  0  0  0  0  0  0  0  0  # atno 1832 bound_to 1818
   -1.0404  -15.1167   28.4135 H   0  0  0  0  0  0  0  0  0  0  0  0  # atno 1838 bound_to 1824
   -1.8676  -16.1857   27.5363 H   0  0  0  0  0  0  0  0  0  0  0  0  # atno 1861 bound_to 1854
   -4.1599  -16.1171   30.0307 H   0  0  0  0  0  0  0  0  0  0  0  0  # atno 1894 bound_to 1879
   -5.0732  -15.3479   32.2714 H   0  0  0  0  0  0  0  0  0  0  0  0  # atno 1898 bound_to 1884
   -3.8547  -19.3112   31.2844 H   0  0  0  0  0  0  0  0  0  0  0  0  # atno 1951 bound_to 1922
   -7.1163  -23.9321   36.0434 H   0  0  0  0  0  0  0  0  0  0  0  0  # atno 3370 bound_to 3362
   -3.8837  -10.5022   14.1757 H   0  0  0  0  0  0  0  0  0  0  0  0  # atno 5638 bound_to 5617
   -9.7620   -7.9384   14.5736 H   0  0  0  0  0  0  0  0  0  0  0  0  # atno 5737 bound_to 5717
   -7.5647   -5.4104   15.2622 H   0  0  0  0  0  0  0  0  0  0  0  0  # atno 5778 bound_to 5767
   -4.8638   -6.5571   14.0020 H   0  0  0  0  0  0  0  0  0  0  0  0  # atno 5782 bound_to 5772
   -9.8878   -1.4085   14.3354 H   0  0  0  0  0  0  0  0  0  0  0  0  # atno 5955 bound_to 5918
   -7.9037    0.0564   13.9835 H   0  0  0  0  0  0  0  0  0  0  0  0  # atno 6027 bound_to 5990
   -6.7801    1.3932   11.7662 H   0  0  0  0  0  0  0  0  0  0  0  0  # atno 6086 bound_to 6056
  -10.2936    1.4106   12.1083 H   0  0  0  0  0  0  0  0  0  0  0  0  # atno 6115 bound_to 6105
  -12.5276    1.8325   12.3346 H   0  0  0  0  0  0  0  0  0  0  0  0  # atno 6177 bound_to 6140
  -15.1393  -13.2787   17.1663 H   0  0  0  0  0  0  0  0  0  0  0  0  # atno 7758 bound_to 7723
  -12.0425  -13.3550   24.5502 H   0  0  0  0  0  0  0  0  0  0  0  0  # atno 7768 bound_to 7731
  -11.1130  -12.0914   24.0148 H   0  0  0  0  0  0  0  0  0  0  0  0  # atno 7769 bound_to 7731
  -12.7348  -11.8728   24.2818 H   0  0  0  0  0  0  0  0  0  0  0  0  # atno 7770 bound_to 7731
  -11.4465  -10.5038   18.2123 H   0  0  0  0  0  0  0  0  0  0  0  0  # atno 7852 bound_to 7831
   -9.4853  -12.3492   17.1424 H   0  0  0  0  0  0  0  0  0  0  0  0  # atno 7894 bound_to 7874
   -9.3200  -13.4330   15.3289 H   0  0  0  0  0  0  0  0  0  0  0  0  # atno 7946 bound_to 7916
  -13.6470  -22.2891   22.4504 H   0  0  0  0  0  0  0  0  0  0  0  0  # atno 8659 bound_to 8630
  -22.2468  -21.0324   30.8398 H   0  0  0  0  0  0  0  0  0  0  0  0  # atno 9252 bound_to 9233
  -20.1450  -19.7102   29.0363 H   0  0  0  0  0  0  0  0  0  0  0  0  # atno 9297 bound_to 9286
  -18.0337  -17.7201   26.9967 H   0  0  0  0  0  0  0  0  0  0  0  0  # atno 9322 bound_to 9315
  -16.8583  -14.0450   24.8142 H   0  0  0  0  0  0  0  0  0  0  0  0  # atno 9356 bound_to 9342
  -15.0414  -13.9283   24.8615 H   0  0  0  0  0  0  0  0  0  0  0  0  # atno 9362 bound_to 9348
  -18.5179   -9.2535   25.5001 H   0  0  0  0  0  0  0  0  0  0  0  0  # atno 9445 bound_to 9430
  -18.9469   -9.8787   24.0635 H   0  0  0  0  0  0  0  0  0  0  0  0  # atno 9502 bound_to 9481
  -16.4640   -8.2141   17.5079 H   0  0  0  0  0  0  0  0  0  0  0  0  # atno 9510 bound_to 9492
  -21.9560  -10.4090   24.3666 H   0  0  0  0  0  0  0  0  0  0  0  0  # atno 9555 bound_to 9536
  -23.0537    1.5246   18.3343 H   0  0  0  0  0  0  0  0  0  0  0  0  # atno 10745 bound_to 10719
  -17.5295    1.6344   14.2202 H   0  0  0  0  0  0  0  0  0  0  0  0  # atno 10921 bound_to 10911
  -16.2076    1.3262   16.8239 H   0  0  0  0  0  0  0  0  0  0  0  0  # atno 10978 bound_to 10948
  -22.2834    4.3011   16.8046 H   0  0  0  0  0  0  0  0  0  0  0  0  # atno 10986 bound_to 10959
  -22.3581   -1.5809   22.2681 H   0  0  0  0  0  0  0  0  0  0  0  0  # atno 11122 bound_to 11093
  -21.8551   -0.9183   25.8939 H   0  0  0  0  0  0  0  0  0  0  0  0  # atno 11182 bound_to 11153
  -19.7120   -1.3749   28.3209 H   0  0  0  0  0  0  0  0  0  0  0  0  # atno 11213 bound_to 11201
  -18.1924   -0.0535   31.4568 H   0  0  0  0  0  0  0  0  0  0  0  0  # atno 11249 bound_to 11237
  -18.0047   -1.2452   32.4514 H   0  0  0  0  0  0  0  0  0  0  0  0  # atno 11292 bound_to 11275
  -19.6620   -6.7249   34.1661 H   0  0  0  0  0  0  0  0  0  0  0  0  # atno 11385 bound_to 11366
  -22.3542   -4.2325   31.8032 H   0  0  0  0  0  0  0  0  0  0  0  0  # atno 11493 bound_to 11474
  -18.6474   -9.8747   32.0209 H   0  0  0  0  0  0  0  0  0  0  0  0  # atno 11568 bound_to 11550
   -9.3784    8.0678   26.2571 H   0  0  0  0  0  0  0  0  0  0  0  0  # atno 11660 bound_to 11631
   -8.0121    8.5764   25.4696 H   0  0  0  0  0  0  0  0  0  0  0  0  # atno 11661 bound_to 11631
   -8.4503    9.2794   26.9045 H   0  0  0  0  0  0  0  0  0  0  0  0  # atno 11662 bound_to 11631
  -25.3260    2.6040   27.6347 H   0  0  0  0  0  0  0  0  0  0  0  0  # atno 11673 bound_to 11649
  -24.9435    2.0733   29.1582 H   0  0  0  0  0  0  0  0  0  0  0  0  # atno 11674 bound_to 11649
  -23.8523    2.9763   28.2972 H   0  0  0  0  0  0  0  0  0  0  0  0  # atno 11675 bound_to 11649
  -13.6021   16.4202   23.5161 H   0  0  0  0  0  0  0  0  0  0  0  0  # atno 11816 bound_to 11799
  -17.4156   16.2701   23.9064 H   0  0  0  0  0  0  0  0  0  0  0  0  # atno 11879 bound_to 11856
  -16.9809   14.8852   24.7070 H   0  0  0  0  0  0  0  0  0  0  0  0  # atno 11880 bound_to 11856
  -18.3433   15.7128   25.1624 H   0  0  0  0  0  0  0  0  0  0  0  0  # atno 11881 bound_to 11856
  -28.1161    1.2619   20.5418 H   0  0  0  0  0  0  0  0  0  0  0  0  # atno 12008 bound_to 11984
  -28.6890    3.4403   16.5596 H   0  0  0  0  0  0  0  0  0  0  0  0  # atno 12083 bound_to 12056
  -24.7122    6.4552   12.4842 H   0  0  0  0  0  0  0  0  0  0  0  0  # atno 12164 bound_to 12148
    0.9009   -7.4347   17.2148 H   0  0  0  0  0  0  0  0  0  0  0  0  # atno 15411 bound_to 15403
   -2.1993  -10.3572   22.2557 H   0  0  0  0  0  0  0  0  0  0  0  0  # atno 15476 bound_to 15466
  -12.5562   16.6857   22.2981 LP  0  0  0  0  0  0  0  0  0  0  0  0  # atno 16466 bound_to 11799
  -12.7312   15.1840   22.9152 LP  0  0  0  0  0  0  0  0  0  0  0  0  # atno 16467 bound_to 11799
  -21.3961    5.6459   17.0338 LP  0  0  0  0  0  0  0  0  0  0  0  0  # atno 16468 bound_to 10959
  -22.3145    5.0537   18.2472 LP  0  0  0  0  0  0  0  0  0  0  0  0  # atno 16469 bound_to 10959
  -17.9872    3.7286   13.9337 LP  0  0  0  0  0  0  0  0  0  0  0  0  # atno 16472 bound_to 10886
  -16.7182    3.2085   14.9915 LP  0  0  0  0  0  0  0  0  0  0  0  0  # atno 16473 bound_to 10886
  -17.4346    0.1671   16.3511 LP  0  0  0  0  0  0  0  0  0  0  0  0  # atno 16474 bound_to 10948
  -20.4923   -0.6212   21.9167 LP  0  0  0  0  0  0  0  0  0  0  0  0  # atno 16475 bound_to 11004
  -20.8041    0.1941   20.4207 LP  0  0  0  0  0  0  0  0  0  0  0  0  # atno 16476 bound_to 11004
  -14.5366    0.5947   18.0668 LP  0  0  0  0  0  0  0  0  0  0  0  0  # atno 16477 bound_to 10914
  -13.9744    1.7206   16.8768 LP  0  0  0  0  0  0  0  0  0  0  0  0  # atno 16478 bound_to 10914
  -19.7639    0.1101   17.5914 LP  0  0  0  0  0  0  0  0  0  0  0  0  # atno 16479 bound_to 10951
  -19.3195   -1.5152   17.1901 LP  0  0  0  0  0  0  0  0  0  0  0  0  # atno 16480 bound_to 10951
  -24.5703    1.0317   18.6577 LP  0  0  0  0  0  0  0  0  0  0  0  0  # atno 16482 bound_to 10719
  -24.2374    1.7882   17.2494 LP  0  0  0  0  0  0  0  0  0  0  0  0  # atno 16483 bound_to 10719
  -25.6055    2.1382   18.3581 LP  0  0  0  0  0  0  0  0  0  0  0  0  # atno 16484 bound_to 11987
  -26.3690    0.8662   17.4642 LP  0  0  0  0  0  0  0  0  0  0  0  0  # atno 16485 bound_to 11987
  -27.5603    5.6128   14.5499 LP  0  0  0  0  0  0  0  0  0  0  0  0  # atno 16486 bound_to 12059
  -26.6779    5.9983   15.9896 LP  0  0  0  0  0  0  0  0  0  0  0  0  # atno 16487 bound_to 12059
  -24.3673   -0.5902   23.2561 LP  0  0  0  0  0  0  0  0  0  0  0  0  # atno 16490 bound_to 11046
  -25.0178   -0.5257   21.6521 LP  0  0  0  0  0  0  0  0  0  0  0  0  # atno 16491 bound_to 11046
  -27.3428    2.9570   17.5622 LP  0  0  0  0  0  0  0  0  0  0  0  0  # atno 16492 bound_to 12056
  -17.3076   -0.0997   14.1263 LP  0  0  0  0  0  0  0  0  0  0  0  0  # atno 16493 bound_to 10911
  -12.6303    1.1799   14.5048 LP  0  0  0  0  0  0  0  0  0  0  0  0  # atno 16500 bound_to 6108
  -13.7476    0.5861   13.3220 LP  0  0  0  0  0  0  0  0  0  0  0  0  # atno 16501 bound_to 6108
  -12.8836    3.0223   11.1045 LP  0  0  0  0  0  0  0  0  0  0  0  0  # atno 16502 bound_to 6140
   -7.7499    2.5417   15.6509 LP  0  0  0  0  0  0  0  0  0  0  0  0  # atno 16503 bound_to 5921
   -9.3712    2.0791   15.2541 LP  0  0  0  0  0  0  0  0  0  0  0  0  # atno 16504 bound_to 5921
   -9.3987    2.8859   12.4039 LP  0  0  0  0  0  0  0  0  0  0  0  0  # atno 16505 bound_to 6105
  -10.2658    4.7219   11.7566 LP  0  0  0  0  0  0  0  0  0  0  0  0  # atno 16506 bound_to 6059
   -9.8098    4.3134   10.1364 LP  0  0  0  0  0  0  0  0  0  0  0  0  # atno 16507 bound_to 6059
  -10.5169    0.1016   12.6369 LP  0  0  0  0  0  0  0  0  0  0  0  0  # atno 16510 bound_to 5858
   -9.9988    0.6709   14.1885 LP  0  0  0  0  0  0  0  0  0  0  0  0  # atno 16511 bound_to 5858
   -8.5160   -2.3279   14.9029 LP  0  0  0  0  0  0  0  0  0  0  0  0  # atno 16516 bound_to 5918
   -6.7650    0.0279   15.3164 LP  0  0  0  0  0  0  0  0  0  0  0  0  # atno 16517 bound_to 5990
   -7.3275    3.8067   11.7523 LP  0  0  0  0  0  0  0  0  0  0  0  0  # atno 16518 bound_to 5993
   -6.0968    3.7694   12.9705 LP  0  0  0  0  0  0  0  0  0  0  0  0  # atno 16519 bound_to 5993
   -8.2913    0.9139   12.4857 LP  0  0  0  0  0  0  0  0  0  0  0  0  # atno 16520 bound_to 6056
  -20.9973    1.0334   26.4775 LP  0  0  0  0  0  0  0  0  0  0  0  0  # atno 16523 bound_to 11156
  -21.2886    0.6988   28.1517 LP  0  0  0  0  0  0  0  0  0  0  0  0  # atno 16524 bound_to 11156
  -18.5538   -0.3697   27.4712 LP  0  0  0  0  0  0  0  0  0  0  0  0  # atno 16525 bound_to 11201
  -16.0529   -1.0325   30.2531 LP  0  0  0  0  0  0  0  0  0  0  0  0  # atno 16528 bound_to 11204
  -16.8311   -0.8818   28.7131 LP  0  0  0  0  0  0  0  0  0  0  0  0  # atno 16529 bound_to 11204
  -17.6431    1.4487   30.7523 LP  0  0  0  0  0  0  0  0  0  0  0  0  # atno 16530 bound_to 11237
  -21.1565   -1.8472   24.5849 LP  0  0  0  0  0  0  0  0  0  0  0  0  # atno 16533 bound_to 11153
  -20.3107   -3.6603   23.8034 LP  0  0  0  0  0  0  0  0  0  0  0  0  # atno 16540 bound_to 11096
  -20.6162   -4.0689   25.4586 LP  0  0  0  0  0  0  0  0  0  0  0  0  # atno 16541 bound_to 11096
  -16.6620   -1.5622   13.5950 LP  0  0  0  0  0  0  0  0  0  0  0  0  # atno 16544 bound_to 10768
  -16.3409   -1.8087   15.2790 LP  0  0  0  0  0  0  0  0  0  0  0  0  # atno 16545 bound_to 10768
  -14.6135   -1.7864   33.4199 LP  0  0  0  0  0  0  0  0  0  0  0  0  # atno 16552 bound_to 11240
  -14.6348   -1.6800   31.6913 LP  0  0  0  0  0  0  0  0  0  0  0  0  # atno 16553 bound_to 11240
  -16.5188   -0.7988   33.2559 LP  0  0  0  0  0  0  0  0  0  0  0  0  # atno 16554 bound_to 11275
  -19.8466   -3.0266   33.0202 LP  0  0  0  0  0  0  0  0  0  0  0  0  # atno 16558 bound_to 11278
  -19.2892   -3.6988   31.5244 LP  0  0  0  0  0  0  0  0  0  0  0  0  # atno 16559 bound_to 11278
  -18.4873   -7.8993   26.6073 LP  0  0  0  0  0  0  0  0  0  0  0  0  # atno 16561 bound_to 9430
  -20.6912   -5.8785   31.1284 LP  0  0  0  0  0  0  0  0  0  0  0  0  # atno 16562 bound_to 11325
  -21.7076   -6.6693   32.2867 LP  0  0  0  0  0  0  0  0  0  0  0  0  # atno 16563 bound_to 11325
  -21.7625   -2.6862   31.2297 LP  0  0  0  0  0  0  0  0  0  0  0  0  # atno 16564 bound_to 11474
  -19.8362   -5.0012   34.0097 LP  0  0  0  0  0  0  0  0  0  0  0  0  # atno 16565 bound_to 11366
  -21.1046   -9.0830   27.5969 LP  0  0  0  0  0  0  0  0  0  0  0  0  # atno 16566 bound_to 9387
  -21.1708   -8.4095   26.0025 LP  0  0  0  0  0  0  0  0  0  0  0  0  # atno 16567 bound_to 9387
  -19.1605  -10.8638   30.8349 LP  0  0  0  0  0  0  0  0  0  0  0  0  # atno 16568 bound_to 11550
  -19.3622  -11.2867   32.3992 LP  0  0  0  0  0  0  0  0  0  0  0  0  # atno 16569 bound_to 11550
  -18.9423  -12.2720   25.1647 LP  0  0  0  0  0  0  0  0  0  0  0  0  # atno 16570 bound_to 9345
  -18.9267  -10.5470   25.0091 LP  0  0  0  0  0  0  0  0  0  0  0  0  # atno 16571 bound_to 9345
  -13.7717  -12.9364   25.0888 LP  0  0  0  0  0  0  0  0  0  0  0  0  # atno 16572 bound_to 9348
  -14.3757  -13.1638   23.5888 LP  0  0  0  0  0  0  0  0  0  0  0  0  # atno 16573 bound_to 9348
  -20.1951   -8.6863   23.7797 LP  0  0  0  0  0  0  0  0  0  0  0  0  # atno 16574 bound_to 9481
   -9.0525   -3.9716   16.4098 LP  0  0  0  0  0  0  0  0  0  0  0  0  # atno 16579 bound_to 5720
   -7.8870   -3.4602   15.2350 LP  0  0  0  0  0  0  0  0  0  0  0  0  # atno 16580 bound_to 5720
   -1.4796  -10.6180   20.8198 LP  0  0  0  0  0  0  0  0  0  0  0  0  # atno 16587 bound_to 15466
   -1.5276   -9.1127   21.4509 LP  0  0  0  0  0  0  0  0  0  0  0  0  # atno 16588 bound_to 15466
  -10.5637   -9.7061   16.9215 LP  0  0  0  0  0  0  0  0  0  0  0  0  # atno 16591 bound_to 7831
   -3.1668  -13.3885   25.6602 LP  0  0  0  0  0  0  0  0  0  0  0  0  # atno 16592 bound_to 1821
   -3.5097  -13.5678   27.3484 LP  0  0  0  0  0  0  0  0  0  0  0  0  # atno 16593 bound_to 1821
   -7.4297  -12.6242   18.7345 LP  0  0  0  0  0  0  0  0  0  0  0  0  # atno 16594 bound_to 7834
   -7.7092  -13.4828   17.2565 LP  0  0  0  0  0  0  0  0  0  0  0  0  # atno 16595 bound_to 7834
   -8.0407   -7.7453   14.2881 LP  0  0  0  0  0  0  0  0  0  0  0  0  # atno 16596 bound_to 5717
   -6.3287   -6.5377   15.7770 LP  0  0  0  0  0  0  0  0  0  0  0  0  # atno 16597 bound_to 5767
   -0.5353  -12.2332   19.8897 LP  0  0  0  0  0  0  0  0  0  0  0  0  # atno 16600 bound_to 1745
   -0.6605  -13.5207   18.7379 LP  0  0  0  0  0  0  0  0  0  0  0  0  # atno 16601 bound_to 1745
   -0.1096  -14.2313   24.0457 LP  0  0  0  0  0  0  0  0  0  0  0  0  # atno 16602 bound_to 1818
   -3.2932   -6.7400   14.3865 LP  0  0  0  0  0  0  0  0  0  0  0  0  # atno 16603 bound_to 5772
   -3.7478   -5.5856   13.3247 LP  0  0  0  0  0  0  0  0  0  0  0  0  # atno 16604 bound_to 5772
    1.6138   -8.8877   17.8751 LP  0  0  0  0  0  0  0  0  0  0  0  0  # atno 16605 bound_to 15403
    1.1754  -13.3358   20.9969 LP  0  0  0  0  0  0  0  0  0  0  0  0  # atno 16606 bound_to 1791
   -4.3643   -9.7571   12.6651 LP  0  0  0  0  0  0  0  0  0  0  0  0  # atno 16607 bound_to 5617
   -6.0720   -7.4848   14.1077 LP  0  0  0  0  0  0  0  0  0  0  0  0  # atno 16608 bound_to 5620
   -5.9995   -7.6812   12.3883 LP  0  0  0  0  0  0  0  0  0  0  0  0  # atno 16609 bound_to 5620
  -10.1829  -10.9547   14.8708 LP  0  0  0  0  0  0  0  0  0  0  0  0  # atno 16610 bound_to 7788
   -9.1498   -9.7505   15.5656 LP  0  0  0  0  0  0  0  0  0  0  0  0  # atno 16611 bound_to 7788
  -10.9670  -12.7079   17.9897 LP  0  0  0  0  0  0  0  0  0  0  0  0  # atno 16612 bound_to 7874
    1.1762  -15.8762   23.1543 LP  0  0  0  0  0  0  0  0  0  0  0  0  # atno 16613 bound_to 1794
   -0.2184  -16.6876   23.7841 LP  0  0  0  0  0  0  0  0  0  0  0  0  # atno 16614 bound_to 1794
   -0.8567  -13.5309   28.0980 LP  0  0  0  0  0  0  0  0  0  0  0  0  # atno 16615 bound_to 1824
    0.3531  -14.3717   28.8024 LP  0  0  0  0  0  0  0  0  0  0  0  0  # atno 16616 bound_to 1824
   -2.9310  -15.9043   26.1687 LP  0  0  0  0  0  0  0  0  0  0  0  0  # atno 16617 bound_to 1854
  -15.0279  -14.2461   27.1203 LP  0  0  0  0  0  0  0  0  0  0  0  0  # atno 16622 bound_to 9318
  -16.1021  -15.1240   28.1573 LP  0  0  0  0  0  0  0  0  0  0  0  0  # atno 16623 bound_to 9318
  -17.7011  -13.9338   26.3434 LP  0  0  0  0  0  0  0  0  0  0  0  0  # atno 16624 bound_to 9342
  -21.0619   -6.8384   22.8155 LP  0  0  0  0  0  0  0  0  0  0  0  0  # atno 16627 bound_to 9433
  -21.8860   -8.3618   22.8218 LP  0  0  0  0  0  0  0  0  0  0  0  0  # atno 16628 bound_to 9433
  -16.5193   -7.0234   18.6159 LP  0  0  0  0  0  0  0  0  0  0  0  0  # atno 16629 bound_to 9492
  -17.7831   -7.2665   17.6108 LP  0  0  0  0  0  0  0  0  0  0  0  0  # atno 16630 bound_to 9492
  -17.3786  -13.3368   20.1402 LP  0  0  0  0  0  0  0  0  0  0  0  0  # atno 16631 bound_to 7667
  -17.2505  -11.8595   19.2451 LP  0  0  0  0  0  0  0  0  0  0  0  0  # atno 16632 bound_to 7667
  -15.3600  -13.4342   18.8995 LP  0  0  0  0  0  0  0  0  0  0  0  0  # atno 16634 bound_to 7723
  -12.3324  -12.0025   15.9827 LP  0  0  0  0  0  0  0  0  0  0  0  0  # atno 16635 bound_to 7726
  -13.3012  -13.1140   16.8916 LP  0  0  0  0  0  0  0  0  0  0  0  0  # atno 16636 bound_to 7726
  -20.4004   -5.9712   15.6126 LP  0  0  0  0  0  0  0  0  0  0  0  0  # atno 16637 bound_to 10539
  -20.3979   -5.7598   17.3317 LP  0  0  0  0  0  0  0  0  0  0  0  0  # atno 16638 bound_to 10539
   -6.3410  -15.7115   33.2240 LP  0  0  0  0  0  0  0  0  0  0  0  0  # atno 16639 bound_to 1884
   -6.4305  -15.9561   31.6119 LP  0  0  0  0  0  0  0  0  0  0  0  0  # atno 16640 bound_to 1884
  -17.1747  -16.5878   28.0214 LP  0  0  0  0  0  0  0  0  0  0  0  0  # atno 16641 bound_to 9315
   -4.9604  -17.6114   29.5998 LP  0  0  0  0  0  0  0  0  0  0  0  0  # atno 16642 bound_to 1879
   -1.7688  -17.5809   29.3330 LP  0  0  0  0  0  0  0  0  0  0  0  0  # atno 16643 bound_to 1857
   -1.8576  -16.1236   30.2647 LP  0  0  0  0  0  0  0  0  0  0  0  0  # atno 16644 bound_to 1857
  -17.4127  -18.2382   23.4481 LP  0  0  0  0  0  0  0  0  0  0  0  0  # atno 16645 bound_to 7565
  -18.3318  -16.8348   23.0171 LP  0  0  0  0  0  0  0  0  0  0  0  0  # atno 16646 bound_to 7565
  -19.7847  -17.6770   25.9263 LP  0  0  0  0  0  0  0  0  0  0  0  0  # atno 16647 bound_to 9289
  -20.5584  -17.2537   27.4170 LP  0  0  0  0  0  0  0  0  0  0  0  0  # atno 16648 bound_to 9289
  -18.4508  -18.1978   31.7064 LP  0  0  0  0  0  0  0  0  0  0  0  0  # atno 16649 bound_to 9236
  -18.3952  -19.9176   31.5086 LP  0  0  0  0  0  0  0  0  0  0  0  0  # atno 16650 bound_to 9236
  -20.1245  -18.1909   29.9007 LP  0  0  0  0  0  0  0  0  0  0  0  0  # atno 16653 bound_to 9286
  -20.7090  -21.2035   31.6561 LP  0  0  0  0  0  0  0  0  0  0  0  0  # atno 16654 bound_to 9233
  -11.5978  -22.6611   34.5139 LP  0  0  0  0  0  0  0  0  0  0  0  0  # atno 16655 bound_to 3365
  -11.2766  -23.9016   33.3486 LP  0  0  0  0  0  0  0  0  0  0  0  0  # atno 16656 bound_to 3365
   -8.3820  -24.9630   36.6682 LP  0  0  0  0  0  0  0  0  0  0  0  0  # atno 16657 bound_to 3362
   -5.0802  -19.2826   30.0316 LP  0  0  0  0  0  0  0  0  0  0  0  0  # atno 16658 bound_to 1922

> <Gold.Score>
     Fitness  S(hb_ext) S(vdw_ext)  S(hb_int)    S(int)      intcor
     22.88       0.00      17.08       0.00      -0.60      -0.76

> <Gold.Goldscore.Fitness>
22.8788

> <Gold.Goldscore.Internal.Vdw>
-0.7389

> <Gold.Goldscore.Internal.Torsion>
-0.6207

> <Gold.Goldscore.External.Vdw>
17.0762

> <Gold.Goldscore.Internal.HBond>
0.0000

> <Gold.Goldscore.External.HBond>
0.0000

> <Gold.Goldscore.Internal.Correction>
-0.7585

> <Gold.Goldscore.Internal.Vdw.Weighted>
-0.7389

> <Gold.Goldscore.Internal.Torsion.Weighted>
-0.6207

> <Gold.Goldscore.External.Vdw.Weighted>
23.4798

> <Gold.Goldscore.Internal.HBond.Weighted>
0.0000

> <Gold.Goldscore.External.HBond.Weighted>
0.0000

> <Gold.Goldscore.Internal.Correction.Weighted>
-0.7585

> <Gold.Rescore>
     Score     S(PLP)   S(hbond)     S(cho)   S(metal)  DE(clash)   DE(tors)     intcor
     24.95     -27.62       0.00       0.00       0.00       1.09       0.79       ----

> <Gold.PLP.Fitness>
24.9470

> <Gold.PLP.PLP>
-27.6172

> <Gold.PLP.part.hbond>
-0.7727

> <Gold.PLP.part.metal>
0.0000

> <Gold.PLP.part.buried>
-2.0245

> <Gold.PLP.part.nonpolar>
-27.8479

> <Gold.PLP.part.repulsive>
1.5858

> <Gold.PLP.ligand.clash>
1.0888

> <Gold.PLP.ligand.torsion>
0.7907

> <Gold.PLP.Chemscore.Hbond>
0.0000

> <Gold.PLP.Chemscore.CHOScore>
0.0000

> <Gold.PLP.Chemscore.Metal>
0.0000

> <Gold.PLP.Chemscore.Internal.Correction>
   9.000000E+99

