#       Name:                CT1002167954
#       Creating user name   hitesit
#       Creation time:       Sun Apr 16 20:17:46 2023


#       File generated by GOLD software.
#

@<TRIPOS>MOLECULE
CT1002167954|ligand_prepared|mol2|1|dock6
    29    30     1
SMALL
NO_CHARGES


@<TRIPOS>ATOM
      1 C1         -13.6838   4.8676  16.5173 C.3            1 RES1               0.0000
      2 C2         -12.7334   3.7437  16.9781 C.ar           1 RES1               0.0000
      3 C3         -12.9208   5.6705  15.4678 C.2            1 RES1               0.0000
      4 C4         -14.9343   4.1770  15.9843 C.2            1 RES1               0.0000
      5 C5         -14.1142   5.8262  17.6519 C.3            1 RES1               0.0000
      6 C6         -12.5048   2.6335  16.1706 C.ar           1 RES1               0.0000
      7 C7         -12.0773   3.8040  18.2047 C.ar           1 RES1               0.0000
      8 N8         -13.2871   5.5144  14.1635 N.am           1 RES1               0.0000
      9 O9         -11.9859   6.3993  15.7761 O.2            1 RES1               0.0000
     10 N10        -15.2134   4.2961  14.6480 N.am           1 RES1               0.0000
     11 O11        -15.6715   3.5171  16.7064 O.2            1 RES1               0.0000
     12 C12        -15.2258   6.7852  17.2557 C.3            1 RES1               0.0000
     13 C13        -11.6489   1.6218  16.5733 C.ar           1 RES1               0.0000
     14 C14        -11.2220   2.7910  18.6055 C.ar           1 RES1               0.0000
     15 C15        -14.4299   4.9078  13.7077 C.2            1 RES1               0.0000
     16 C16        -11.0066   1.7000  17.7907 C.ar           1 RES1               0.0000
     17 O17        -14.7212   4.9264  12.5153 O.2            1 RES1               0.0000
     18 H18        -14.4510   5.2301  18.5090 H              1 RES1               0.0000
     19 H19        -13.2418   6.4096  17.9712 H              1 RES1               0.0000
     20 H20        -13.0032   2.5534  15.2103 H              1 RES1               0.0000
     21 H21        -12.2324   4.6524  18.8626 H              1 RES1               0.0000
     22 H22        -12.6525   5.8826  13.4620 H              1 RES1               0.0000
     23 H23        -16.0861   3.8913  14.3243 H              1 RES1               0.0000
     24 H24        -15.4894   7.4349  18.0876 H              1 RES1               0.0000
     25 H25        -14.9159   7.4114  16.4217 H              1 RES1               0.0000
     26 H26        -16.1179   6.2390  16.9562 H              1 RES1               0.0000
     27 H27        -11.4839   0.7646  15.9289 H              1 RES1               0.0000
     28 H28        -10.7191   2.8564  19.5647 H              1 RES1               0.0000
     29 H29        -10.3359   0.9075  18.1057 H              1 RES1               0.0000
@<TRIPOS>BOND
    1    1    2 1     
    2    1    3 1     
    3    1    4 1     
    4    1    5 1     
    5    2    6 ar    
    6    2    7 ar    
    7    3    8 1     
    8    3    9 2     
    9    4   10 1     
   10    4   11 2     
   11    5   12 1     
   12    5   18 1     
   13    5   19 1     
   14    6   13 ar    
   15    6   20 1     
   16    7   14 ar    
   17    7   21 1     
   18    8   15 1     
   19    8   22 1     
   20   10   15 1     
   21   10   23 1     
   22   12   24 1     
   23   12   25 1     
   24   12   26 1     
   25   13   16 ar    
   26   13   27 1     
   27   14   16 ar    
   28   14   28 1     
   29   15   17 2     
   30   16   29 1     
@<TRIPOS>SUBSTRUCTURE
      1 RES1           1
@<TRIPOS>SET
DONOR_HYDROGENS      STATIC     ATOMS    <user>   **** ""
2 22 23
ATOM$RED        STATIC     ATOMS    COLORGROUP SYSTEM
2 22 23
@<TRIPOS>COMMENT
> <Gold.Version>
2022.3.0

> <Gold.Id.Protein>
unknown|3mvj_clean|pdb

> <Gold.Protein.RotatedTorsions>
[ 11816 11799 11798 11795 ] final -178.34 input   60.01 | X-H torsion
[ 11879 11856 11855 11854 ] final -174.52 input   60.02 | X-H torsion
[ 10986 10959 10958 10956 ] final  -12.44 input   60.00 | X-H torsion
[ 10978 10948 10949 10950 ] final  154.99 input   32.02 | X-H torsion
[ 10745 10719 10718 10716 ] final  -54.95 input   60.01 | X-H torsion
[ 12083 12056 12057 12058 ] final  146.64 input   63.02 | X-H torsion
[ 10921 10911 10912 10913 ] final  126.54 input  -92.90 | X-H torsion
[ 6177 6140 6141 6142 ] final   65.03 input   39.58 | X-H torsion
[ 6115 6105 6106 6107 ] final  -68.20 input  -69.34 | X-H torsion
[ 5955 5918 5919 5920 ] final   51.66 input  125.26 | X-H torsion
[ 6027 5990 5991 5992 ] final  -37.98 input  110.40 | X-H torsion
[ 6086 6056 6057 6058 ] final  114.51 input  107.04 | X-H torsion
[ 11660 11631 11630 11629 ] final -167.27 input   60.02 | X-H torsion
[ 11213 11201 11202 11203 ] final -131.05 input   18.84 | X-H torsion
[ 11249 11237 11238 11239 ] final    6.02 input  111.29 | X-H torsion
[ 11182 11153 11154 11155 ] final  -95.90 input   30.50 | X-H torsion
[ 11292 11275 11276 11277 ] final   -6.05 input   58.53 | X-H torsion
[ 9445 9430 9431 9432 ] final -176.63 input  110.06 | X-H torsion
[ 11493 11474 11475 11476 ] final -165.14 input  115.95 | X-H torsion
[ 11385 11366 11367 11368 ] final   45.13 input  117.79 | X-H torsion
[ 11568 11550 11549 11547 ] final   35.06 input   59.97 | X-H torsion
[ 9362 9348 9346 9343 ] final  140.60 input   60.02 | X-H torsion
[ 9502 9481 9482 9483 ] final  178.67 input   75.78 | X-H torsion
[ 15476 15466 15465 15463 ] final  -91.49 input   60.00 | X-H torsion
[ 7768 7731 7730 7729 ] final  -97.11 input   60.02 | X-H torsion
[ 7852 7831 7832 7833 ] final  157.82 input  113.97 | X-H torsion
[ 5737 5717 5718 5719 ] final  -81.29 input  137.93 | X-H torsion
[ 5778 5767 5768 5769 ] final  129.29 input  116.46 | X-H torsion
[ 1832 1818 1819 1820 ] final  125.36 input   43.70 | X-H torsion
[ 5782 5772 5771 5768 ] final -164.93 input   59.97 | X-H torsion
[ 15411 15403 15404 15405 ] final  -72.04 input  102.24 | X-H torsion
[ 1801 1791 1792 1793 ] final  -30.05 input  -10.55 | X-H torsion
[ 5638 5617 5618 5619 ] final -137.12 input   93.34 | X-H torsion
[ 7894 7874 7875 7876 ] final   52.74 input   68.03 | X-H torsion
[ 1838 1824 1822 1819 ] final  178.19 input   60.02 | X-H torsion
[ 1861 1854 1855 1856 ] final   56.15 input   57.50 | X-H torsion
[ 9356 9342 9343 9344 ] final   47.15 input   55.58 | X-H torsion
[ 9510 9492 9491 9489 ] final   98.00 input   60.02 | X-H torsion
[ 7758 7723 7724 7725 ] final  119.08 input   17.81 | X-H torsion
[ 1898 1884 1883 1880 ] final  142.99 input   60.01 | X-H torsion
[ 9322 9315 9316 9317 ] final   -3.86 input  -36.21 | X-H torsion
[ 1894 1879 1880 1881 ] final  103.83 input   98.21 | X-H torsion
[ 9297 9286 9287 9288 ] final   65.15 input   37.00 | X-H torsion
[ 9252 9233 9234 9235 ] final   40.47 input   95.32 | X-H torsion
[ 3370 3362 3363 3364 ] final -149.60 input   97.92 | X-H torsion
[ 1951 1922 1923 1924 ] final  108.66 input  104.43 | X-H torsion
[ 12164 12148 12149 12150 ] final -100.53 input  116.04 | X-H torsion
[ 11673 11649 11648 11647 ] final -176.36 input   59.99 | X-H torsion
[ 12008 11984 11985 11986 ] final   80.67 input   61.04 | X-H torsion
[ 11122 11093 11094 11095 ] final   25.36 input   39.50 | X-H torsion
[ 7946 7916 7917 7918 ] final   83.39 input   66.66 | X-H torsion
[ 8659 8630 8631 8632 ] final -165.28 input   75.31 | X-H torsion
[ 9555 9536 9537 9538 ] final  -21.76 input  103.50 | X-H torsion
[ 16472 10886 10885 10884 ] final  -14.16 input    0.00 | X-H torsion
[ 16475 11004 11003 11002 ] final -128.15 input    0.00 | X-H torsion
[ 16477 10914 10913 10912 ] final -128.19 input    0.00 | X-H torsion
[ 16479 10951 10950 10949 ] final  -63.29 input   -0.00 | X-H torsion
[ 16484 11987 11986 11985 ] final  130.71 input    0.00 | X-H torsion
[ 16486 12059 12058 12057 ] final -140.89 input   -0.00 | X-H torsion
[ 16490 11046 11045 11044 ] final  -49.92 input    0.00 | X-H torsion
[ 16500 6108 6107 6106 ] final  -43.85 input    0.00 | X-H torsion
[ 16503 5921 5920 5919 ] final -100.14 input   -0.00 | X-H torsion
[ 16506 6059 6058 6057 ] final -140.94 input    0.00 | X-H torsion
[ 16510 5858 5857 5856 ] final  145.93 input    0.00 | X-H torsion
[ 16518 5993 5992 5991 ] final -110.01 input   -0.00 | X-H torsion
[ 16523 11156 11155 11154 ] final   -3.14 input    0.00 | X-H torsion
[ 16528 11204 11203 11202 ] final   58.72 input    0.00 | X-H torsion
[ 16540 11096 11095 11094 ] final   92.45 input   -0.00 | X-H torsion
[ 16544 10768 10767 10766 ] final   -7.42 input   -0.00 | X-H torsion
[ 16552 11240 11239 11238 ] final -105.86 input    0.00 | X-H torsion
[ 16558 11278 11277 11276 ] final -126.95 input   -0.00 | X-H torsion
[ 16562 11325 11324 11323 ] final -164.90 input   -0.00 | X-H torsion
[ 16566 9387 9386 9385 ] final  178.23 input   -0.00 | X-H torsion
[ 16570 9345 9344 9343 ] final  -44.00 input    0.00 | X-H torsion
[ 16579 5720 5719 5718 ] final   27.69 input    0.00 | X-H torsion
[ 16592 1821 1820 1819 ] final   38.92 input    0.00 | X-H torsion
[ 16594 7834 7833 7832 ] final  161.28 input    0.00 | X-H torsion
[ 16600 1745 1744 1743 ] final  171.10 input    0.00 | X-H torsion
[ 16608 5620 5619 5618 ] final    6.55 input   -0.00 | X-H torsion
[ 16610 7788 7787 7786 ] final   24.77 input   -0.00 | X-H torsion
[ 16613 1794 1793 1792 ] final -174.79 input   -0.00 | X-H torsion
[ 16622 9318 9317 9316 ] final -167.82 input   -0.00 | X-H torsion
[ 16627 9433 9432 9431 ] final   14.98 input    0.00 | X-H torsion
[ 16631 7667 7666 7665 ] final -148.15 input   -0.00 | X-H torsion
[ 16635 7726 7725 7724 ] final   -3.34 input    0.00 | X-H torsion
[ 16637 10539 10538 10537 ] final -153.81 input   -0.00 | X-H torsion
[ 16643 1857 1856 1855 ] final   -0.56 input    0.00 | X-H torsion
[ 16645 7565 7564 7563 ] final -124.22 input    0.00 | X-H torsion
[ 16647 9289 9288 9287 ] final  -87.65 input    0.00 | X-H torsion
[ 16649 9236 9235 9234 ] final  155.60 input    0.00 | X-H torsion
[ 16655 3365 3364 3363 ] final  114.68 input    0.00 | X-H torsion

> <Gold.Protein.ActiveResidues>
 LEU49   GLY50   THR51   GLY52   SER53   PHE54   VAL57   LEU82   LYS83   GLN84  
 HIS87   GLU127  PHE129  SER130  LEU132  ARG133  ARG134  ILE135  GLY136  ARG137 
 ARG165  ASP166  LEU167  LYS168  PRO169  GLU170  ASN171  LEU172  LEU173  ASP184 
 GLY186  PHE187  TPO197  LEU198  CYS199  GLY200  THR201  PRO202  GLU203  TYR204 
 LEU205  ILE209  ILE210  VAL226  LEU227  TYR229  GLU230  ALA233  GLY234  TYR235 
 PRO236  PRO237  PHE238  PHE239  ALA240  ASP241  GLN242  PRO243  ILE244  GLN245 
 ILE246  TYR247  GLU248  LYS249  ILE250  VAL251  SER252  LYS254  ARG256  PHE257 
 PRO258  SER259  PHE327  ASP328  TYR330 

> <Gold.Protein.RotatedAtoms>
    1.5738  -14.3193   21.7713 H   0  0  0  0  0  0  0  0  0  0  0  0  # atno 1801 bound_to 1791
   -0.2263  -13.5847   24.4401 H   0  0  0  0  0  0  0  0  0  0  0  0  # atno 1832 bound_to 1818
    0.3545  -14.2668   28.7744 H   0  0  0  0  0  0  0  0  0  0  0  0  # atno 1838 bound_to 1824
   -2.2543  -16.9154   26.9743 H   0  0  0  0  0  0  0  0  0  0  0  0  # atno 1861 bound_to 1854
   -5.4294  -16.8691   30.0164 H   0  0  0  0  0  0  0  0  0  0  0  0  # atno 1894 bound_to 1879
   -6.8117  -15.9854   32.5344 H   0  0  0  0  0  0  0  0  0  0  0  0  # atno 1898 bound_to 1884
   -5.0831  -19.3101   29.9840 H   0  0  0  0  0  0  0  0  0  0  0  0  # atno 1951 bound_to 1922
   -7.5317  -23.8332   36.9486 H   0  0  0  0  0  0  0  0  0  0  0  0  # atno 3370 bound_to 3362
   -4.1118  -10.9948   13.2197 H   0  0  0  0  0  0  0  0  0  0  0  0  # atno 5638 bound_to 5617
   -9.4441   -7.2876   13.9954 H   0  0  0  0  0  0  0  0  0  0  0  0  # atno 5737 bound_to 5717
   -6.2880   -6.5868   15.5948 H   0  0  0  0  0  0  0  0  0  0  0  0  # atno 5778 bound_to 5767
   -3.1784   -6.6087   14.2929 H   0  0  0  0  0  0  0  0  0  0  0  0  # atno 5782 bound_to 5772
   -8.3504   -1.8801   14.3714 H   0  0  0  0  0  0  0  0  0  0  0  0  # atno 5955 bound_to 5918
   -8.0163    0.6044   14.6031 H   0  0  0  0  0  0  0  0  0  0  0  0  # atno 6027 bound_to 5990
   -7.8080    0.3962   11.7929 H   0  0  0  0  0  0  0  0  0  0  0  0  # atno 6086 bound_to 6056
   -9.8813    1.4702   12.8187 H   0  0  0  0  0  0  0  0  0  0  0  0  # atno 6115 bound_to 6105
  -12.9351    3.0628   11.1307 H   0  0  0  0  0  0  0  0  0  0  0  0  # atno 6177 bound_to 6140
  -15.0187  -13.4908   18.9080 H   0  0  0  0  0  0  0  0  0  0  0  0  # atno 7758 bound_to 7723
  -11.1127  -12.0927   24.0160 H   0  0  0  0  0  0  0  0  0  0  0  0  # atno 7768 bound_to 7731
  -12.7340  -11.8717   24.2806 H   0  0  0  0  0  0  0  0  0  0  0  0  # atno 7769 bound_to 7731
  -12.0445  -13.3553   24.5506 H   0  0  0  0  0  0  0  0  0  0  0  0  # atno 7770 bound_to 7731
  -10.9704   -9.4825   18.2091 H   0  0  0  0  0  0  0  0  0  0  0  0  # atno 7852 bound_to 7831
  -11.0036  -12.5172   17.1545 H   0  0  0  0  0  0  0  0  0  0  0  0  # atno 7894 bound_to 7874
  -10.4189  -12.7284   15.3621 H   0  0  0  0  0  0  0  0  0  0  0  0  # atno 7946 bound_to 7916
  -13.0397  -22.3975   24.0541 H   0  0  0  0  0  0  0  0  0  0  0  0  # atno 8659 bound_to 8630
  -20.6331  -21.2053   31.5476 H   0  0  0  0  0  0  0  0  0  0  0  0  # atno 9252 bound_to 9233
  -20.3895  -19.3472   28.7302 H   0  0  0  0  0  0  0  0  0  0  0  0  # atno 9297 bound_to 9286
  -17.0155  -16.6206   27.9513 H   0  0  0  0  0  0  0  0  0  0  0  0  # atno 9322 bound_to 9315
  -17.8312  -13.5886   25.0142 H   0  0  0  0  0  0  0  0  0  0  0  0  # atno 9356 bound_to 9342
  -14.4854  -13.2491   23.5867 H   0  0  0  0  0  0  0  0  0  0  0  0  # atno 9362 bound_to 9348
  -18.1916   -7.8318   26.4538 H   0  0  0  0  0  0  0  0  0  0  0  0  # atno 9445 bound_to 9430
  -19.1058   -8.8936   23.2722 H   0  0  0  0  0  0  0  0  0  0  0  0  # atno 9502 bound_to 9481
  -16.2874   -8.1512   17.6762 H   0  0  0  0  0  0  0  0  0  0  0  0  # atno 9510 bound_to 9492
  -21.9399  -10.8249   23.6991 H   0  0  0  0  0  0  0  0  0  0  0  0  # atno 9555 bound_to 9536
  -23.5244    1.1629   18.8635 H   0  0  0  0  0  0  0  0  0  0  0  0  # atno 10745 bound_to 10719
  -17.2835    1.5148   13.7319 H   0  0  0  0  0  0  0  0  0  0  0  0  # atno 10921 bound_to 10911
  -16.4458    1.5020   16.8293 H   0  0  0  0  0  0  0  0  0  0  0  0  # atno 10978 bound_to 10948
  -22.5959    4.3432   17.6611 H   0  0  0  0  0  0  0  0  0  0  0  0  # atno 10986 bound_to 10959
  -21.9012   -2.8405   22.3297 H   0  0  0  0  0  0  0  0  0  0  0  0  # atno 11122 bound_to 11093
  -21.6595   -2.1406   25.6794 H   0  0  0  0  0  0  0  0  0  0  0  0  # atno 11182 bound_to 11153
  -19.3592   -0.1437   27.4092 H   0  0  0  0  0  0  0  0  0  0  0  0  # atno 11213 bound_to 11201
  -18.1385   -0.1097   31.3564 H   0  0  0  0  0  0  0  0  0  0  0  0  # atno 11249 bound_to 11237
  -17.7350   -1.3623   32.2012 H   0  0  0  0  0  0  0  0  0  0  0  0  # atno 11292 bound_to 11275
  -19.7473   -5.0029   34.1909 H   0  0  0  0  0  0  0  0  0  0  0  0  # atno 11385 bound_to 11366
  -21.5084   -2.8017   31.2113 H   0  0  0  0  0  0  0  0  0  0  0  0  # atno 11493 bound_to 11474
  -18.7751  -10.1080   31.0609 H   0  0  0  0  0  0  0  0  0  0  0  0  # atno 11568 bound_to 11550
   -9.4060    8.1292   26.3709 H   0  0  0  0  0  0  0  0  0  0  0  0  # atno 11660 bound_to 11631
   -8.0915    8.4807   25.4252 H   0  0  0  0  0  0  0  0  0  0  0  0  # atno 11661 bound_to 11631
   -8.3431    9.3137   26.8352 H   0  0  0  0  0  0  0  0  0  0  0  0  # atno 11662 bound_to 11631
  -24.4005    3.0451   27.6031 H   0  0  0  0  0  0  0  0  0  0  0  0  # atno 11673 bound_to 11649
  -25.5777    2.1530   28.3564 H   0  0  0  0  0  0  0  0  0  0  0  0  # atno 11674 bound_to 11649
  -24.1438    2.4550   29.1312 H   0  0  0  0  0  0  0  0  0  0  0  0  # atno 11675 bound_to 11649
  -13.1656   15.2986   23.3559 H   0  0  0  0  0  0  0  0  0  0  0  0  # atno 11816 bound_to 11799
  -18.0488   16.4126   24.3228 H   0  0  0  0  0  0  0  0  0  0  0  0  # atno 11879 bound_to 11856
  -16.7807   15.3617   24.1349 H   0  0  0  0  0  0  0  0  0  0  0  0  # atno 11880 bound_to 11856
  -17.9105   15.0940   25.3182 H   0  0  0  0  0  0  0  0  0  0  0  0  # atno 11881 bound_to 11856
  -27.8267    1.0933   20.2944 H   0  0  0  0  0  0  0  0  0  0  0  0  # atno 12008 bound_to 11984
  -28.5537    2.5891   16.7295 H   0  0  0  0  0  0  0  0  0  0  0  0  # atno 12083 bound_to 12056
  -25.5390    6.5706   13.2336 H   0  0  0  0  0  0  0  0  0  0  0  0  # atno 12164 bound_to 12148
    1.9356   -7.8499   17.0732 H   0  0  0  0  0  0  0  0  0  0  0  0  # atno 15411 bound_to 15403
   -1.5275   -9.1194   21.4537 H   0  0  0  0  0  0  0  0  0  0  0  0  # atno 15476 bound_to 15466
  -13.3978   16.8972   23.1599 LP  0  0  0  0  0  0  0  0  0  0  0  0  # atno 16466 bound_to 11799
  -12.3292   16.1024   22.2148 LP  0  0  0  0  0  0  0  0  0  0  0  0  # atno 16467 bound_to 11799
  -21.6688    4.9667   16.4778 LP  0  0  0  0  0  0  0  0  0  0  0  0  # atno 16468 bound_to 10959
  -21.7269    5.6905   17.9405 LP  0  0  0  0  0  0  0  0  0  0  0  0  # atno 16469 bound_to 10959
  -18.0485    3.7305   14.0185 LP  0  0  0  0  0  0  0  0  0  0  0  0  # atno 16472 bound_to 10886
  -16.6569    3.2067   14.9067 LP  0  0  0  0  0  0  0  0  0  0  0  0  # atno 16473 bound_to 10886
  -17.2059   -0.0017   16.3459 LP  0  0  0  0  0  0  0  0  0  0  0  0  # atno 16474 bound_to 10948
  -21.1421   -0.5309   21.8054 LP  0  0  0  0  0  0  0  0  0  0  0  0  # atno 16475 bound_to 11004
  -20.1543    0.1039   20.5321 LP  0  0  0  0  0  0  0  0  0  0  0  0  # atno 16476 bound_to 11004
  -14.3881    0.4124   17.8924 LP  0  0  0  0  0  0  0  0  0  0  0  0  # atno 16477 bound_to 10914
  -14.1229    1.9030   17.0512 LP  0  0  0  0  0  0  0  0  0  0  0  0  # atno 16478 bound_to 10914
  -19.7500    0.1172   17.5772 LP  0  0  0  0  0  0  0  0  0  0  0  0  # atno 16479 bound_to 10951
  -19.3334   -1.5222   17.2044 LP  0  0  0  0  0  0  0  0  0  0  0  0  # atno 16480 bound_to 10951
  -24.8753    1.2980   17.9667 LP  0  0  0  0  0  0  0  0  0  0  0  0  # atno 16482 bound_to 10719
  -23.4583    1.8861   17.4074 LP  0  0  0  0  0  0  0  0  0  0  0  0  # atno 16483 bound_to 10719
  -26.1806    1.0987   17.1697 LP  0  0  0  0  0  0  0  0  0  0  0  0  # atno 16484 bound_to 11987
  -25.7940    1.9058   18.6526 LP  0  0  0  0  0  0  0  0  0  0  0  0  # atno 16485 bound_to 11987
  -26.7681    6.0999   14.5348 LP  0  0  0  0  0  0  0  0  0  0  0  0  # atno 16486 bound_to 12059
  -27.4701    5.5112   16.0047 LP  0  0  0  0  0  0  0  0  0  0  0  0  # atno 16487 bound_to 12059
  -24.3635    0.0521   21.9349 LP  0  0  0  0  0  0  0  0  0  0  0  0  # atno 16490 bound_to 11046
  -25.0216   -1.1680   22.9732 LP  0  0  0  0  0  0  0  0  0  0  0  0  # atno 16491 bound_to 11046
  -27.4755    3.7910   17.3957 LP  0  0  0  0  0  0  0  0  0  0  0  0  # atno 16492 bound_to 12056
  -17.5451    0.0158   14.5977 LP  0  0  0  0  0  0  0  0  0  0  0  0  # atno 16493 bound_to 10911
  -12.3780    0.6519   14.1107 LP  0  0  0  0  0  0  0  0  0  0  0  0  # atno 16500 bound_to 6108
  -13.9999    1.1141   13.7161 LP  0  0  0  0  0  0  0  0  0  0  0  0  # atno 16501 bound_to 6108
  -12.4863    1.8229   12.2782 LP  0  0  0  0  0  0  0  0  0  0  0  0  # atno 16502 bound_to 6140
   -8.9671    2.2852   14.6882 LP  0  0  0  0  0  0  0  0  0  0  0  0  # atno 16503 bound_to 5921
   -8.1541    2.3356   16.2168 LP  0  0  0  0  0  0  0  0  0  0  0  0  # atno 16504 bound_to 5921
   -9.7973    2.8283   11.7172 LP  0  0  0  0  0  0  0  0  0  0  0  0  # atno 16505 bound_to 6105
  -10.1490    4.7562   11.7715 LP  0  0  0  0  0  0  0  0  0  0  0  0  # atno 16506 bound_to 6059
   -9.9266    4.2790   10.1214 LP  0  0  0  0  0  0  0  0  0  0  0  0  # atno 16507 bound_to 6059
  -10.3855    0.5679   14.2498 LP  0  0  0  0  0  0  0  0  0  0  0  0  # atno 16510 bound_to 5858
  -10.1302    0.2047   12.5756 LP  0  0  0  0  0  0  0  0  0  0  0  0  # atno 16511 bound_to 5858
  -10.0246   -1.8650   14.8676 LP  0  0  0  0  0  0  0  0  0  0  0  0  # atno 16516 bound_to 5918
   -6.6572   -0.4968   14.7233 LP  0  0  0  0  0  0  0  0  0  0  0  0  # atno 16517 bound_to 5990
   -7.5146    3.9500   12.6443 LP  0  0  0  0  0  0  0  0  0  0  0  0  # atno 16518 bound_to 5993
   -5.9098    3.6262   12.0785 LP  0  0  0  0  0  0  0  0  0  0  0  0  # atno 16519 bound_to 5993
   -7.2642    1.9100   12.4590 LP  0  0  0  0  0  0  0  0  0  0  0  0  # atno 16520 bound_to 6056
  -21.3756    0.6512   26.5086 LP  0  0  0  0  0  0  0  0  0  0  0  0  # atno 16523 bound_to 11156
  -20.9103    1.0809   28.1207 LP  0  0  0  0  0  0  0  0  0  0  0  0  # atno 16524 bound_to 11156
  -18.8921   -1.5505   28.3456 LP  0  0  0  0  0  0  0  0  0  0  0  0  # atno 16525 bound_to 11201
  -16.4171   -0.4299   28.7965 LP  0  0  0  0  0  0  0  0  0  0  0  0  # atno 16528 bound_to 11204
  -16.4669   -1.4843   30.1697 LP  0  0  0  0  0  0  0  0  0  0  0  0  # atno 16529 bound_to 11204
  -17.6956    1.5036   30.8503 LP  0  0  0  0  0  0  0  0  0  0  0  0  # atno 16530 bound_to 11237
  -21.3457   -0.6643   24.7925 LP  0  0  0  0  0  0  0  0  0  0  0  0  # atno 16533 bound_to 11153
  -20.1034   -3.5309   23.9176 LP  0  0  0  0  0  0  0  0  0  0  0  0  # atno 16540 bound_to 11096
  -20.8236   -4.1983   25.3445 LP  0  0  0  0  0  0  0  0  0  0  0  0  # atno 16541 bound_to 11096
  -16.8497   -1.4180   15.1835 LP  0  0  0  0  0  0  0  0  0  0  0  0  # atno 16544 bound_to 10768
  -16.1532   -1.9528   13.6905 LP  0  0  0  0  0  0  0  0  0  0  0  0  # atno 16545 bound_to 10768
  -14.9265   -2.2185   31.9051 LP  0  0  0  0  0  0  0  0  0  0  0  0  # atno 16552 bound_to 11240
  -14.3218   -1.2480   33.2061 LP  0  0  0  0  0  0  0  0  0  0  0  0  # atno 16553 bound_to 11240
  -16.7819   -0.6846   33.5000 LP  0  0  0  0  0  0  0  0  0  0  0  0  # atno 16554 bound_to 11275
  -19.9876   -3.9727   32.7215 LP  0  0  0  0  0  0  0  0  0  0  0  0  # atno 16558 bound_to 11278
  -19.1483   -2.7527   31.8231 LP  0  0  0  0  0  0  0  0  0  0  0  0  # atno 16559 bound_to 11278
  -18.8037   -9.2779   25.6826 LP  0  0  0  0  0  0  0  0  0  0  0  0  # atno 16561 bound_to 9430
  -21.7929   -5.9781   32.2646 LP  0  0  0  0  0  0  0  0  0  0  0  0  # atno 16562 bound_to 11325
  -20.6059   -6.5697   31.1505 LP  0  0  0  0  0  0  0  0  0  0  0  0  # atno 16563 bound_to 11325
  -22.5754   -4.0614   31.7985 LP  0  0  0  0  0  0  0  0  0  0  0  0  # atno 16564 bound_to 11474
  -19.7505   -6.7302   33.9848 LP  0  0  0  0  0  0  0  0  0  0  0  0  # atno 16565 bound_to 11366
  -21.1438   -8.2055   26.1232 LP  0  0  0  0  0  0  0  0  0  0  0  0  # atno 16566 bound_to 9387
  -21.1315   -9.2870   27.4761 LP  0  0  0  0  0  0  0  0  0  0  0  0  # atno 16567 bound_to 9387
  -19.4751  -11.4930   31.5502 LP  0  0  0  0  0  0  0  0  0  0  0  0  # atno 16568 bound_to 11550
  -18.9191  -10.4226   32.6509 LP  0  0  0  0  0  0  0  0  0  0  0  0  # atno 16569 bound_to 11550
  -18.4117  -11.4912   24.4014 LP  0  0  0  0  0  0  0  0  0  0  0  0  # atno 16570 bound_to 9345
  -19.4573  -11.3278   25.7725 LP  0  0  0  0  0  0  0  0  0  0  0  0  # atno 16571 bound_to 9345
  -14.9857  -13.9090   24.9873 LP  0  0  0  0  0  0  0  0  0  0  0  0  # atno 16572 bound_to 9348
  -13.7216  -12.8752   24.9740 LP  0  0  0  0  0  0  0  0  0  0  0  0  # atno 16573 bound_to 9348
  -20.0410   -9.6420   24.5474 LP  0  0  0  0  0  0  0  0  0  0  0  0  # atno 16574 bound_to 9481
   -9.0966   -3.9842   16.3563 LP  0  0  0  0  0  0  0  0  0  0  0  0  # atno 16579 bound_to 5720
   -7.8429   -3.4477   15.2884 LP  0  0  0  0  0  0  0  0  0  0  0  0  # atno 16580 bound_to 5720
   -2.2048  -10.3604   22.2593 LP  0  0  0  0  0  0  0  0  0  0  0  0  # atno 16587 bound_to 15466
   -1.4790  -10.6169   20.8191 LP  0  0  0  0  0  0  0  0  0  0  0  0  # atno 16588 bound_to 15466
  -11.0167  -10.6781   16.9245 LP  0  0  0  0  0  0  0  0  0  0  0  0  # atno 16591 bound_to 7831
   -3.1095  -13.3517   25.6787 LP  0  0  0  0  0  0  0  0  0  0  0  0  # atno 16592 bound_to 1821
   -3.5671  -13.6047   27.3299 LP  0  0  0  0  0  0  0  0  0  0  0  0  # atno 16593 bound_to 1821
   -7.9344  -13.8382   17.9631 LP  0  0  0  0  0  0  0  0  0  0  0  0  # atno 16594 bound_to 7834
   -7.2046  -12.2688   18.0279 LP  0  0  0  0  0  0  0  0  0  0  0  0  # atno 16595 bound_to 7834
   -8.3430   -8.3643   14.8381 LP  0  0  0  0  0  0  0  0  0  0  0  0  # atno 16596 bound_to 5717
   -7.5653   -5.3984   15.4549 LP  0  0  0  0  0  0  0  0  0  0  0  0  # atno 16597 bound_to 5767
   -1.1018  -13.0541   19.9954 LP  0  0  0  0  0  0  0  0  0  0  0  0  # atno 16600 bound_to 1745
   -0.0939  -12.6998   18.6321 LP  0  0  0  0  0  0  0  0  0  0  0  0  # atno 16601 bound_to 1745
   -1.6318  -14.4282   23.8292 LP  0  0  0  0  0  0  0  0  0  0  0  0  # atno 16602 bound_to 1818
   -3.9434   -5.5796   13.2909 LP  0  0  0  0  0  0  0  0  0  0  0  0  # atno 16603 bound_to 5772
   -4.7950   -6.6941   14.1273 LP  0  0  0  0  0  0  0  0  0  0  0  0  # atno 16604 bound_to 5772
    0.6047   -8.4827   18.0133 LP  0  0  0  0  0  0  0  0  0  0  0  0  # atno 16605 bound_to 15403
    0.6006  -14.0642   20.3384 LP  0  0  0  0  0  0  0  0  0  0  0  0  # atno 16606 bound_to 1791
   -4.1444   -9.2824   13.5865 LP  0  0  0  0  0  0  0  0  0  0  0  0  # atno 16607 bound_to 5617
   -5.2677   -7.9129   13.4744 LP  0  0  0  0  0  0  0  0  0  0  0  0  # atno 16608 bound_to 5620
   -6.8038   -7.2531   13.0216 LP  0  0  0  0  0  0  0  0  0  0  0  0  # atno 16609 bound_to 5620
  -10.0744   -9.7822   14.7101 LP  0  0  0  0  0  0  0  0  0  0  0  0  # atno 16610 bound_to 7788
   -9.2584  -10.9230   15.7262 LP  0  0  0  0  0  0  0  0  0  0  0  0  # atno 16611 bound_to 7788
   -9.4661  -12.5419   17.9778 LP  0  0  0  0  0  0  0  0  0  0  0  0  # atno 16612 bound_to 7874
    0.2338  -16.4225   24.2879 LP  0  0  0  0  0  0  0  0  0  0  0  0  # atno 16613 bound_to 1794
    0.7239  -16.1413   22.6506 LP  0  0  0  0  0  0  0  0  0  0  0  0  # atno 16614 bound_to 1794
   -0.9611  -15.1723   28.4624 LP  0  0  0  0  0  0  0  0  0  0  0  0  # atno 16615 bound_to 1824
   -0.9474  -13.5862   28.0745 LP  0  0  0  0  0  0  0  0  0  0  0  0  # atno 16616 bound_to 1824
   -2.5624  -15.2088   26.7043 LP  0  0  0  0  0  0  0  0  0  0  0  0  # atno 16617 bound_to 1854
  -15.5076  -13.8212   27.6159 LP  0  0  0  0  0  0  0  0  0  0  0  0  # atno 16622 bound_to 9318
  -15.6223  -15.5489   27.6617 LP  0  0  0  0  0  0  0  0  0  0  0  0  # atno 16623 bound_to 9318
  -16.7580  -14.3763   26.1495 LP  0  0  0  0  0  0  0  0  0  0  0  0  # atno 16624 bound_to 9342
  -21.1857   -6.8086   23.0195 LP  0  0  0  0  0  0  0  0  0  0  0  0  # atno 16627 bound_to 9433
  -21.7623   -8.3917   22.6178 LP  0  0  0  0  0  0  0  0  0  0  0  0  # atno 16628 bound_to 9433
  -16.7375   -6.8943   18.6068 LP  0  0  0  0  0  0  0  0  0  0  0  0  # atno 16629 bound_to 9492
  -17.7427   -7.4589   17.4503 LP  0  0  0  0  0  0  0  0  0  0  0  0  # atno 16630 bound_to 9492
  -17.0794  -11.8263   19.3783 LP  0  0  0  0  0  0  0  0  0  0  0  0  # atno 16631 bound_to 7667
  -17.5497  -13.3701   20.0070 LP  0  0  0  0  0  0  0  0  0  0  0  0  # atno 16632 bound_to 7667
  -15.4754  -13.2314   17.2345 LP  0  0  0  0  0  0  0  0  0  0  0  0  # atno 16634 bound_to 7723
  -13.2956  -13.1142   16.8972 LP  0  0  0  0  0  0  0  0  0  0  0  0  # atno 16635 bound_to 7726
  -12.3380  -12.0023   15.9770 LP  0  0  0  0  0  0  0  0  0  0  0  0  # atno 16636 bound_to 7726
  -20.0804   -6.0737   15.6943 LP  0  0  0  0  0  0  0  0  0  0  0  0  # atno 16637 bound_to 10539
  -20.7179   -5.6573   17.2500 LP  0  0  0  0  0  0  0  0  0  0  0  0  # atno 16638 bound_to 10539
   -5.6105  -15.6555   31.4879 LP  0  0  0  0  0  0  0  0  0  0  0  0  # atno 16639 bound_to 1884
   -5.4091  -15.3698   33.0830 LP  0  0  0  0  0  0  0  0  0  0  0  0  # atno 16640 bound_to 1884
  -18.1548  -17.6461   27.1026 LP  0  0  0  0  0  0  0  0  0  0  0  0  # atno 16641 bound_to 9315
   -3.7273  -16.8811   29.6138 LP  0  0  0  0  0  0  0  0  0  0  0  0  # atno 16642 bound_to 1879
   -1.6084  -16.5487   29.0141 LP  0  0  0  0  0  0  0  0  0  0  0  0  # atno 16643 bound_to 1857
   -2.0180  -17.1559   30.5836 LP  0  0  0  0  0  0  0  0  0  0  0  0  # atno 16644 bound_to 1857
  -17.8646  -16.7301   22.9169 LP  0  0  0  0  0  0  0  0  0  0  0  0  # atno 16645 bound_to 7565
  -17.8800  -18.3429   23.5482 LP  0  0  0  0  0  0  0  0  0  0  0  0  # atno 16646 bound_to 7565
  -19.9221  -18.1026   26.1408 LP  0  0  0  0  0  0  0  0  0  0  0  0  # atno 16647 bound_to 9289
  -20.4209  -16.8281   27.2025 LP  0  0  0  0  0  0  0  0  0  0  0  0  # atno 16648 bound_to 9289
  -17.9243  -19.2646   30.9304 LP  0  0  0  0  0  0  0  0  0  0  0  0  # atno 16649 bound_to 9236
  -18.9217  -18.8508   32.2846 LP  0  0  0  0  0  0  0  0  0  0  0  0  # atno 16650 bound_to 9236
  -19.8858  -18.5452   30.1995 LP  0  0  0  0  0  0  0  0  0  0  0  0  # atno 16653 bound_to 9286
  -22.2753  -21.0356   30.9691 LP  0  0  0  0  0  0  0  0  0  0  0  0  # atno 16654 bound_to 9233
  -11.1778  -23.8183   33.3033 LP  0  0  0  0  0  0  0  0  0  0  0  0  # atno 16655 bound_to 3365
  -11.6966  -22.7444   34.5593 LP  0  0  0  0  0  0  0  0  0  0  0  0  # atno 16656 bound_to 3365
   -7.9768  -25.0595   35.7853 LP  0  0  0  0  0  0  0  0  0  0  0  0  # atno 16657 bound_to 3362
   -3.9021  -19.2837   31.2788 LP  0  0  0  0  0  0  0  0  0  0  0  0  # atno 16658 bound_to 1922

> <Gold.Score>
     Fitness  S(hb_ext) S(vdw_ext)  S(hb_int)    S(int)      intcor
     35.63       3.55      23.38       0.00      -0.06      -0.76

> <Gold.Goldscore.Fitness>
35.6317

> <Gold.Goldscore.Internal.Vdw>
-0.3069

> <Gold.Goldscore.Internal.Torsion>
-0.5146

> <Gold.Goldscore.External.Vdw>
23.3751

> <Gold.Goldscore.Internal.HBond>
0.0000

> <Gold.Goldscore.External.HBond>
3.5540

> <Gold.Goldscore.Internal.Correction>
-0.7585

> <Gold.Goldscore.Hbonds>
donor molecule, donor type, donor heavy atom, donor atom, acceptor molecule, acceptor atom, score
      P1  H 10948 10978       L1    11  0.86
      P1  H  6149  6187       L1    17  0.06
      L1  H    10    23       P1 10886  0.74

> <Gold.Goldscore.Internal.Vdw.Weighted>
-0.3069

> <Gold.Goldscore.Internal.Torsion.Weighted>
-0.5146

> <Gold.Goldscore.External.Vdw.Weighted>
32.1408

> <Gold.Goldscore.Internal.HBond.Weighted>
0.0000

> <Gold.Goldscore.External.HBond.Weighted>
3.5540

> <Gold.Goldscore.Internal.Correction.Weighted>
-0.7585

> <Gold.Rescore>
     Score     S(PLP)   S(hbond)     S(cho)   S(metal)  DE(clash)   DE(tors)     intcor
     22.28     -18.22       1.54       0.00       0.00       0.00       0.29       ----

> <Gold.PLP.Fitness>
22.2800

> <Gold.PLP.PLP>
-18.2214

> <Gold.PLP.part.hbond>
-2.0000

> <Gold.PLP.part.metal>
0.0000

> <Gold.PLP.part.buried>
8.2855

> <Gold.PLP.part.nonpolar>
-26.6295

> <Gold.PLP.part.repulsive>
1.0025

> <Gold.PLP.ligand.clash>
0.0000

> <Gold.PLP.ligand.torsion>
0.2865

> <Gold.PLP.Chemscore.Hbond>
1.5439

> <Gold.PLP.Chemscore.CHOScore>
0.0000

> <Gold.PLP.Chemscore.Metal>
0.0000

> <Gold.Chemscore.Hbonds>
donor molecule, donor type, donor heavy atom, donor atom, acceptor molecule, acceptor atom, score
      L1  H    10    23       P1 10886  1.00
      P1  H 10948 10978       L1    11  0.84
      P1  H  6149  6187       L1    17  0.40

> <Gold.PLP.Chemscore.Internal.Correction>
   9.000000E+99

