#       Name:                CT1002167954
#       Creating user name   hitesit
#       Creation time:       Sun Apr 16 20:17:32 2023


#       File generated by GOLD software.
#

@<TRIPOS>MOLECULE
CT1002167954|ligand_prepared|mol2|1|dock2
    29    30     1
SMALL
NO_CHARGES


@<TRIPOS>ATOM
      1 C1         -13.0638   4.7352  17.3964 C.3            1 RES1               0.0000
      2 C2         -14.2325   5.1210  18.3259 C.ar           1 RES1               0.0000
      3 C3         -13.6821   4.4271  16.0359 C.2            1 RES1               0.0000
      4 C4         -12.1116   5.9260  17.3917 C.2            1 RES1               0.0000
      5 C5         -12.2731   3.4931  17.8693 C.3            1 RES1               0.0000
      6 C6         -15.1882   6.0458  17.9162 C.ar           1 RES1               0.0000
      7 C7         -14.3695   4.5594  19.5926 C.ar           1 RES1               0.0000
      8 N8         -13.5089   5.3436  15.0409 N.am           1 RES1               0.0000
      9 O9         -14.3451   3.4141  15.8500 O.2            1 RES1               0.0000
     10 N10        -11.9498   6.6141  16.2177 N.am           1 RES1               0.0000
     11 O11        -11.5126   6.2847  18.3981 O.2            1 RES1               0.0000
     12 C12        -11.2790   2.9720  16.8435 C.3            1 RES1               0.0000
     13 C13        -16.2444   6.3946  18.7415 C.ar           1 RES1               0.0000
     14 C14        -15.4264   4.9097  20.4165 C.ar           1 RES1               0.0000
     15 C15        -12.6287   6.3957  15.0500 C.2            1 RES1               0.0000
     16 C16        -16.3644   5.8265  19.9920 C.ar           1 RES1               0.0000
     17 O17        -12.4679   7.0920  14.0518 O.2            1 RES1               0.0000
     18 H18        -11.7312   3.7484  18.7883 H              1 RES1               0.0000
     19 H19        -12.9837   2.6929  18.1104 H              1 RES1               0.0000
     20 H20        -15.1089   6.5052  16.9365 H              1 RES1               0.0000
     21 H21        -13.6429   3.8368  19.9480 H              1 RES1               0.0000
     22 H22        -14.0873   5.2369  14.2137 H              1 RES1               0.0000
     23 H23        -11.2592   7.3580  16.2140 H              1 RES1               0.0000
     24 H24        -10.7515   2.1006  17.2256 H              1 RES1               0.0000
     25 H25        -11.7870   2.6849  15.9252 H              1 RES1               0.0000
     26 H26        -10.5418   3.7341  16.5990 H              1 RES1               0.0000
     27 H27        -16.9792   7.1176  18.4032 H              1 RES1               0.0000
     28 H28        -15.5166   4.4606  21.4001 H              1 RES1               0.0000
     29 H29        -17.1921   6.0996  20.6382 H              1 RES1               0.0000
@<TRIPOS>BOND
    1    1    2 1     
    2    1    3 1     
    3    1    4 1     
    4    1    5 1     
    5    2    6 ar    
    6    2    7 ar    
    7    3    8 1     
    8    3    9 2     
    9    4   10 1     
   10    4   11 2     
   11    5   12 1     
   12    5   18 1     
   13    5   19 1     
   14    6   13 ar    
   15    6   20 1     
   16    7   14 ar    
   17    7   21 1     
   18    8   15 1     
   19    8   22 1     
   20   10   15 1     
   21   10   23 1     
   22   12   24 1     
   23   12   25 1     
   24   12   26 1     
   25   13   16 ar    
   26   13   27 1     
   27   14   16 ar    
   28   14   28 1     
   29   15   17 2     
   30   16   29 1     
@<TRIPOS>SUBSTRUCTURE
      1 RES1           1
@<TRIPOS>SET
DONOR_HYDROGENS      STATIC     ATOMS    <user>   **** ""
2 22 23
ATOM$RED        STATIC     ATOMS    COLORGROUP SYSTEM
2 22 23
@<TRIPOS>COMMENT
> <Gold.Version>
2022.3.0

> <Gold.Id.Protein>
unknown|3mvj_clean|pdb

> <Gold.Protein.RotatedTorsions>
[ 11816 11799 11798 11795 ] final  174.81 input   60.01 | X-H torsion
[ 11879 11856 11855 11854 ] final  114.22 input   60.02 | X-H torsion
[ 10986 10959 10958 10956 ] final  -49.07 input   60.00 | X-H torsion
[ 10978 10948 10949 10950 ] final  177.73 input   32.02 | X-H torsion
[ 10745 10719 10718 10716 ] final -157.30 input   60.01 | X-H torsion
[ 12083 12056 12057 12058 ] final   77.87 input   63.02 | X-H torsion
[ 10921 10911 10912 10913 ] final  -40.82 input  -92.90 | X-H torsion
[ 6177 6140 6141 6142 ] final  107.66 input   39.58 | X-H torsion
[ 6115 6105 6106 6107 ] final  -81.15 input  -69.34 | X-H torsion
[ 5955 5918 5919 5920 ] final -152.79 input  125.26 | X-H torsion
[ 6027 5990 5991 5992 ] final  -50.29 input  110.40 | X-H torsion
[ 6086 6056 6057 6058 ] final  100.62 input  107.04 | X-H torsion
[ 11660 11631 11630 11629 ] final -164.55 input   60.02 | X-H torsion
[ 11213 11201 11202 11203 ] final  101.04 input   18.84 | X-H torsion
[ 11249 11237 11238 11239 ] final -111.90 input  111.29 | X-H torsion
[ 11182 11153 11154 11155 ] final   42.29 input   30.50 | X-H torsion
[ 11292 11275 11276 11277 ] final  102.62 input   58.53 | X-H torsion
[ 9445 9430 9431 9432 ] final -165.37 input  110.06 | X-H torsion
[ 11493 11474 11475 11476 ] final   51.42 input  115.95 | X-H torsion
[ 11385 11366 11367 11368 ] final  133.33 input  117.79 | X-H torsion
[ 11568 11550 11549 11547 ] final -167.98 input   59.97 | X-H torsion
[ 9362 9348 9346 9343 ] final    4.96 input   60.02 | X-H torsion
[ 9502 9481 9482 9483 ] final -171.72 input   75.78 | X-H torsion
[ 15476 15466 15465 15463 ] final -153.47 input   60.00 | X-H torsion
[ 7768 7731 7730 7729 ] final  111.99 input   60.02 | X-H torsion
[ 7852 7831 7832 7833 ] final  162.08 input  113.97 | X-H torsion
[ 5737 5717 5718 5719 ] final -161.31 input  137.93 | X-H torsion
[ 5778 5767 5768 5769 ] final  -68.90 input  116.46 | X-H torsion
[ 1832 1818 1819 1820 ] final   83.23 input   43.70 | X-H torsion
[ 5782 5772 5771 5768 ] final  108.11 input   59.97 | X-H torsion
[ 15411 15403 15404 15405 ] final  -42.44 input  102.24 | X-H torsion
[ 1801 1791 1792 1793 ] final -108.93 input  -10.55 | X-H torsion
[ 5638 5617 5618 5619 ] final -139.49 input   93.34 | X-H torsion
[ 7894 7874 7875 7876 ] final  126.07 input   68.03 | X-H torsion
[ 1838 1824 1822 1819 ] final   -3.05 input   60.02 | X-H torsion
[ 1861 1854 1855 1856 ] final   31.26 input   57.50 | X-H torsion
[ 9356 9342 9343 9344 ] final  -36.73 input   55.58 | X-H torsion
[ 9510 9492 9491 9489 ] final  -58.82 input   60.02 | X-H torsion
[ 7758 7723 7724 7725 ] final  -95.70 input   17.81 | X-H torsion
[ 1898 1884 1883 1880 ] final -140.84 input   60.01 | X-H torsion
[ 9322 9315 9316 9317 ] final  -97.66 input  -36.21 | X-H torsion
[ 1894 1879 1880 1881 ] final  -40.65 input   98.21 | X-H torsion
[ 9297 9286 9287 9288 ] final   27.35 input   37.00 | X-H torsion
[ 9252 9233 9234 9235 ] final -120.92 input   95.32 | X-H torsion
[ 3370 3362 3363 3364 ] final  -76.19 input   97.92 | X-H torsion
[ 1951 1922 1923 1924 ] final   82.08 input  104.43 | X-H torsion
[ 12164 12148 12149 12150 ] final -118.68 input  116.04 | X-H torsion
[ 11673 11649 11648 11647 ] final  -93.03 input   59.99 | X-H torsion
[ 12008 11984 11985 11986 ] final  -25.94 input   61.04 | X-H torsion
[ 11122 11093 11094 11095 ] final  -44.77 input   39.50 | X-H torsion
[ 7946 7916 7917 7918 ] final   22.97 input   66.66 | X-H torsion
[ 8659 8630 8631 8632 ] final   24.47 input   75.31 | X-H torsion
[ 9555 9536 9537 9538 ] final -121.44 input  103.50 | X-H torsion
[ 16472 10886 10885 10884 ] final   32.79 input    0.00 | X-H torsion
[ 16475 11004 11003 11002 ] final  -43.68 input    0.00 | X-H torsion
[ 16477 10914 10913 10912 ] final    9.69 input    0.00 | X-H torsion
[ 16479 10951 10950 10949 ] final  168.71 input   -0.00 | X-H torsion
[ 16484 11987 11986 11985 ] final   94.13 input    0.00 | X-H torsion
[ 16486 12059 12058 12057 ] final   46.32 input   -0.00 | X-H torsion
[ 16490 11046 11045 11044 ] final -147.72 input    0.00 | X-H torsion
[ 16500 6108 6107 6106 ] final   13.98 input    0.00 | X-H torsion
[ 16503 5921 5920 5919 ] final  168.64 input   -0.00 | X-H torsion
[ 16506 6059 6058 6057 ] final   61.73 input    0.00 | X-H torsion
[ 16510 5858 5857 5856 ] final   49.09 input    0.00 | X-H torsion
[ 16518 5993 5992 5991 ] final -161.88 input   -0.00 | X-H torsion
[ 16523 11156 11155 11154 ] final  157.58 input    0.00 | X-H torsion
[ 16528 11204 11203 11202 ] final -138.00 input    0.00 | X-H torsion
[ 16540 11096 11095 11094 ] final   -7.28 input   -0.00 | X-H torsion
[ 16544 10768 10767 10766 ] final -159.05 input   -0.00 | X-H torsion
[ 16552 11240 11239 11238 ] final -161.91 input    0.00 | X-H torsion
[ 16558 11278 11277 11276 ] final  -77.51 input   -0.00 | X-H torsion
[ 16562 11325 11324 11323 ] final  146.01 input   -0.00 | X-H torsion
[ 16566 9387 9386 9385 ] final  143.04 input   -0.00 | X-H torsion
[ 16570 9345 9344 9343 ] final   86.85 input    0.00 | X-H torsion
[ 16579 5720 5719 5718 ] final  -55.26 input    0.00 | X-H torsion
[ 16592 1821 1820 1819 ] final   65.62 input    0.00 | X-H torsion
[ 16594 7834 7833 7832 ] final  -87.58 input    0.00 | X-H torsion
[ 16600 1745 1744 1743 ] final -103.91 input    0.00 | X-H torsion
[ 16608 5620 5619 5618 ] final   53.12 input   -0.00 | X-H torsion
[ 16610 7788 7787 7786 ] final   64.37 input   -0.00 | X-H torsion
[ 16613 1794 1793 1792 ] final  168.46 input   -0.00 | X-H torsion
[ 16622 9318 9317 9316 ] final  -36.61 input   -0.00 | X-H torsion
[ 16627 9433 9432 9431 ] final -106.96 input    0.00 | X-H torsion
[ 16631 7667 7666 7665 ] final -176.20 input   -0.00 | X-H torsion
[ 16635 7726 7725 7724 ] final  159.99 input    0.00 | X-H torsion
[ 16637 10539 10538 10537 ] final  118.92 input   -0.00 | X-H torsion
[ 16643 1857 1856 1855 ] final   -6.00 input    0.00 | X-H torsion
[ 16645 7565 7564 7563 ] final  147.04 input    0.00 | X-H torsion
[ 16647 9289 9288 9287 ] final    6.38 input    0.00 | X-H torsion
[ 16649 9236 9235 9234 ] final  -24.41 input    0.00 | X-H torsion
[ 16655 3365 3364 3363 ] final -158.11 input    0.00 | X-H torsion

> <Gold.Protein.ActiveResidues>
 LEU49   GLY50   THR51   GLY52   SER53   PHE54   VAL57   LEU82   LYS83   GLN84  
 HIS87   GLU127  PHE129  SER130  LEU132  ARG133  ARG134  ILE135  GLY136  ARG137 
 ARG165  ASP166  LEU167  LYS168  PRO169  GLU170  ASN171  LEU172  LEU173  ASP184 
 GLY186  PHE187  TPO197  LEU198  CYS199  GLY200  THR201  PRO202  GLU203  TYR204 
 LEU205  ILE209  ILE210  VAL226  LEU227  TYR229  GLU230  ALA233  GLY234  TYR235 
 PRO236  PRO237  PHE238  PHE239  ALA240  ASP241  GLN242  PRO243  ILE244  GLN245 
 ILE246  TYR247  GLU248  LYS249  ILE250  VAL251  SER252  LYS254  ARG256  PHE257 
 PRO258  SER259  PHE327  ASP328  TYR330 

> <Gold.Protein.RotatedAtoms>
    1.3192  -13.3548   21.2379 H   0  0  0  0  0  0  0  0  0  0  0  0  # atno 1801 bound_to 1791
   -0.7631  -13.2748   24.5907 H   0  0  0  0  0  0  0  0  0  0  0  0  # atno 1832 bound_to 1818
   -1.3848  -14.3974   28.0939 H   0  0  0  0  0  0  0  0  0  0  0  0  # atno 1838 bound_to 1824
   -2.0452  -16.7477   27.2537 H   0  0  0  0  0  0  0  0  0  0  0  0  # atno 1861 bound_to 1854
   -3.9067  -17.3656   29.4775 H   0  0  0  0  0  0  0  0  0  0  0  0  # atno 1894 bound_to 1879
   -6.0404  -15.5881   33.2962 H   0  0  0  0  0  0  0  0  0  0  0  0  # atno 1898 bound_to 1884
   -4.7372  -19.1947   29.7940 H   0  0  0  0  0  0  0  0  0  0  0  0  # atno 1951 bound_to 1922
   -8.2712  -24.5797   37.0686 H   0  0  0  0  0  0  0  0  0  0  0  0  # atno 3370 bound_to 3362
   -4.1012  -11.0013   13.2544 H   0  0  0  0  0  0  0  0  0  0  0  0  # atno 5638 bound_to 5617
   -9.6661   -8.1391   14.7458 H   0  0  0  0  0  0  0  0  0  0  0  0  # atno 5737 bound_to 5717
   -7.5312   -5.3541   15.7279 H   0  0  0  0  0  0  0  0  0  0  0  0  # atno 5778 bound_to 5767
   -3.4410   -5.6726   13.4474 H   0  0  0  0  0  0  0  0  0  0  0  0  # atno 5782 bound_to 5772
   -9.8929   -2.1216   15.0997 H   0  0  0  0  0  0  0  0  0  0  0  0  # atno 5955 bound_to 5918
   -7.9499    0.6718   14.7704 H   0  0  0  0  0  0  0  0  0  0  0  0  # atno 6027 bound_to 5990
   -7.9667    0.4226   11.9289 H   0  0  0  0  0  0  0  0  0  0  0  0  # atno 6086 bound_to 6056
   -9.7639    1.5854   12.9337 H   0  0  0  0  0  0  0  0  0  0  0  0  # atno 6115 bound_to 6105
  -13.2280    3.1508   11.6969 H   0  0  0  0  0  0  0  0  0  0  0  0  # atno 6177 bound_to 6140
  -15.9091  -13.0956   17.5013 H   0  0  0  0  0  0  0  0  0  0  0  0  # atno 7758 bound_to 7723
  -12.5133  -13.1594   24.5912 H   0  0  0  0  0  0  0  0  0  0  0  0  # atno 7768 bound_to 7731
  -11.0287  -12.5822   24.1328 H   0  0  0  0  0  0  0  0  0  0  0  0  # atno 7769 bound_to 7731
  -12.3480  -11.5778   24.1229 H   0  0  0  0  0  0  0  0  0  0  0  0  # atno 7770 bound_to 7731
  -10.9345   -9.4437   18.1683 H   0  0  0  0  0  0  0  0  0  0  0  0  # atno 7852 bound_to 7831
  -10.8406  -12.7198   18.1691 H   0  0  0  0  0  0  0  0  0  0  0  0  # atno 7894 bound_to 7874
   -9.5636  -12.9611   15.3109 H   0  0  0  0  0  0  0  0  0  0  0  0  # atno 7946 bound_to 7916
  -13.6326  -22.5911   22.3966 H   0  0  0  0  0  0  0  0  0  0  0  0  # atno 8659 bound_to 8630
  -22.1633  -21.0526   30.7081 H   0  0  0  0  0  0  0  0  0  0  0  0  # atno 9252 bound_to 9233
  -20.5459  -18.7966   28.7041 H   0  0  0  0  0  0  0  0  0  0  0  0  # atno 9297 bound_to 9286
  -16.9585  -17.5925   27.0844 H   0  0  0  0  0  0  0  0  0  0  0  0  # atno 9322 bound_to 9315
  -17.9120  -13.7750   26.1842 H   0  0  0  0  0  0  0  0  0  0  0  0  # atno 9356 bound_to 9342
  -14.8439  -13.8239   25.1825 H   0  0  0  0  0  0  0  0  0  0  0  0  # atno 9362 bound_to 9348
  -18.3414   -7.8365   26.5428 H   0  0  0  0  0  0  0  0  0  0  0  0  # atno 9445 bound_to 9430
  -19.2213   -8.8006   23.2592 H   0  0  0  0  0  0  0  0  0  0  0  0  # atno 9502 bound_to 9481
  -17.2779   -6.7814   18.3889 H   0  0  0  0  0  0  0  0  0  0  0  0  # atno 9510 bound_to 9492
  -20.9195  -11.6653   23.8831 H   0  0  0  0  0  0  0  0  0  0  0  0  # atno 9555 bound_to 9536
  -24.8361    1.1780   18.2259 H   0  0  0  0  0  0  0  0  0  0  0  0  # atno 10745 bound_to 10719
  -17.6055    0.1096   14.7598 H   0  0  0  0  0  0  0  0  0  0  0  0  # atno 10921 bound_to 10911
  -16.1688    1.2840   16.8199 H   0  0  0  0  0  0  0  0  0  0  0  0  # atno 10978 bound_to 10948
  -22.4579    4.2249   17.1015 H   0  0  0  0  0  0  0  0  0  0  0  0  # atno 10986 bound_to 10959
  -22.0185   -1.8185   22.3000 H   0  0  0  0  0  0  0  0  0  0  0  0  # atno 11122 bound_to 11093
  -21.6083   -0.5144   25.3400 H   0  0  0  0  0  0  0  0  0  0  0  0  # atno 11182 bound_to 11153
  -19.6516   -1.4168   28.3466 H   0  0  0  0  0  0  0  0  0  0  0  0  # atno 11213 bound_to 11201
  -17.4581    0.7941   30.3475 H   0  0  0  0  0  0  0  0  0  0  0  0  # atno 11249 bound_to 11237
  -17.8001   -0.7261   33.4886 H   0  0  0  0  0  0  0  0  0  0  0  0  # atno 11292 bound_to 11275
  -19.4900   -5.9360   34.9135 H   0  0  0  0  0  0  0  0  0  0  0  0  # atno 11385 bound_to 11366
  -22.0739   -4.2907   31.7952 H   0  0  0  0  0  0  0  0  0  0  0  0  # atno 11493 bound_to 11474
  -19.1915  -10.9520   32.6356 H   0  0  0  0  0  0  0  0  0  0  0  0  # atno 11568 bound_to 11550
   -9.3982    8.1070   26.3321 H   0  0  0  0  0  0  0  0  0  0  0  0  # atno 11660 bound_to 11631
   -8.0630    8.5133   25.4388 H   0  0  0  0  0  0  0  0  0  0  0  0  # atno 11661 bound_to 11631
   -8.3795    9.3034   26.8604 H   0  0  0  0  0  0  0  0  0  0  0  0  # atno 11662 bound_to 11631
  -25.4943    2.4355   27.8306 H   0  0  0  0  0  0  0  0  0  0  0  0  # atno 11673 bound_to 11649
  -24.6608    2.1664   29.2384 H   0  0  0  0  0  0  0  0  0  0  0  0  # atno 11674 bound_to 11649
  -23.9668    3.0517   28.0209 H   0  0  0  0  0  0  0  0  0  0  0  0  # atno 11675 bound_to 11649
  -13.2373   15.3586   23.4173 H   0  0  0  0  0  0  0  0  0  0  0  0  # atno 11816 bound_to 11799
  -18.3482   15.7305   25.1527 H   0  0  0  0  0  0  0  0  0  0  0  0  # atno 11879 bound_to 11856
  -17.3991   16.2595   23.9008 H   0  0  0  0  0  0  0  0  0  0  0  0  # atno 11880 bound_to 11856
  -16.9928   14.8781   24.7225 H   0  0  0  0  0  0  0  0  0  0  0  0  # atno 11881 bound_to 11856
  -28.3736    0.4987   19.1000 H   0  0  0  0  0  0  0  0  0  0  0  0  # atno 12008 bound_to 11984
  -28.6438    3.5704   16.5806 H   0  0  0  0  0  0  0  0  0  0  0  0  # atno 12083 bound_to 12056
  -25.5999    6.7766   13.4116 H   0  0  0  0  0  0  0  0  0  0  0  0  # atno 12164 bound_to 12148
    2.0957   -8.2297   17.2590 H   0  0  0  0  0  0  0  0  0  0  0  0  # atno 15411 bound_to 15403
   -2.0049   -9.4726   22.2131 H   0  0  0  0  0  0  0  0  0  0  0  0  # atno 15476 bound_to 15466
  -13.3371   16.9472   23.0793 LP  0  0  0  0  0  0  0  0  0  0  0  0  # atno 16466 bound_to 11799
  -12.3178   15.9919   22.2336 LP  0  0  0  0  0  0  0  0  0  0  0  0  # atno 16467 bound_to 11799
  -21.4329    5.4384   16.7478 LP  0  0  0  0  0  0  0  0  0  0  0  0  # atno 16468 bound_to 10959
  -22.1018    5.3379   18.2341 LP  0  0  0  0  0  0  0  0  0  0  0  0  # atno 16469 bound_to 10959
  -18.1682    3.6470   14.6929 LP  0  0  0  0  0  0  0  0  0  0  0  0  # atno 16472 bound_to 10886
  -16.5371    3.2902   14.2323 LP  0  0  0  0  0  0  0  0  0  0  0  0  # atno 16473 bound_to 10886
  -17.4718    0.2076   16.3549 LP  0  0  0  0  0  0  0  0  0  0  0  0  # atno 16474 bound_to 10948
  -19.9886   -0.5022   21.6500 LP  0  0  0  0  0  0  0  0  0  0  0  0  # atno 16475 bound_to 11004
  -21.3078    0.0752   20.6875 LP  0  0  0  0  0  0  0  0  0  0  0  0  # atno 16476 bound_to 11004
  -13.8430    1.4292   16.7604 LP  0  0  0  0  0  0  0  0  0  0  0  0  # atno 16477 bound_to 10914
  -14.6680    0.8862   18.1832 LP  0  0  0  0  0  0  0  0  0  0  0  0  # atno 16478 bound_to 10914
  -19.8641   -1.4269   17.7390 LP  0  0  0  0  0  0  0  0  0  0  0  0  # atno 16479 bound_to 10951
  -19.2193    0.0219   17.0425 LP  0  0  0  0  0  0  0  0  0  0  0  0  # atno 16480 bound_to 10951
  -23.7186    1.8891   17.2809 LP  0  0  0  0  0  0  0  0  0  0  0  0  # atno 16482 bound_to 10719
  -23.2941    1.2798   18.7353 LP  0  0  0  0  0  0  0  0  0  0  0  0  # atno 16483 bound_to 10719
  -26.4101    0.8236   17.5786 LP  0  0  0  0  0  0  0  0  0  0  0  0  # atno 16484 bound_to 11987
  -25.5644    2.1809   18.2437 LP  0  0  0  0  0  0  0  0  0  0  0  0  # atno 16485 bound_to 11987
  -27.3857    5.5575   16.0556 LP  0  0  0  0  0  0  0  0  0  0  0  0  # atno 16486 bound_to 12059
  -26.8526    6.0536   14.4840 LP  0  0  0  0  0  0  0  0  0  0  0  0  # atno 16487 bound_to 12059
  -24.2194   -0.3812   23.1576 LP  0  0  0  0  0  0  0  0  0  0  0  0  # atno 16490 bound_to 11046
  -25.1656   -0.7347   21.7505 LP  0  0  0  0  0  0  0  0  0  0  0  0  # atno 16491 bound_to 11046
  -27.3872    2.8295   17.5416 LP  0  0  0  0  0  0  0  0  0  0  0  0  # atno 16492 bound_to 12056
  -17.2342    1.3724   13.6055 LP  0  0  0  0  0  0  0  0  0  0  0  0  # atno 16493 bound_to 10911
  -12.7381    1.2734   14.5413 LP  0  0  0  0  0  0  0  0  0  0  0  0  # atno 16500 bound_to 6108
  -13.6398    0.4926   13.2855 LP  0  0  0  0  0  0  0  0  0  0  0  0  # atno 16501 bound_to 6108
  -12.2006    1.7370   11.7262 LP  0  0  0  0  0  0  0  0  0  0  0  0  # atno 16502 bound_to 6140
   -7.8332    2.5935   15.0772 LP  0  0  0  0  0  0  0  0  0  0  0  0  # atno 16503 bound_to 5921
   -9.2879    2.0273   15.8278 LP  0  0  0  0  0  0  0  0  0  0  0  0  # atno 16504 bound_to 5921
   -9.9109    2.7169   11.6060 LP  0  0  0  0  0  0  0  0  0  0  0  0  # atno 16505 bound_to 6105
  -10.2569    4.2104   10.1670 LP  0  0  0  0  0  0  0  0  0  0  0  0  # atno 16506 bound_to 6059
   -9.8187    4.8248   11.7260 LP  0  0  0  0  0  0  0  0  0  0  0  0  # atno 16507 bound_to 6059
  -11.0569    0.0962   13.2471 LP  0  0  0  0  0  0  0  0  0  0  0  0  # atno 16510 bound_to 5858
   -9.4589    0.6764   13.5784 LP  0  0  0  0  0  0  0  0  0  0  0  0  # atno 16511 bound_to 5858
   -8.5110   -1.6281   14.1530 LP  0  0  0  0  0  0  0  0  0  0  0  0  # atno 16516 bound_to 5918
   -6.7207   -0.5612   14.5631 LP  0  0  0  0  0  0  0  0  0  0  0  0  # atno 16517 bound_to 5990
   -7.4417    3.8432   11.8979 LP  0  0  0  0  0  0  0  0  0  0  0  0  # atno 16518 bound_to 5993
   -5.9827    3.7330   12.8249 LP  0  0  0  0  0  0  0  0  0  0  0  0  # atno 16519 bound_to 5993
   -7.1058    1.8836   12.3232 LP  0  0  0  0  0  0  0  0  0  0  0  0  # atno 16520 bound_to 6056
  -21.1095    0.8786   28.1799 LP  0  0  0  0  0  0  0  0  0  0  0  0  # atno 16523 bound_to 11156
  -21.1763    0.8535   26.4493 LP  0  0  0  0  0  0  0  0  0  0  0  0  # atno 16524 bound_to 11156
  -18.6117   -0.3295   27.4465 LP  0  0  0  0  0  0  0  0  0  0  0  0  # atno 16525 bound_to 11201
  -16.2900   -1.3252   30.2522 LP  0  0  0  0  0  0  0  0  0  0  0  0  # atno 16528 bound_to 11204
  -16.5939   -0.5891   28.7141 LP  0  0  0  0  0  0  0  0  0  0  0  0  # atno 16529 bound_to 11204
  -18.3597    0.6215   31.8349 LP  0  0  0  0  0  0  0  0  0  0  0  0  # atno 16530 bound_to 11237
  -21.3953   -2.2381   25.1210 LP  0  0  0  0  0  0  0  0  0  0  0  0  # atno 16533 bound_to 11153
  -21.1326   -4.2836   24.2750 LP  0  0  0  0  0  0  0  0  0  0  0  0  # atno 16540 bound_to 11096
  -19.7944   -3.4457   24.9871 LP  0  0  0  0  0  0  0  0  0  0  0  0  # atno 16541 bound_to 11096
  -16.4764   -1.7047   13.5716 LP  0  0  0  0  0  0  0  0  0  0  0  0  # atno 16544 bound_to 10768
  -16.5266   -1.6662   15.3024 LP  0  0  0  0  0  0  0  0  0  0  0  0  # atno 16545 bound_to 10768
  -15.0401   -2.4848   32.6657 LP  0  0  0  0  0  0  0  0  0  0  0  0  # atno 16552 bound_to 11240
  -14.2082   -0.9817   32.4455 LP  0  0  0  0  0  0  0  0  0  0  0  0  # atno 16553 bound_to 11240
  -16.7183   -1.3052   32.2441 LP  0  0  0  0  0  0  0  0  0  0  0  0  # atno 16554 bound_to 11275
  -19.9535   -3.3265   33.0469 LP  0  0  0  0  0  0  0  0  0  0  0  0  # atno 16558 bound_to 11278
  -19.1824   -3.3989   31.4977 LP  0  0  0  0  0  0  0  0  0  0  0  0  # atno 16559 bound_to 11278
  -18.6585   -9.2733   25.5963 LP  0  0  0  0  0  0  0  0  0  0  0  0  # atno 16561 bound_to 9430
  -21.6976   -6.6911   32.2801 LP  0  0  0  0  0  0  0  0  0  0  0  0  # atno 16562 bound_to 11325
  -20.7012   -5.8567   31.1351 LP  0  0  0  0  0  0  0  0  0  0  0  0  # atno 16563 bound_to 11325
  -22.0318   -2.6302   31.2373 LP  0  0  0  0  0  0  0  0  0  0  0  0  # atno 16564 bound_to 11474
  -20.0088   -5.7933   33.2593 LP  0  0  0  0  0  0  0  0  0  0  0  0  # atno 16565 bound_to 11366
  -21.0853   -7.9168   26.5561 LP  0  0  0  0  0  0  0  0  0  0  0  0  # atno 16566 bound_to 9387
  -21.1901   -9.5757   27.0433 LP  0  0  0  0  0  0  0  0  0  0  0  0  # atno 16567 bound_to 9387
  -18.6353   -9.8475   31.5780 LP  0  0  0  0  0  0  0  0  0  0  0  0  # atno 16568 bound_to 11550
  -19.3394  -11.2180   31.0370 LP  0  0  0  0  0  0  0  0  0  0  0  0  # atno 16569 bound_to 11550
  -19.2893  -12.0075   25.6032 LP  0  0  0  0  0  0  0  0  0  0  0  0  # atno 16570 bound_to 9345
  -18.5797  -10.8115   24.5706 LP  0  0  0  0  0  0  0  0  0  0  0  0  # atno 16571 bound_to 9345
  -13.6686  -12.7902   24.7379 LP  0  0  0  0  0  0  0  0  0  0  0  0  # atno 16572 bound_to 9348
  -14.6777  -13.4151   23.6164 LP  0  0  0  0  0  0  0  0  0  0  0  0  # atno 16573 bound_to 9348
  -19.9289   -9.7322   24.5599 LP  0  0  0  0  0  0  0  0  0  0  0  0  # atno 16574 bound_to 9481
   -9.0601   -3.8917   15.2136 LP  0  0  0  0  0  0  0  0  0  0  0  0  # atno 16579 bound_to 5720
   -7.8794   -3.5401   16.4311 LP  0  0  0  0  0  0  0  0  0  0  0  0  # atno 16580 bound_to 5720
   -1.9318  -10.9520   21.5394 LP  0  0  0  0  0  0  0  0  0  0  0  0  # atno 16587 bound_to 15466
   -1.2711   -9.6696   20.7742 LP  0  0  0  0  0  0  0  0  0  0  0  0  # atno 16588 bound_to 15466
  -11.0510  -10.7151   16.9634 LP  0  0  0  0  0  0  0  0  0  0  0  0  # atno 16591 bound_to 7831
   -3.4458  -13.5662   25.6495 LP  0  0  0  0  0  0  0  0  0  0  0  0  # atno 16592 bound_to 1821
   -3.2308  -13.3902   27.3591 LP  0  0  0  0  0  0  0  0  0  0  0  0  # atno 16593 bound_to 1821
   -7.3702  -12.7687   17.2023 LP  0  0  0  0  0  0  0  0  0  0  0  0  # atno 16594 bound_to 7834
   -7.7688  -13.3383   18.7887 LP  0  0  0  0  0  0  0  0  0  0  0  0  # atno 16595 bound_to 7834
   -8.1319   -7.5543   14.1243 LP  0  0  0  0  0  0  0  0  0  0  0  0  # atno 16596 bound_to 5717
   -6.3612   -6.5923   15.3260 LP  0  0  0  0  0  0  0  0  0  0  0  0  # atno 16597 bound_to 5767
   -0.4008  -12.1517   19.7441 LP  0  0  0  0  0  0  0  0  0  0  0  0  # atno 16600 bound_to 1745
   -0.7950  -13.6022   18.8834 LP  0  0  0  0  0  0  0  0  0  0  0  0  # atno 16601 bound_to 1745
   -1.1103  -14.7293   23.6829 LP  0  0  0  0  0  0  0  0  0  0  0  0  # atno 16602 bound_to 1818
   -4.9043   -6.3046   13.7755 LP  0  0  0  0  0  0  0  0  0  0  0  0  # atno 16603 bound_to 5772
   -3.5696   -6.9118   14.4943 LP  0  0  0  0  0  0  0  0  0  0  0  0  # atno 16604 bound_to 5772
    0.4485   -8.1123   17.8320 LP  0  0  0  0  0  0  0  0  0  0  0  0  # atno 16605 bound_to 15403
    0.8466  -14.9962   20.8538 LP  0  0  0  0  0  0  0  0  0  0  0  0  # atno 16606 bound_to 1791
   -4.1547   -9.2762   13.5531 LP  0  0  0  0  0  0  0  0  0  0  0  0  # atno 16607 bound_to 5617
   -5.3794   -7.9259   12.7990 LP  0  0  0  0  0  0  0  0  0  0  0  0  # atno 16608 bound_to 5620
   -6.6921   -7.2401   13.6970 LP  0  0  0  0  0  0  0  0  0  0  0  0  # atno 16609 bound_to 5620
   -9.6662   -9.5074   15.0295 LP  0  0  0  0  0  0  0  0  0  0  0  0  # atno 16610 bound_to 7788
   -9.6665  -11.1978   15.4068 LP  0  0  0  0  0  0  0  0  0  0  0  0  # atno 16611 bound_to 7788
   -9.6272  -12.3416   16.9747 LP  0  0  0  0  0  0  0  0  0  0  0  0  # atno 16612 bound_to 7874
    0.4479  -16.2976   24.3345 LP  0  0  0  0  0  0  0  0  0  0  0  0  # atno 16613 bound_to 1794
    0.5099  -16.2663   22.6039 LP  0  0  0  0  0  0  0  0  0  0  0  0  # atno 16614 bound_to 1794
   -0.0551  -13.5192   28.4236 LP  0  0  0  0  0  0  0  0  0  0  0  0  # atno 16615 bound_to 1824
   -0.1017  -15.1078   28.7987 LP  0  0  0  0  0  0  0  0  0  0  0  0  # atno 16616 bound_to 1824
   -2.7617  -15.3687   26.4381 LP  0  0  0  0  0  0  0  0  0  0  0  0  # atno 16617 bound_to 1854
  -16.0621  -15.2115   28.1139 LP  0  0  0  0  0  0  0  0  0  0  0  0  # atno 16622 bound_to 9318
  -15.0678  -14.1586   27.1637 LP  0  0  0  0  0  0  0  0  0  0  0  0  # atno 16623 bound_to 9318
  -16.6797  -14.1956   25.0154 LP  0  0  0  0  0  0  0  0  0  0  0  0  # atno 16624 bound_to 9342
  -22.0427   -8.0209   23.3182 LP  0  0  0  0  0  0  0  0  0  0  0  0  # atno 16627 bound_to 9433
  -20.9052   -7.1794   22.3192 LP  0  0  0  0  0  0  0  0  0  0  0  0  # atno 16628 bound_to 9433
  -17.4212   -7.9036   17.2190 LP  0  0  0  0  0  0  0  0  0  0  0  0  # atno 16629 bound_to 9492
  -16.0617   -7.8289   18.1205 LP  0  0  0  0  0  0  0  0  0  0  0  0  # atno 16630 bound_to 9492
  -16.8009  -11.9010   19.6834 LP  0  0  0  0  0  0  0  0  0  0  0  0  # atno 16631 bound_to 7667
  -17.8282  -13.2954   19.7019 LP  0  0  0  0  0  0  0  0  0  0  0  0  # atno 16632 bound_to 7667
  -14.6242  -13.6092   18.5793 LP  0  0  0  0  0  0  0  0  0  0  0  0  # atno 16634 bound_to 7723
  -12.5329  -12.0212   15.8199 LP  0  0  0  0  0  0  0  0  0  0  0  0  # atno 16635 bound_to 7726
  -13.1007  -13.0953   17.0544 LP  0  0  0  0  0  0  0  0  0  0  0  0  # atno 16636 bound_to 7726
  -19.6319   -6.0948   16.8020 LP  0  0  0  0  0  0  0  0  0  0  0  0  # atno 16637 bound_to 10539
  -21.1664   -5.6363   16.1424 LP  0  0  0  0  0  0  0  0  0  0  0  0  # atno 16638 bound_to 10539
   -6.6563  -16.0122   31.8512 LP  0  0  0  0  0  0  0  0  0  0  0  0  # atno 16639 bound_to 1884
   -5.1405  -15.4134   31.9521 LP  0  0  0  0  0  0  0  0  0  0  0  0  # atno 16640 bound_to 1884
  -18.2096  -16.7106   27.9370 LP  0  0  0  0  0  0  0  0  0  0  0  0  # atno 16641 bound_to 9315
   -5.2064  -16.3987   30.1372 LP  0  0  0  0  0  0  0  0  0  0  0  0  # atno 16642 bound_to 1879
   -1.6090  -16.6267   28.9880 LP  0  0  0  0  0  0  0  0  0  0  0  0  # atno 16643 bound_to 1857
   -2.0173  -17.0778   30.6097 LP  0  0  0  0  0  0  0  0  0  0  0  0  # atno 16644 bound_to 1857
  -17.0123  -17.5630   23.1338 LP  0  0  0  0  0  0  0  0  0  0  0  0  # atno 16645 bound_to 7565
  -18.7322  -17.5100   23.3314 LP  0  0  0  0  0  0  0  0  0  0  0  0  # atno 16646 bound_to 7565
  -20.5133  -18.0041   27.2572 LP  0  0  0  0  0  0  0  0  0  0  0  0  # atno 16647 bound_to 9289
  -19.8297  -16.9266   26.0861 LP  0  0  0  0  0  0  0  0  0  0  0  0  # atno 16648 bound_to 9289
  -18.9216  -18.8506   32.2846 LP  0  0  0  0  0  0  0  0  0  0  0  0  # atno 16649 bound_to 9236
  -17.9243  -19.2647   30.9304 LP  0  0  0  0  0  0  0  0  0  0  0  0  # atno 16650 bound_to 9236
  -19.7332  -19.0827   30.2251 LP  0  0  0  0  0  0  0  0  0  0  0  0  # atno 16653 bound_to 9286
  -20.7901  -21.1839   31.7839 LP  0  0  0  0  0  0  0  0  0  0  0  0  # atno 16654 bound_to 9233
  -12.0300  -23.8778   34.1383 LP  0  0  0  0  0  0  0  0  0  0  0  0  # atno 16655 bound_to 3365
  -10.8444  -22.6849   33.7243 LP  0  0  0  0  0  0  0  0  0  0  0  0  # atno 16656 bound_to 3365
   -7.2554  -24.3313   35.6681 LP  0  0  0  0  0  0  0  0  0  0  0  0  # atno 16657 bound_to 3362
   -4.2339  -19.3943   31.4610 LP  0  0  0  0  0  0  0  0  0  0  0  0  # atno 16658 bound_to 1922

> <Gold.Score>
     Fitness  S(hb_ext) S(vdw_ext)  S(hb_int)    S(int)      intcor
     30.04       0.64      21.52       0.00      -0.20      -0.77

> <Gold.Goldscore.Fitness>
30.0388

> <Gold.Goldscore.Internal.Vdw>
-0.4476

> <Gold.Goldscore.Internal.Torsion>
-0.5232

> <Gold.Goldscore.External.Vdw>
21.5249

> <Gold.Goldscore.Internal.HBond>
0.0000

> <Gold.Goldscore.External.HBond>
0.6442

> <Gold.Goldscore.Internal.Correction>
-0.7686

> <Gold.Goldscore.Hbonds>
donor molecule, donor type, donor heavy atom, donor atom, acceptor molecule, acceptor atom, score
      P1  H 10948 10978       L1     9  0.30
      L1  H    10    23       P1 11353  0.02

> <Gold.Goldscore.Internal.Vdw.Weighted>
-0.4476

> <Gold.Goldscore.Internal.Torsion.Weighted>
-0.5232

> <Gold.Goldscore.External.Vdw.Weighted>
29.5968

> <Gold.Goldscore.Internal.HBond.Weighted>
0.0000

> <Gold.Goldscore.External.HBond.Weighted>
0.6442

> <Gold.Goldscore.Internal.Correction.Weighted>
-0.7686

> <Gold.Rescore>
     Score     S(PLP)   S(hbond)     S(cho)   S(metal)  DE(clash)   DE(tors)     intcor
     30.64     -28.48       0.86       0.00       0.00       0.00       0.22       ----

> <Gold.PLP.Fitness>
30.6357

> <Gold.PLP.PLP>
-28.4848

> <Gold.PLP.part.hbond>
-1.0000

> <Gold.PLP.part.metal>
0.0000

> <Gold.PLP.part.buried>
-2.4322

> <Gold.PLP.part.nonpolar>
-26.0965

> <Gold.PLP.part.repulsive>
0.5264

> <Gold.PLP.ligand.clash>
0.0000

> <Gold.PLP.ligand.torsion>
0.2164

> <Gold.PLP.Chemscore.Hbond>
0.8613

> <Gold.PLP.Chemscore.CHOScore>
0.0000

> <Gold.PLP.Chemscore.Metal>
0.0000

> <Gold.Chemscore.Hbonds>
donor molecule, donor type, donor heavy atom, donor atom, acceptor molecule, acceptor atom, score
      L1  H    10    23       P1 11353  0.25

> <Gold.PLP.Chemscore.Internal.Correction>
   9.000000E+99

