#       Name:                CT1002167954
#       Creating user name   hitesit
#       Creation time:       Sun Apr 16 20:17:51 2023


#       File generated by GOLD software.
#

@<TRIPOS>MOLECULE
CT1002167954|ligand_prepared|mol2|1|dock8
    29    30     1
SMALL
NO_CHARGES


@<TRIPOS>ATOM
      1 C1         -13.8796   5.2568  17.5303 C.3            1 RES1               0.0000
      2 C2         -12.9373   4.0543  17.7423 C.ar           1 RES1               0.0000
      3 C3         -12.9903   6.4960  17.4892 C.2            1 RES1               0.0000
      4 C4         -14.6304   4.9865  16.2311 C.2            1 RES1               0.0000
      5 C5         -14.9237   5.4386  18.6565 C.3            1 RES1               0.0000
      6 C6         -13.2025   3.1120  18.7314 C.ar           1 RES1               0.0000
      7 C7         -11.8024   3.8729  16.9563 C.ar           1 RES1               0.0000
      8 N8         -12.7851   7.0866  16.2771 N.am           1 RES1               0.0000
      9 O9         -12.4454   6.9253  18.4987 O.2            1 RES1               0.0000
     10 N10        -14.4007   5.8235  15.1707 N.am           1 RES1               0.0000
     11 O11        -15.4063   4.0463  16.1109 O.2            1 RES1               0.0000
     12 C12        -15.7568   6.7034  18.5218 C.3            1 RES1               0.0000
     13 C13        -12.3653   2.0259  18.9258 C.ar           1 RES1               0.0000
     14 C14        -10.9663   2.7862  17.1526 C.ar           1 RES1               0.0000
     15 C15        -13.4890   6.8428  15.1253 C.2            1 RES1               0.0000
     16 C16        -11.2470   1.8621  18.1364 C.ar           1 RES1               0.0000
     17 O17        -13.3010   7.5169  14.1166 O.2            1 RES1               0.0000
     18 H18        -15.5957   4.5716  18.6582 H              1 RES1               0.0000
     19 H19        -14.4021   5.4605  19.6213 H              1 RES1               0.0000
     20 H20        -14.0766   3.2256  19.3640 H              1 RES1               0.0000
     21 H21        -11.5612   4.5879  16.1771 H              1 RES1               0.0000
     22 H22        -12.0393   7.7728  16.2220 H              1 RES1               0.0000
     23 H23        -14.9614   5.6728  14.3380 H              1 RES1               0.0000
     24 H24        -16.4731   6.7821  19.3370 H              1 RES1               0.0000
     25 H25        -15.1224   7.5872  18.5417 H              1 RES1               0.0000
     26 H26        -16.3090   6.7036  17.5843 H              1 RES1               0.0000
     27 H27        -12.5899   1.3022  19.7023 H              1 RES1               0.0000
     28 H28        -10.0869   2.6616  16.5294 H              1 RES1               0.0000
     29 H29        -10.5915   1.0110  18.2887 H              1 RES1               0.0000
@<TRIPOS>BOND
    1    1    2 1     
    2    1    3 1     
    3    1    4 1     
    4    1    5 1     
    5    2    6 ar    
    6    2    7 ar    
    7    3    8 1     
    8    3    9 2     
    9    4   10 1     
   10    4   11 2     
   11    5   12 1     
   12    5   18 1     
   13    5   19 1     
   14    6   13 ar    
   15    6   20 1     
   16    7   14 ar    
   17    7   21 1     
   18    8   15 1     
   19    8   22 1     
   20   10   15 1     
   21   10   23 1     
   22   12   24 1     
   23   12   25 1     
   24   12   26 1     
   25   13   16 ar    
   26   13   27 1     
   27   14   16 ar    
   28   14   28 1     
   29   15   17 2     
   30   16   29 1     
@<TRIPOS>SUBSTRUCTURE
      1 RES1           1
@<TRIPOS>SET
DONOR_HYDROGENS      STATIC     ATOMS    <user>   **** ""
2 22 23
ATOM$RED        STATIC     ATOMS    COLORGROUP SYSTEM
2 22 23
@<TRIPOS>COMMENT
> <Gold.Version>
2022.3.0

> <Gold.Id.Protein>
unknown|3mvj_clean|pdb

> <Gold.Protein.RotatedTorsions>
[ 11816 11799 11798 11795 ] final  168.92 input   60.01 | X-H torsion
[ 11879 11856 11855 11854 ] final -139.24 input   60.02 | X-H torsion
[ 10986 10959 10958 10956 ] final -141.90 input   60.00 | X-H torsion
[ 10978 10948 10949 10950 ] final  162.49 input   32.02 | X-H torsion
[ 10745 10719 10718 10716 ] final  -47.68 input   60.01 | X-H torsion
[ 12083 12056 12057 12058 ] final  -65.86 input   63.02 | X-H torsion
[ 10921 10911 10912 10913 ] final  103.17 input  -92.90 | X-H torsion
[ 6177 6140 6141 6142 ] final   81.19 input   39.58 | X-H torsion
[ 6115 6105 6106 6107 ] final -115.07 input  -69.34 | X-H torsion
[ 5955 5918 5919 5920 ] final  -23.23 input  125.26 | X-H torsion
[ 6027 5990 5991 5992 ] final  -71.78 input  110.40 | X-H torsion
[ 6086 6056 6057 6058 ] final  -41.43 input  107.04 | X-H torsion
[ 11660 11631 11630 11629 ] final   60.60 input   60.02 | X-H torsion
[ 11213 11201 11202 11203 ] final  176.91 input   18.84 | X-H torsion
[ 11249 11237 11238 11239 ] final  118.88 input  111.29 | X-H torsion
[ 11182 11153 11154 11155 ] final  150.56 input   30.50 | X-H torsion
[ 11292 11275 11276 11277 ] final  112.47 input   58.53 | X-H torsion
[ 9445 9430 9431 9432 ] final  -76.50 input  110.06 | X-H torsion
[ 11493 11474 11475 11476 ] final -118.50 input  115.95 | X-H torsion
[ 11385 11366 11367 11368 ] final  113.90 input  117.79 | X-H torsion
[ 11568 11550 11549 11547 ] final  115.25 input   59.97 | X-H torsion
[ 9362 9348 9346 9343 ] final  -28.17 input   60.02 | X-H torsion
[ 9502 9481 9482 9483 ] final   18.49 input   75.78 | X-H torsion
[ 15476 15466 15465 15463 ] final   -8.52 input   60.00 | X-H torsion
[ 7768 7731 7730 7729 ] final  -18.69 input   60.02 | X-H torsion
[ 7852 7831 7832 7833 ] final  171.88 input  113.97 | X-H torsion
[ 5737 5717 5718 5719 ] final   32.70 input  137.93 | X-H torsion
[ 5778 5767 5768 5769 ] final   95.57 input  116.46 | X-H torsion
[ 1832 1818 1819 1820 ] final -175.49 input   43.70 | X-H torsion
[ 5782 5772 5771 5768 ] final -167.64 input   59.97 | X-H torsion
[ 15411 15403 15404 15405 ] final   54.63 input  102.24 | X-H torsion
[ 1801 1791 1792 1793 ] final   36.05 input  -10.55 | X-H torsion
[ 5638 5617 5618 5619 ] final   -6.43 input   93.34 | X-H torsion
[ 7894 7874 7875 7876 ] final  -35.88 input   68.03 | X-H torsion
[ 1838 1824 1822 1819 ] final   88.30 input   60.02 | X-H torsion
[ 1861 1854 1855 1856 ] final  157.47 input   57.50 | X-H torsion
[ 9356 9342 9343 9344 ] final   17.77 input   55.58 | X-H torsion
[ 9510 9492 9491 9489 ] final  -38.36 input   60.02 | X-H torsion
[ 7758 7723 7724 7725 ] final  -58.10 input   17.81 | X-H torsion
[ 1898 1884 1883 1880 ] final   78.34 input   60.01 | X-H torsion
[ 9322 9315 9316 9317 ] final  -57.28 input  -36.21 | X-H torsion
[ 1894 1879 1880 1881 ] final  -11.47 input   98.21 | X-H torsion
[ 9297 9286 9287 9288 ] final -162.69 input   37.00 | X-H torsion
[ 9252 9233 9234 9235 ] final  -83.32 input   95.32 | X-H torsion
[ 3370 3362 3363 3364 ] final  129.80 input   97.92 | X-H torsion
[ 1951 1922 1923 1924 ] final  -53.20 input  104.43 | X-H torsion
[ 12164 12148 12149 12150 ] final  -31.73 input  116.04 | X-H torsion
[ 11673 11649 11648 11647 ] final   -2.02 input   59.99 | X-H torsion
[ 12008 11984 11985 11986 ] final   69.24 input   61.04 | X-H torsion
[ 11122 11093 11094 11095 ] final  158.78 input   39.50 | X-H torsion
[ 7946 7916 7917 7918 ] final   42.51 input   66.66 | X-H torsion
[ 8659 8630 8631 8632 ] final   96.16 input   75.31 | X-H torsion
[ 9555 9536 9537 9538 ] final  -58.45 input  103.50 | X-H torsion
[ 16472 10886 10885 10884 ] final  -79.07 input    0.00 | X-H torsion
[ 16475 11004 11003 11002 ] final -140.92 input    0.00 | X-H torsion
[ 16477 10914 10913 10912 ] final   46.11 input    0.00 | X-H torsion
[ 16479 10951 10950 10949 ] final  -77.73 input   -0.00 | X-H torsion
[ 16484 11987 11986 11985 ] final   55.91 input    0.00 | X-H torsion
[ 16486 12059 12058 12057 ] final  -91.78 input   -0.00 | X-H torsion
[ 16490 11046 11045 11044 ] final  119.10 input    0.00 | X-H torsion
[ 16500 6108 6107 6106 ] final  175.34 input    0.00 | X-H torsion
[ 16503 5921 5920 5919 ] final   55.89 input   -0.00 | X-H torsion
[ 16506 6059 6058 6057 ] final  175.39 input    0.00 | X-H torsion
[ 16510 5858 5857 5856 ] final   13.66 input    0.00 | X-H torsion
[ 16518 5993 5992 5991 ] final -115.02 input   -0.00 | X-H torsion
[ 16523 11156 11155 11154 ] final   89.63 input    0.00 | X-H torsion
[ 16528 11204 11203 11202 ] final  -15.92 input    0.00 | X-H torsion
[ 16540 11096 11095 11094 ] final -122.83 input   -0.00 | X-H torsion
[ 16544 10768 10767 10766 ] final  166.51 input   -0.00 | X-H torsion
[ 16552 11240 11239 11238 ] final  -91.87 input    0.00 | X-H torsion
[ 16558 11278 11277 11276 ] final   31.86 input   -0.00 | X-H torsion
[ 16562 11325 11324 11323 ] final  123.23 input   -0.00 | X-H torsion
[ 16566 9387 9386 9385 ] final   41.65 input   -0.00 | X-H torsion
[ 16570 9345 9344 9343 ] final -159.45 input    0.00 | X-H torsion
[ 16579 5720 5719 5718 ] final  -20.25 input    0.00 | X-H torsion
[ 16592 1821 1820 1819 ] final  -70.91 input    0.00 | X-H torsion
[ 16594 7834 7833 7832 ] final   35.93 input    0.00 | X-H torsion
[ 16600 1745 1744 1743 ] final   -4.88 input    0.00 | X-H torsion
[ 16608 5620 5619 5618 ] final  -79.53 input   -0.00 | X-H torsion
[ 16610 7788 7787 7786 ] final  -61.00 input   -0.00 | X-H torsion
[ 16613 1794 1793 1792 ] final  130.23 input   -0.00 | X-H torsion
[ 16622 9318 9317 9316 ] final -138.40 input   -0.00 | X-H torsion
[ 16627 9433 9432 9431 ] final  -66.63 input    0.00 | X-H torsion
[ 16631 7667 7666 7665 ] final  125.92 input   -0.00 | X-H torsion
[ 16635 7726 7725 7724 ] final -138.45 input    0.00 | X-H torsion
[ 16637 10539 10538 10537 ] final  -10.54 input   -0.00 | X-H torsion
[ 16643 1857 1856 1855 ] final  -11.96 input    0.00 | X-H torsion
[ 16645 7565 7564 7563 ] final   34.41 input    0.00 | X-H torsion
[ 16647 9289 9288 9287 ] final  -55.07 input    0.00 | X-H torsion
[ 16649 9236 9235 9234 ] final -175.08 input    0.00 | X-H torsion
[ 16655 3365 3364 3363 ] final  -58.40 input    0.00 | X-H torsion

> <Gold.Protein.ActiveResidues>
 LEU49   GLY50   THR51   GLY52   SER53   PHE54   VAL57   LEU82   LYS83   GLN84  
 HIS87   GLU127  PHE129  SER130  LEU132  ARG133  ARG134  ILE135  GLY136  ARG137 
 ARG165  ASP166  LEU167  LYS168  PRO169  GLU170  ASN171  LEU172  LEU173  ASP184 
 GLY186  PHE187  TPO197  LEU198  CYS199  GLY200  THR201  PRO202  GLU203  TYR204 
 LEU205  ILE209  ILE210  VAL226  LEU227  TYR229  GLU230  ALA233  GLY234  TYR235 
 PRO236  PRO237  PHE238  PHE239  ALA240  ASP241  GLN242  PRO243  ILE244  GLN245 
 ILE246  TYR247  GLU248  LYS249  ILE250  VAL251  SER252  LYS254  ARG256  PHE257 
 PRO258  SER259  PHE327  ASP328  TYR330 

> <Gold.Protein.RotatedAtoms>
    1.1320  -15.0415   21.2956 H   0  0  0  0  0  0  0  0  0  0  0  0  # atno 1801 bound_to 1791
   -0.1227  -14.3340   23.9987 H   0  0  0  0  0  0  0  0  0  0  0  0  # atno 1832 bound_to 1818
   -0.5215  -15.2511   28.6596 H   0  0  0  0  0  0  0  0  0  0  0  0  # atno 1838 bound_to 1824
   -2.9889  -16.0738   26.1478 H   0  0  0  0  0  0  0  0  0  0  0  0  # atno 1861 bound_to 1854
   -4.2667  -17.6294   29.4534 H   0  0  0  0  0  0  0  0  0  0  0  0  # atno 1894 bound_to 1879
   -6.4207  -15.9542   31.6138 H   0  0  0  0  0  0  0  0  0  0  0  0  # atno 1898 bound_to 1884
   -3.7039  -19.2367   31.0854 H   0  0  0  0  0  0  0  0  0  0  0  0  # atno 1951 bound_to 1922
   -7.1289  -24.0368   35.8968 H   0  0  0  0  0  0  0  0  0  0  0  0  # atno 3370 bound_to 3362
   -4.3561   -9.4243   12.9007 H   0  0  0  0  0  0  0  0  0  0  0  0  # atno 5638 bound_to 5617
   -8.0105   -7.6627   14.2774 H   0  0  0  0  0  0  0  0  0  0  0  0  # atno 5737 bound_to 5717
   -6.4135   -6.5602   15.0954 H   0  0  0  0  0  0  0  0  0  0  0  0  # atno 5778 bound_to 5767
   -3.1563   -6.5782   14.2699 H   0  0  0  0  0  0  0  0  0  0  0  0  # atno 5782 bound_to 5772
   -9.1434   -1.2801   13.9713 H   0  0  0  0  0  0  0  0  0  0  0  0  # atno 5955 bound_to 5918
   -7.7664    0.7201   15.0451 H   0  0  0  0  0  0  0  0  0  0  0  0  # atno 6027 bound_to 5990
   -7.5569    1.8386   12.6633 H   0  0  0  0  0  0  0  0  0  0  0  0  # atno 6086 bound_to 6056
   -9.4909    2.0076   13.0636 H   0  0  0  0  0  0  0  0  0  0  0  0  # atno 6115 bound_to 6105
  -13.0709    3.1425   11.3234 H   0  0  0  0  0  0  0  0  0  0  0  0  # atno 6177 bound_to 6140
  -15.4338  -13.1979   17.1890 H   0  0  0  0  0  0  0  0  0  0  0  0  # atno 7758 bound_to 7723
  -12.1825  -11.5315   24.0770 H   0  0  0  0  0  0  0  0  0  0  0  0  # atno 7768 bound_to 7731
  -12.6457  -13.0400   24.5841 H   0  0  0  0  0  0  0  0  0  0  0  0  # atno 7769 bound_to 7731
  -11.0625  -12.7488   24.1862 H   0  0  0  0  0  0  0  0  0  0  0  0  # atno 7770 bound_to 7731
  -10.8529   -9.3686   18.0620 H   0  0  0  0  0  0  0  0  0  0  0  0  # atno 7852 bound_to 7831
   -9.8449  -12.3162   16.8101 H   0  0  0  0  0  0  0  0  0  0  0  0  # atno 7894 bound_to 7874
   -9.8072  -12.7870   15.3168 H   0  0  0  0  0  0  0  0  0  0  0  0  # atno 7946 bound_to 7916
  -13.5134  -21.7372   22.9797 H   0  0  0  0  0  0  0  0  0  0  0  0  # atno 8659 bound_to 8630
  -21.6917  -21.1378   30.3956 H   0  0  0  0  0  0  0  0  0  0  0  0  # atno 9252 bound_to 9233
  -19.7047  -19.2307   30.1907 H   0  0  0  0  0  0  0  0  0  0  0  0  # atno 9297 bound_to 9286
  -16.7059  -17.1698   27.4548 H   0  0  0  0  0  0  0  0  0  0  0  0  # atno 9322 bound_to 9315
  -18.0425  -13.5582   25.4109 H   0  0  0  0  0  0  0  0  0  0  0  0  # atno 9356 bound_to 9342
  -14.4553  -13.5499   25.4253 H   0  0  0  0  0  0  0  0  0  0  0  0  # atno 9362 bound_to 9348
  -19.2859   -8.6424   26.4734 H   0  0  0  0  0  0  0  0  0  0  0  0  # atno 9445 bound_to 9430
  -19.8130   -9.8407   24.5619 H   0  0  0  0  0  0  0  0  0  0  0  0  # atno 9502 bound_to 9481
  -16.9829   -6.8121   18.5395 H   0  0  0  0  0  0  0  0  0  0  0  0  # atno 9510 bound_to 9492
  -21.6278  -11.2330   23.5038 H   0  0  0  0  0  0  0  0  0  0  0  0  # atno 9555 bound_to 9536
  -23.4250    1.2078   18.8167 H   0  0  0  0  0  0  0  0  0  0  0  0  # atno 10745 bound_to 10719
  -17.4411    1.6319   14.0346 H   0  0  0  0  0  0  0  0  0  0  0  0  # atno 10921 bound_to 10911
  -16.3453    1.4420   16.8302 H   0  0  0  0  0  0  0  0  0  0  0  0  # atno 10978 bound_to 10948
  -21.5920    5.0937   16.5226 H   0  0  0  0  0  0  0  0  0  0  0  0  # atno 10986 bound_to 10959
  -23.5347   -2.6938   22.1959 H   0  0  0  0  0  0  0  0  0  0  0  0  # atno 11122 bound_to 11093
  -21.0913   -1.5240   24.4499 H   0  0  0  0  0  0  0  0  0  0  0  0  # atno 11182 bound_to 11153
  -19.9455   -0.5460   27.7420 H   0  0  0  0  0  0  0  0  0  0  0  0  # atno 11213 bound_to 11201
  -18.1846    1.3307   31.6661 H   0  0  0  0  0  0  0  0  0  0  0  0  # atno 11249 bound_to 11237
  -17.6733   -0.6864   33.5621 H   0  0  0  0  0  0  0  0  0  0  0  0  # atno 11292 bound_to 11275
  -19.5114   -5.6445   34.8933 H   0  0  0  0  0  0  0  0  0  0  0  0  # atno 11385 bound_to 11366
  -22.1898   -2.6126   31.2139 H   0  0  0  0  0  0  0  0  0  0  0  0  # atno 11493 bound_to 11474
  -18.6947   -9.9717   32.2563 H   0  0  0  0  0  0  0  0  0  0  0  0  # atno 11568 bound_to 11550
   -8.1898    9.3415   26.7067 H   0  0  0  0  0  0  0  0  0  0  0  0  # atno 11660 bound_to 11631
   -9.4183    8.2422   26.5384 H   0  0  0  0  0  0  0  0  0  0  0  0  # atno 11661 bound_to 11631
   -8.2319    8.3403   25.3859 H   0  0  0  0  0  0  0  0  0  0  0  0  # atno 11662 bound_to 11631
  -25.0944    2.0420   29.0757 H   0  0  0  0  0  0  0  0  0  0  0  0  # atno 11673 bound_to 11649
  -23.8266    2.9133   28.4571 H   0  0  0  0  0  0  0  0  0  0  0  0  # atno 11674 bound_to 11649
  -25.2017    2.6980   27.5567 H   0  0  0  0  0  0  0  0  0  0  0  0  # atno 11675 bound_to 11649
  -13.2957   15.4187   23.4643 H   0  0  0  0  0  0  0  0  0  0  0  0  # atno 11816 bound_to 11799
  -17.5859   16.3567   23.9776 H   0  0  0  0  0  0  0  0  0  0  0  0  # atno 11879 bound_to 11856
  -16.8812   14.9701   24.5508 H   0  0  0  0  0  0  0  0  0  0  0  0  # atno 11880 bound_to 11856
  -18.2728   15.5414   25.2474 H   0  0  0  0  0  0  0  0  0  0  0  0  # atno 11881 bound_to 11856
  -27.7509    1.0087   20.1561 H   0  0  0  0  0  0  0  0  0  0  0  0  # atno 12008 bound_to 11984
  -27.2973    3.3657   17.5589 H   0  0  0  0  0  0  0  0  0  0  0  0  # atno 12083 bound_to 12056
  -24.8369    6.3905   12.5462 H   0  0  0  0  0  0  0  0  0  0  0  0  # atno 12164 bound_to 12148
    1.2640   -8.9075   18.0386 H   0  0  0  0  0  0  0  0  0  0  0  0  # atno 15411 bound_to 15403
   -1.2968  -10.0648   20.6850 H   0  0  0  0  0  0  0  0  0  0  0  0  # atno 15476 bound_to 15466
  -13.2807   16.9805   23.0080 LP  0  0  0  0  0  0  0  0  0  0  0  0  # atno 16466 bound_to 11799
  -12.3153   15.8982   22.2574 LP  0  0  0  0  0  0  0  0  0  0  0  0  # atno 16467 bound_to 11799
  -21.8192    5.6215   18.0452 LP  0  0  0  0  0  0  0  0  0  0  0  0  # atno 16468 bound_to 10959
  -22.5877    4.2798   17.5198 LP  0  0  0  0  0  0  0  0  0  0  0  0  # atno 16469 bound_to 10959
  -17.2257    3.5801   13.6132 LP  0  0  0  0  0  0  0  0  0  0  0  0  # atno 16472 bound_to 10886
  -17.4797    3.3571   15.3120 LP  0  0  0  0  0  0  0  0  0  0  0  0  # atno 16473 bound_to 10886
  -17.3024    0.0559   16.3450 LP  0  0  0  0  0  0  0  0  0  0  0  0  # atno 16474 bound_to 10948
  -21.2870   -0.4658   21.6963 LP  0  0  0  0  0  0  0  0  0  0  0  0  # atno 16475 bound_to 11004
  -20.0094    0.0387   20.6411 LP  0  0  0  0  0  0  0  0  0  0  0  0  # atno 16476 bound_to 11004
  -14.0770    1.8577   16.9941 LP  0  0  0  0  0  0  0  0  0  0  0  0  # atno 16477 bound_to 10914
  -14.4339    0.4577   17.9495 LP  0  0  0  0  0  0  0  0  0  0  0  0  # atno 16478 bound_to 10914
  -19.8860    0.0218   17.7177 LP  0  0  0  0  0  0  0  0  0  0  0  0  # atno 16479 bound_to 10951
  -19.1974   -1.4268   17.0638 LP  0  0  0  0  0  0  0  0  0  0  0  0  # atno 16480 bound_to 10951
  -24.8725    1.2464   18.0745 LP  0  0  0  0  0  0  0  0  0  0  0  0  # atno 16482 bound_to 10719
  -23.5611    1.8924   17.3468 LP  0  0  0  0  0  0  0  0  0  0  0  0  # atno 16483 bound_to 10719
  -26.4712    0.8223   18.1423 LP  0  0  0  0  0  0  0  0  0  0  0  0  # atno 16484 bound_to 11987
  -25.5033    2.1822   17.6800 LP  0  0  0  0  0  0  0  0  0  0  0  0  # atno 16485 bound_to 11987
  -27.3815    5.7334   14.4476 LP  0  0  0  0  0  0  0  0  0  0  0  0  # atno 16486 bound_to 12059
  -26.8567    5.8777   16.0919 LP  0  0  0  0  0  0  0  0  0  0  0  0  # atno 16487 bound_to 12059
  -25.1151   -1.2067   22.8420 LP  0  0  0  0  0  0  0  0  0  0  0  0  # atno 16490 bound_to 11046
  -24.2699    0.0908   22.0661 LP  0  0  0  0  0  0  0  0  0  0  0  0  # atno 16491 bound_to 11046
  -28.7065    3.0300   16.5830 LP  0  0  0  0  0  0  0  0  0  0  0  0  # atno 16492 bound_to 12056
  -17.3930   -0.0972   14.3055 LP  0  0  0  0  0  0  0  0  0  0  0  0  # atno 16493 bound_to 10911
  -13.8317    0.6788   13.3701 LP  0  0  0  0  0  0  0  0  0  0  0  0  # atno 16500 bound_to 6108
  -12.5462    1.0872   14.4567 LP  0  0  0  0  0  0  0  0  0  0  0  0  # atno 16501 bound_to 6108
  -12.3538    1.7451   12.0904 LP  0  0  0  0  0  0  0  0  0  0  0  0  # atno 16502 bound_to 6140
   -8.4812    2.2186   16.3100 LP  0  0  0  0  0  0  0  0  0  0  0  0  # atno 16503 bound_to 5921
   -8.6400    2.4022   14.5951 LP  0  0  0  0  0  0  0  0  0  0  0  0  # atno 16504 bound_to 5921
  -10.1748    2.3088   11.4804 LP  0  0  0  0  0  0  0  0  0  0  0  0  # atno 16505 bound_to 6105
  -10.6946    4.5342   11.5107 LP  0  0  0  0  0  0  0  0  0  0  0  0  # atno 16506 bound_to 6059
   -9.3810    4.5011   10.3822 LP  0  0  0  0  0  0  0  0  0  0  0  0  # atno 16507 bound_to 6059
  -10.7788    0.0641   12.8005 LP  0  0  0  0  0  0  0  0  0  0  0  0  # atno 16510 bound_to 5858
   -9.7369    0.7085   14.0249 LP  0  0  0  0  0  0  0  0  0  0  0  0  # atno 16511 bound_to 5858
   -9.2465   -2.4538   15.2602 LP  0  0  0  0  0  0  0  0  0  0  0  0  # atno 16516 bound_to 5918
   -6.8964   -0.6075   14.3002 LP  0  0  0  0  0  0  0  0  0  0  0  0  # atno 16517 bound_to 5990
   -7.5375    3.9444   12.5723 LP  0  0  0  0  0  0  0  0  0  0  0  0  # atno 16518 bound_to 5993
   -5.8869    3.6318   12.1505 LP  0  0  0  0  0  0  0  0  0  0  0  0  # atno 16519 bound_to 5993
   -7.5152    0.4689   11.5893 LP  0  0  0  0  0  0  0  0  0  0  0  0  # atno 16520 bound_to 6056
  -21.6949    0.3009   27.6695 LP  0  0  0  0  0  0  0  0  0  0  0  0  # atno 16523 bound_to 11156
  -20.5910    1.4312   26.9597 LP  0  0  0  0  0  0  0  0  0  0  0  0  # atno 16524 bound_to 11156
  -18.3298   -1.1646   28.0264 LP  0  0  0  0  0  0  0  0  0  0  0  0  # atno 16525 bound_to 11201
  -17.0246   -1.2763   28.9275 LP  0  0  0  0  0  0  0  0  0  0  0  0  # atno 16528 bound_to 11204
  -15.8593   -0.6380   30.0387 LP  0  0  0  0  0  0  0  0  0  0  0  0  # atno 16529 bound_to 11204
  -17.6507    0.0979   30.5481 LP  0  0  0  0  0  0  0  0  0  0  0  0  # atno 16530 bound_to 11237
  -21.8956   -1.2610   25.9824 LP  0  0  0  0  0  0  0  0  0  0  0  0  # atno 16533 bound_to 11153
  -20.4010   -3.9246   25.4927 LP  0  0  0  0  0  0  0  0  0  0  0  0  # atno 16540 bound_to 11096
  -20.5259   -3.8047   23.7693 LP  0  0  0  0  0  0  0  0  0  0  0  0  # atno 16541 bound_to 11096
  -16.0926   -1.9994   13.7412 LP  0  0  0  0  0  0  0  0  0  0  0  0  # atno 16544 bound_to 10768
  -16.9104   -1.3714   15.1328 LP  0  0  0  0  0  0  0  0  0  0  0  0  # atno 16545 bound_to 10768
  -14.8455   -2.0641   31.7865 LP  0  0  0  0  0  0  0  0  0  0  0  0  # atno 16552 bound_to 11240
  -14.4028   -1.4023   33.3247 LP  0  0  0  0  0  0  0  0  0  0  0  0  # atno 16553 bound_to 11240
  -16.8421   -1.3439   32.1724 LP  0  0  0  0  0  0  0  0  0  0  0  0  # atno 16554 bound_to 11275
  -19.2303   -2.5880   32.0831 LP  0  0  0  0  0  0  0  0  0  0  0  0  # atno 16558 bound_to 11278
  -19.9056   -4.1374   32.4615 LP  0  0  0  0  0  0  0  0  0  0  0  0  # atno 16559 bound_to 11278
  -17.7425   -8.4918   25.6635 LP  0  0  0  0  0  0  0  0  0  0  0  0  # atno 16561 bound_to 9430
  -21.5219   -6.9501   32.1421 LP  0  0  0  0  0  0  0  0  0  0  0  0  # atno 16562 bound_to 11325
  -20.8769   -5.5977   31.2731 LP  0  0  0  0  0  0  0  0  0  0  0  0  # atno 16563 bound_to 11325
  -21.9204   -4.2431   31.7961 LP  0  0  0  0  0  0  0  0  0  0  0  0  # atno 16564 bound_to 11474
  -19.9873   -6.0860   33.2795 LP  0  0  0  0  0  0  0  0  0  0  0  0  # atno 16565 bound_to 11366
  -21.0647   -8.6768   27.6598 LP  0  0  0  0  0  0  0  0  0  0  0  0  # atno 16566 bound_to 9387
  -21.2106   -8.8157   25.9395 LP  0  0  0  0  0  0  0  0  0  0  0  0  # atno 16567 bound_to 9387
  -19.0427  -10.6324   30.8105 LP  0  0  0  0  0  0  0  0  0  0  0  0  # atno 16568 bound_to 11550
  -19.4324  -11.4205   32.1866 LP  0  0  0  0  0  0  0  0  0  0  0  0  # atno 16569 bound_to 11550
  -19.1438  -10.5968   25.3004 LP  0  0  0  0  0  0  0  0  0  0  0  0  # atno 16570 bound_to 9345
  -18.7251  -12.2223   24.8734 LP  0  0  0  0  0  0  0  0  0  0  0  0  # atno 16571 bound_to 9345
  -13.7342  -12.7496   24.2058 LP  0  0  0  0  0  0  0  0  0  0  0  0  # atno 16572 bound_to 9348
  -15.0034  -13.7317   23.9040 LP  0  0  0  0  0  0  0  0  0  0  0  0  # atno 16573 bound_to 9348
  -19.3549   -8.7232   23.2962 LP  0  0  0  0  0  0  0  0  0  0  0  0  # atno 16574 bound_to 9481
   -9.2737   -4.0025   15.6756 LP  0  0  0  0  0  0  0  0  0  0  0  0  # atno 16579 bound_to 5720
   -7.6658   -3.4294   15.9692 LP  0  0  0  0  0  0  0  0  0  0  0  0  # atno 16580 bound_to 5720
   -1.8227   -9.2083   21.9646 LP  0  0  0  0  0  0  0  0  0  0  0  0  # atno 16587 bound_to 15466
   -2.0934  -10.8168   21.8881 LP  0  0  0  0  0  0  0  0  0  0  0  0  # atno 16588 bound_to 15466
  -11.1286  -10.7866   17.0646 LP  0  0  0  0  0  0  0  0  0  0  0  0  # atno 16591 bound_to 7831
   -2.7630  -13.1002   27.0298 LP  0  0  0  0  0  0  0  0  0  0  0  0  # atno 16592 bound_to 1821
   -3.9136  -13.8562   25.9788 LP  0  0  0  0  0  0  0  0  0  0  0  0  # atno 16593 bound_to 1821
   -7.4175  -12.6010   18.7181 LP  0  0  0  0  0  0  0  0  0  0  0  0  # atno 16594 bound_to 7834
   -7.7214  -13.5060   17.2729 LP  0  0  0  0  0  0  0  0  0  0  0  0  # atno 16595 bound_to 7834
   -9.7068   -8.0075   14.5699 LP  0  0  0  0  0  0  0  0  0  0  0  0  # atno 16596 bound_to 5717
   -7.4438   -5.4241   15.9386 LP  0  0  0  0  0  0  0  0  0  0  0  0  # atno 16597 bound_to 5767
   -0.1121  -12.7524   18.6077 LP  0  0  0  0  0  0  0  0  0  0  0  0  # atno 16600 bound_to 1745
   -1.0836  -13.0015   20.0199 LP  0  0  0  0  0  0  0  0  0  0  0  0  # atno 16601 bound_to 1745
   -1.7325  -13.7003   24.2580 LP  0  0  0  0  0  0  0  0  0  0  0  0  # atno 16602 bound_to 1818
   -3.9877   -5.5827   13.2871 LP  0  0  0  0  0  0  0  0  0  0  0  0  # atno 16603 bound_to 5772
   -4.7731   -6.7217   14.1544 LP  0  0  0  0  0  0  0  0  0  0  0  0  # atno 16604 bound_to 5772
    1.2597   -7.4513   17.0717 LP  0  0  0  0  0  0  0  0  0  0  0  0  # atno 16605 bound_to 15403
    1.0275  -13.3662   20.7981 LP  0  0  0  0  0  0  0  0  0  0  0  0  # atno 16606 bound_to 1791
   -3.9090  -10.7960   13.8940 LP  0  0  0  0  0  0  0  0  0  0  0  0  # atno 16607 bound_to 5617
   -6.1596   -7.4461   14.0941 LP  0  0  0  0  0  0  0  0  0  0  0  0  # atno 16608 bound_to 5620
   -5.9120   -7.7199   12.4019 LP  0  0  0  0  0  0  0  0  0  0  0  0  # atno 16609 bound_to 5620
  -10.1887  -10.9453   14.8634 LP  0  0  0  0  0  0  0  0  0  0  0  0  # atno 16610 bound_to 7788
   -9.1441   -9.7599   15.5730 LP  0  0  0  0  0  0  0  0  0  0  0  0  # atno 16611 bound_to 7788
  -10.6115  -12.7405   18.3182 LP  0  0  0  0  0  0  0  0  0  0  0  0  # atno 16612 bound_to 7874
    0.9171  -16.0244   24.1704 LP  0  0  0  0  0  0  0  0  0  0  0  0  # atno 16613 bound_to 1794
    0.0406  -16.5394   22.7680 LP  0  0  0  0  0  0  0  0  0  0  0  0  # atno 16614 bound_to 1794
   -1.2718  -13.9507   28.0320 LP  0  0  0  0  0  0  0  0  0  0  0  0  # atno 16615 bound_to 1824
    0.2455  -13.8165   28.6206 LP  0  0  0  0  0  0  0  0  0  0  0  0  # atno 16616 bound_to 1824
   -1.8623  -16.0108   27.4920 LP  0  0  0  0  0  0  0  0  0  0  0  0  # atno 16617 bound_to 1854
  -15.8150  -13.9048   27.9192 LP  0  0  0  0  0  0  0  0  0  0  0  0  # atno 16622 bound_to 9318
  -15.3150  -15.4654   27.3584 LP  0  0  0  0  0  0  0  0  0  0  0  0  # atno 16623 bound_to 9318
  -16.5533  -14.4057   25.7650 LP  0  0  0  0  0  0  0  0  0  0  0  0  # atno 16624 bound_to 9342
  -21.9171   -7.4871   23.5541 LP  0  0  0  0  0  0  0  0  0  0  0  0  # atno 16627 bound_to 9433
  -21.0308   -7.7132   22.0832 LP  0  0  0  0  0  0  0  0  0  0  0  0  # atno 16628 bound_to 9433
  -17.6354   -7.6656   17.3171 LP  0  0  0  0  0  0  0  0  0  0  0  0  # atno 16629 bound_to 9492
  -16.1445   -8.0361   17.8708 LP  0  0  0  0  0  0  0  0  0  0  0  0  # atno 16630 bound_to 9492
  -16.6486  -12.5096   20.2391 LP  0  0  0  0  0  0  0  0  0  0  0  0  # atno 16631 bound_to 7667
  -17.9805  -12.6868   19.1461 LP  0  0  0  0  0  0  0  0  0  0  0  0  # atno 16632 bound_to 7667
  -15.0786  -13.5115   18.8778 LP  0  0  0  0  0  0  0  0  0  0  0  0  # atno 16634 bound_to 7723
  -12.0476  -12.1755   16.5453 LP  0  0  0  0  0  0  0  0  0  0  0  0  # atno 16635 bound_to 7726
  -13.5861  -12.9411   16.3290 LP  0  0  0  0  0  0  0  0  0  0  0  0  # atno 16636 bound_to 7726
  -21.1049   -5.5674   16.8760 LP  0  0  0  0  0  0  0  0  0  0  0  0  # atno 16637 bound_to 10539
  -19.6935   -6.1637   16.0683 LP  0  0  0  0  0  0  0  0  0  0  0  0  # atno 16638 bound_to 10539
   -5.0669  -15.3426   32.2773 LP  0  0  0  0  0  0  0  0  0  0  0  0  # atno 16639 bound_to 1884
   -6.3467  -15.7141   33.2213 LP  0  0  0  0  0  0  0  0  0  0  0  0  # atno 16640 bound_to 1884
  -18.4528  -17.1175   27.5805 LP  0  0  0  0  0  0  0  0  0  0  0  0  # atno 16641 bound_to 9315
   -4.8567  -16.1425   30.1606 LP  0  0  0  0  0  0  0  0  0  0  0  0  # atno 16642 bound_to 1879
   -1.6119  -16.7144   28.9679 LP  0  0  0  0  0  0  0  0  0  0  0  0  # atno 16643 bound_to 1857
   -2.0145  -16.9901   30.6298 LP  0  0  0  0  0  0  0  0  0  0  0  0  # atno 16644 bound_to 1857
  -18.1928  -18.2714   23.5600 LP  0  0  0  0  0  0  0  0  0  0  0  0  # atno 16645 bound_to 7565
  -17.5518  -16.8016   22.9051 LP  0  0  0  0  0  0  0  0  0  0  0  0  # atno 16646 bound_to 7565
  -20.1364  -18.3173   26.5203 LP  0  0  0  0  0  0  0  0  0  0  0  0  # atno 16647 bound_to 9289
  -20.2066  -16.6134   26.8230 LP  0  0  0  0  0  0  0  0  0  0  0  0  # atno 16648 bound_to 9289
  -17.9129  -18.8266   30.9469 LP  0  0  0  0  0  0  0  0  0  0  0  0  # atno 16649 bound_to 9236
  -18.9330  -19.2887   32.2681 LP  0  0  0  0  0  0  0  0  0  0  0  0  # atno 16650 bound_to 9236
  -20.5542  -18.6589   28.7740 LP  0  0  0  0  0  0  0  0  0  0  0  0  # atno 16653 bound_to 9286
  -21.2478  -21.1011   32.0873 LP  0  0  0  0  0  0  0  0  0  0  0  0  # atno 16654 bound_to 9233
  -11.6217  -22.6796   34.5261 LP  0  0  0  0  0  0  0  0  0  0  0  0  # atno 16655 bound_to 3365
  -11.2527  -23.8832   33.3365 LP  0  0  0  0  0  0  0  0  0  0  0  0  # atno 16656 bound_to 3365
   -8.3697  -24.8609   36.8113 LP  0  0  0  0  0  0  0  0  0  0  0  0  # atno 16657 bound_to 3362
   -5.2249  -19.3540   30.2225 LP  0  0  0  0  0  0  0  0  0  0  0  0  # atno 16658 bound_to 1922

> <Gold.Score>
     Fitness  S(hb_ext) S(vdw_ext)  S(hb_int)    S(int)      intcor
     29.85       0.77      21.68       0.00      -0.73      -0.76

> <Gold.Goldscore.Fitness>
29.8522

> <Gold.Goldscore.Internal.Vdw>
-1.0649

> <Gold.Goldscore.Internal.Torsion>
-0.4276

> <Gold.Goldscore.External.Vdw>
21.6817

> <Gold.Goldscore.Internal.HBond>
0.0000

> <Gold.Goldscore.External.HBond>
0.7739

> <Gold.Goldscore.Internal.Correction>
-0.7585

> <Gold.Goldscore.Hbonds>
donor molecule, donor type, donor heavy atom, donor atom, acceptor molecule, acceptor atom, score
      P1  H 10948 10978       L1    11  0.39

> <Gold.Goldscore.Internal.Vdw.Weighted>
-1.0649

> <Gold.Goldscore.Internal.Torsion.Weighted>
-0.4276

> <Gold.Goldscore.External.Vdw.Weighted>
29.8123

> <Gold.Goldscore.Internal.HBond.Weighted>
0.0000

> <Gold.Goldscore.External.HBond.Weighted>
0.7739

> <Gold.Goldscore.Internal.Correction.Weighted>
-0.7585

> <Gold.Rescore>
     Score     S(PLP)   S(hbond)     S(cho)   S(metal)  DE(clash)   DE(tors)     intcor
     28.01     -28.22       0.00       0.00       0.00       0.00       0.10       ----

> <Gold.PLP.Fitness>
28.0125

> <Gold.PLP.PLP>
-28.2207

> <Gold.PLP.part.hbond>
0.0000

> <Gold.PLP.part.metal>
0.0000

> <Gold.PLP.part.buried>
-1.6961

> <Gold.PLP.part.nonpolar>
-28.9049

> <Gold.PLP.part.repulsive>
1.5415

> <Gold.PLP.ligand.clash>
0.0000

> <Gold.PLP.ligand.torsion>
0.1041

> <Gold.PLP.Chemscore.Hbond>
0.0000

> <Gold.PLP.Chemscore.CHOScore>
0.0000

> <Gold.PLP.Chemscore.Metal>
0.0000

> <Gold.PLP.Chemscore.Internal.Correction>
   9.000000E+99

