#       Name:                CT1002167954
#       Creating user name   hitesit
#       Creation time:       Sun Apr 16 20:17:40 2023


#       File generated by GOLD software.
#

@<TRIPOS>MOLECULE
CT1002167954|ligand_prepared|mol2|1|dock4
    29    30     1
SMALL
NO_CHARGES


@<TRIPOS>ATOM
      1 C1         -13.0593   4.9357  16.5354 C.3            1 RES1               0.0000
      2 C2         -12.6399   3.7374  17.4111 C.ar           1 RES1               0.0000
      3 C3         -14.0902   4.4025  15.5449 C.2            1 RES1               0.0000
      4 C4         -13.6028   5.9926  17.4905 C.2            1 RES1               0.0000
      5 C5         -11.8931   5.5660  15.7390 C.3            1 RES1               0.0000
      6 C6         -13.4734   3.2746  18.4249 C.ar           1 RES1               0.0000
      7 C7         -11.4260   3.0841  17.2158 C.ar           1 RES1               0.0000
      8 N8         -15.3957   4.7402  15.7486 N.am           1 RES1               0.0000
      9 O9         -13.7676   3.6646  14.6220 O.2            1 RES1               0.0000
     10 N10        -14.9327   6.3119  17.4054 N.am           1 RES1               0.0000
     11 O11        -12.8951   6.5397  18.3272 O.2            1 RES1               0.0000
     12 C12        -12.2447   6.8919  15.0828 C.3            1 RES1               0.0000
     13 C13        -13.1081   2.1958  19.2130 C.ar           1 RES1               0.0000
     14 C14        -11.0624   2.0056  18.0052 C.ar           1 RES1               0.0000
     15 C15        -15.8604   5.7115  16.5985 C.2            1 RES1               0.0000
     16 C16        -11.9027   1.5603  19.0034 C.ar           1 RES1               0.0000
     17 O17        -17.0494   6.0164  16.6178 O.2            1 RES1               0.0000
     18 H18        -11.0455   5.7218  16.4178 H              1 RES1               0.0000
     19 H19        -11.5747   4.8608  14.9614 H              1 RES1               0.0000
     20 H20        -14.4248   3.7635  18.6062 H              1 RES1               0.0000
     21 H21        -10.7486   3.4177  16.4370 H              1 RES1               0.0000
     22 H22        -16.0908   4.2226  15.2201 H              1 RES1               0.0000
     23 H23        -15.2616   7.0672  17.9985 H              1 RES1               0.0000
     24 H24        -11.3919   7.2904  14.5373 H              1 RES1               0.0000
     25 H25        -13.0680   6.7691  14.3821 H              1 RES1               0.0000
     26 H26        -12.5419   7.6251  15.8298 H              1 RES1               0.0000
     27 H27        -13.7723   1.8501  19.9982 H              1 RES1               0.0000
     28 H28        -10.1126   1.5089  17.8371 H              1 RES1               0.0000
     29 H29        -11.6169   0.7150  19.6207 H              1 RES1               0.0000
@<TRIPOS>BOND
    1    1    2 1     
    2    1    3 1     
    3    1    4 1     
    4    1    5 1     
    5    2    6 ar    
    6    2    7 ar    
    7    3    8 1     
    8    3    9 2     
    9    4   10 1     
   10    4   11 2     
   11    5   12 1     
   12    5   18 1     
   13    5   19 1     
   14    6   13 ar    
   15    6   20 1     
   16    7   14 ar    
   17    7   21 1     
   18    8   15 1     
   19    8   22 1     
   20   10   15 1     
   21   10   23 1     
   22   12   24 1     
   23   12   25 1     
   24   12   26 1     
   25   13   16 ar    
   26   13   27 1     
   27   14   16 ar    
   28   14   28 1     
   29   15   17 2     
   30   16   29 1     
@<TRIPOS>SUBSTRUCTURE
      1 RES1           1
@<TRIPOS>SET
DONOR_HYDROGENS      STATIC     ATOMS    <user>   **** ""
2 22 23
ATOM$RED        STATIC     ATOMS    COLORGROUP SYSTEM
2 22 23
@<TRIPOS>COMMENT
> <Gold.Version>
2022.3.0

> <Gold.Id.Protein>
unknown|3mvj_clean|pdb

> <Gold.Protein.RotatedTorsions>
[ 11816 11799 11798 11795 ] final  -97.81 input   60.01 | X-H torsion
[ 11879 11856 11855 11854 ] final  169.38 input   60.02 | X-H torsion
[ 10986 10959 10958 10956 ] final  145.47 input   60.00 | X-H torsion
[ 10978 10948 10949 10950 ] final  162.12 input   32.02 | X-H torsion
[ 10745 10719 10718 10716 ] final  -89.68 input   60.01 | X-H torsion
[ 12083 12056 12057 12058 ] final   38.39 input   63.02 | X-H torsion
[ 10921 10911 10912 10913 ] final   35.95 input  -92.90 | X-H torsion
[ 6177 6140 6141 6142 ] final  -63.78 input   39.58 | X-H torsion
[ 6115 6105 6106 6107 ] final -110.48 input  -69.34 | X-H torsion
[ 5955 5918 5919 5920 ] final   -7.66 input  125.26 | X-H torsion
[ 6027 5990 5991 5992 ] final  137.76 input  110.40 | X-H torsion
[ 6086 6056 6057 6058 ] final  110.69 input  107.04 | X-H torsion
[ 11660 11631 11630 11629 ] final  101.05 input   60.02 | X-H torsion
[ 11213 11201 11202 11203 ] final  -51.19 input   18.84 | X-H torsion
[ 11249 11237 11238 11239 ] final  174.87 input  111.29 | X-H torsion
[ 11182 11153 11154 11155 ] final  171.51 input   30.50 | X-H torsion
[ 11292 11275 11276 11277 ] final   25.13 input   58.53 | X-H torsion
[ 9445 9430 9431 9432 ] final  -40.19 input  110.06 | X-H torsion
[ 11493 11474 11475 11476 ] final  -49.72 input  115.95 | X-H torsion
[ 11385 11366 11367 11368 ] final -164.59 input  117.79 | X-H torsion
[ 11568 11550 11549 11547 ] final    1.17 input   59.97 | X-H torsion
[ 9362 9348 9346 9343 ] final -166.10 input   60.02 | X-H torsion
[ 9502 9481 9482 9483 ] final  -81.53 input   75.78 | X-H torsion
[ 15476 15466 15465 15463 ] final   77.05 input   60.00 | X-H torsion
[ 7768 7731 7730 7729 ] final  -59.02 input   60.02 | X-H torsion
[ 7852 7831 7832 7833 ] final   96.95 input  113.97 | X-H torsion
[ 5737 5717 5718 5719 ] final   91.29 input  137.93 | X-H torsion
[ 5778 5767 5768 5769 ] final   79.74 input  116.46 | X-H torsion
[ 1832 1818 1819 1820 ] final  -84.32 input   43.70 | X-H torsion
[ 5782 5772 5771 5768 ] final  123.18 input   59.97 | X-H torsion
[ 15411 15403 15404 15405 ] final   26.35 input  102.24 | X-H torsion
[ 1801 1791 1792 1793 ] final  -97.99 input  -10.55 | X-H torsion
[ 5638 5617 5618 5619 ] final -109.37 input   93.34 | X-H torsion
[ 7894 7874 7875 7876 ] final  -67.17 input   68.03 | X-H torsion
[ 1838 1824 1822 1819 ] final   42.82 input   60.02 | X-H torsion
[ 1861 1854 1855 1856 ] final   65.76 input   57.50 | X-H torsion
[ 9356 9342 9343 9344 ] final   11.72 input   55.58 | X-H torsion
[ 9510 9492 9491 9489 ] final  176.32 input   60.02 | X-H torsion
[ 7758 7723 7724 7725 ] final   45.74 input   17.81 | X-H torsion
[ 1898 1884 1883 1880 ] final  100.62 input   60.01 | X-H torsion
[ 9322 9315 9316 9317 ] final  168.89 input  -36.21 | X-H torsion
[ 1894 1879 1880 1881 ] final  -95.73 input   98.21 | X-H torsion
[ 9297 9286 9287 9288 ] final   94.71 input   37.00 | X-H torsion
[ 9252 9233 9234 9235 ] final   23.69 input   95.32 | X-H torsion
[ 3370 3362 3363 3364 ] final  100.80 input   97.92 | X-H torsion
[ 1951 1922 1923 1924 ] final -110.66 input  104.43 | X-H torsion
[ 12164 12148 12149 12150 ] final  159.66 input  116.04 | X-H torsion
[ 11673 11649 11648 11647 ] final  131.67 input   59.99 | X-H torsion
[ 12008 11984 11985 11986 ] final  162.23 input   61.04 | X-H torsion
[ 11122 11093 11094 11095 ] final   54.96 input   39.50 | X-H torsion
[ 7946 7916 7917 7918 ] final  163.62 input   66.66 | X-H torsion
[ 8659 8630 8631 8632 ] final    6.38 input   75.31 | X-H torsion
[ 9555 9536 9537 9538 ] final  -32.97 input  103.50 | X-H torsion
[ 16472 10886 10885 10884 ] final  143.38 input    0.00 | X-H torsion
[ 16475 11004 11003 11002 ] final  174.32 input    0.00 | X-H torsion
[ 16477 10914 10913 10912 ] final -110.97 input    0.00 | X-H torsion
[ 16479 10951 10950 10949 ] final  -40.97 input   -0.00 | X-H torsion
[ 16484 11987 11986 11985 ] final  153.09 input    0.00 | X-H torsion
[ 16486 12059 12058 12057 ] final  133.39 input   -0.00 | X-H torsion
[ 16490 11046 11045 11044 ] final  -46.61 input    0.00 | X-H torsion
[ 16500 6108 6107 6106 ] final   41.86 input    0.00 | X-H torsion
[ 16503 5921 5920 5919 ] final  -66.42 input   -0.00 | X-H torsion
[ 16506 6059 6058 6057 ] final -146.54 input    0.00 | X-H torsion
[ 16510 5858 5857 5856 ] final  -46.79 input    0.00 | X-H torsion
[ 16518 5993 5992 5991 ] final   85.41 input   -0.00 | X-H torsion
[ 16523 11156 11155 11154 ] final   41.83 input    0.00 | X-H torsion
[ 16528 11204 11203 11202 ] final  -84.61 input    0.00 | X-H torsion
[ 16540 11096 11095 11094 ] final  -97.38 input   -0.00 | X-H torsion
[ 16544 10768 10767 10766 ] final  -31.37 input   -0.00 | X-H torsion
[ 16552 11240 11239 11238 ] final   96.45 input    0.00 | X-H torsion
[ 16558 11278 11277 11276 ] final  164.02 input   -0.00 | X-H torsion
[ 16562 11325 11324 11323 ] final   57.13 input   -0.00 | X-H torsion
[ 16566 9387 9386 9385 ] final  -76.33 input   -0.00 | X-H torsion
[ 16570 9345 9344 9343 ] final  -82.01 input    0.00 | X-H torsion
[ 16579 5720 5719 5718 ] final   54.45 input    0.00 | X-H torsion
[ 16592 1821 1820 1819 ] final  -46.82 input    0.00 | X-H torsion
[ 16594 7834 7833 7832 ] final   61.40 input    0.00 | X-H torsion
[ 16600 1745 1744 1743 ] final  -73.65 input    0.00 | X-H torsion
[ 16608 5620 5619 5618 ] final  172.63 input   -0.00 | X-H torsion
[ 16610 7788 7787 7786 ] final   64.32 input   -0.00 | X-H torsion
[ 16613 1794 1793 1792 ] final  161.01 input   -0.00 | X-H torsion
[ 16622 9318 9317 9316 ] final    6.81 input   -0.00 | X-H torsion
[ 16627 9433 9432 9431 ] final  123.57 input    0.00 | X-H torsion
[ 16631 7667 7666 7665 ] final  -15.68 input   -0.00 | X-H torsion
[ 16635 7726 7725 7724 ] final -178.92 input    0.00 | X-H torsion
[ 16637 10539 10538 10537 ] final  148.57 input   -0.00 | X-H torsion
[ 16643 1857 1856 1855 ] final   29.17 input    0.00 | X-H torsion
[ 16645 7565 7564 7563 ] final   88.40 input    0.00 | X-H torsion
[ 16647 9289 9288 9287 ] final -105.80 input    0.00 | X-H torsion
[ 16649 9236 9235 9234 ] final  -35.47 input    0.00 | X-H torsion
[ 16655 3365 3364 3363 ] final  129.00 input    0.00 | X-H torsion

> <Gold.Protein.ActiveResidues>
 LEU49   GLY50   THR51   GLY52   SER53   PHE54   VAL57   LEU82   LYS83   GLN84  
 HIS87   GLU127  PHE129  SER130  LEU132  ARG133  ARG134  ILE135  GLY136  ARG137 
 ARG165  ASP166  LEU167  LYS168  PRO169  GLU170  ASN171  LEU172  LEU173  ASP184 
 GLY186  PHE187  TPO197  LEU198  CYS199  GLY200  THR201  PRO202  GLU203  TYR204 
 LEU205  ILE209  ILE210  VAL226  LEU227  TYR229  GLU230  ALA233  GLY234  TYR235 
 PRO236  PRO237  PHE238  PHE239  ALA240  ASP241  GLN242  PRO243  ILE244  GLN245 
 ILE246  TYR247  GLU248  LYS249  ILE250  VAL251  SER252  LYS254  ARG256  PHE257 
 PRO258  SER259  PHE327  ASP328  TYR330 

> <Gold.Protein.RotatedAtoms>
    1.4029  -13.4264   21.3672 H   0  0  0  0  0  0  0  0  0  0  0  0  # atno 1801 bound_to 1791
   -1.2990  -14.7017   23.7025 H   0  0  0  0  0  0  0  0  0  0  0  0  # atno 1832 bound_to 1818
   -1.1399  -15.0342   28.3523 H   0  0  0  0  0  0  0  0  0  0  0  0  # atno 1838 bound_to 1824
   -2.3463  -16.9376   26.8571 H   0  0  0  0  0  0  0  0  0  0  0  0  # atno 1861 bound_to 1854
   -3.7229  -16.6092   29.7371 H   0  0  0  0  0  0  0  0  0  0  0  0  # atno 1894 bound_to 1879
   -6.6633  -16.0139   31.8752 H   0  0  0  0  0  0  0  0  0  0  0  0  # atno 1898 bound_to 1884
   -4.4063  -19.4806   31.5173 H   0  0  0  0  0  0  0  0  0  0  0  0  # atno 1951 bound_to 1922
   -7.2695  -24.3593   35.6275 H   0  0  0  0  0  0  0  0  0  0  0  0  # atno 3370 bound_to 3362
   -4.2353  -10.8137   12.8525 H   0  0  0  0  0  0  0  0  0  0  0  0  # atno 5638 bound_to 5617
   -8.2288   -8.3015   14.8421 H   0  0  0  0  0  0  0  0  0  0  0  0  # atno 5737 bound_to 5717
   -6.5375   -6.4768   14.9014 H   0  0  0  0  0  0  0  0  0  0  0  0  # atno 5778 bound_to 5767
   -3.2603   -5.7845   13.5703 H   0  0  0  0  0  0  0  0  0  0  0  0  # atno 5782 bound_to 5772
   -8.9140   -1.3468   13.9728 H   0  0  0  0  0  0  0  0  0  0  0  0  # atno 5955 bound_to 5918
   -6.6255   -0.5214   14.6490 H   0  0  0  0  0  0  0  0  0  0  0  0  # atno 6027 bound_to 5990
   -7.8537    0.3991   11.8286 H   0  0  0  0  0  0  0  0  0  0  0  0  # atno 6086 bound_to 6056
   -9.5225    1.9438   13.0619 H   0  0  0  0  0  0  0  0  0  0  0  0  # atno 6115 bound_to 6105
  -12.1659    1.7444   11.5984 H   0  0  0  0  0  0  0  0  0  0  0  0  # atno 6177 bound_to 6140
  -14.3839  -13.5824   18.0504 H   0  0  0  0  0  0  0  0  0  0  0  0  # atno 7758 bound_to 7723
  -11.5394  -11.6385   23.9770 H   0  0  0  0  0  0  0  0  0  0  0  0  # atno 7768 bound_to 7731
  -12.9020  -12.4424   24.4713 H   0  0  0  0  0  0  0  0  0  0  0  0  # atno 7769 bound_to 7731
  -11.4496  -13.2392   24.3989 H   0  0  0  0  0  0  0  0  0  0  0  0  # atno 7770 bound_to 7731
  -11.3955  -10.2784   18.3348 H   0  0  0  0  0  0  0  0  0  0  0  0  # atno 7852 bound_to 7831
   -9.4949  -12.3469   17.1270 H   0  0  0  0  0  0  0  0  0  0  0  0  # atno 7894 bound_to 7874
  -11.0614  -13.6577   15.4893 H   0  0  0  0  0  0  0  0  0  0  0  0  # atno 7946 bound_to 7916
  -13.5876  -22.8643   22.4341 H   0  0  0  0  0  0  0  0  0  0  0  0  # atno 8659 bound_to 8630
  -20.5864  -21.2286   31.2939 H   0  0  0  0  0  0  0  0  0  0  0  0  # atno 9252 bound_to 9233
  -20.1866  -19.6690   28.9734 H   0  0  0  0  0  0  0  0  0  0  0  0  # atno 9297 bound_to 9286
  -18.2579  -17.5891   27.1188 H   0  0  0  0  0  0  0  0  0  0  0  0  # atno 9322 bound_to 9315
  -18.0626  -13.5657   25.5022 H   0  0  0  0  0  0  0  0  0  0  0  0  # atno 9356 bound_to 9342
  -13.8696  -12.8116   23.9537 H   0  0  0  0  0  0  0  0  0  0  0  0  # atno 9362 bound_to 9348
  -19.2413   -9.0566   26.1090 H   0  0  0  0  0  0  0  0  0  0  0  0  # atno 9445 bound_to 9430
  -20.3069   -8.7634   23.8934 H   0  0  0  0  0  0  0  0  0  0  0  0  # atno 9502 bound_to 9481
  -17.3578   -7.9519   17.2145 H   0  0  0  0  0  0  0  0  0  0  0  0  # atno 9510 bound_to 9492
  -21.8656  -10.9486   23.6083 H   0  0  0  0  0  0  0  0  0  0  0  0  # atno 9555 bound_to 9536
  -24.0632    1.0214   18.9066 H   0  0  0  0  0  0  0  0  0  0  0  0  # atno 10745 bound_to 10719
  -17.7786    1.1981   14.8533 H   0  0  0  0  0  0  0  0  0  0  0  0  # atno 10921 bound_to 10911
  -16.3502    1.4453   16.8303 H   0  0  0  0  0  0  0  0  0  0  0  0  # atno 10978 bound_to 10948
  -21.4561    5.7607   17.3980 H   0  0  0  0  0  0  0  0  0  0  0  0  # atno 10986 bound_to 10959
  -22.2140   -3.1740   22.3112 H   0  0  0  0  0  0  0  0  0  0  0  0  # atno 11122 bound_to 11093
  -21.1210   -1.8288   24.5537 H   0  0  0  0  0  0  0  0  0  0  0  0  # atno 11182 bound_to 11153
  -18.3149   -0.5652   27.6352 H   0  0  0  0  0  0  0  0  0  0  0  0  # atno 11213 bound_to 11201
  -17.7642    1.5717   30.9917 H   0  0  0  0  0  0  0  0  0  0  0  0  # atno 11249 bound_to 11237
  -18.0490   -1.2103   32.5242 H   0  0  0  0  0  0  0  0  0  0  0  0  # atno 11292 bound_to 11275
  -19.5984   -6.6608   34.3998 H   0  0  0  0  0  0  0  0  0  0  0  0  # atno 11385 bound_to 11366
  -22.9224   -3.2402   31.5103 H   0  0  0  0  0  0  0  0  0  0  0  0  # atno 11493 bound_to 11474
  -19.0007  -10.5460   30.8265 H   0  0  0  0  0  0  0  0  0  0  0  0  # atno 11568 bound_to 11550
   -8.7359    9.1371   27.0198 H   0  0  0  0  0  0  0  0  0  0  0  0  # atno 11660 bound_to 11631
   -9.2416    7.9629   25.9656 H   0  0  0  0  0  0  0  0  0  0  0  0  # atno 11661 bound_to 11631
   -7.8627    8.8241   25.6458 H   0  0  0  0  0  0  0  0  0  0  0  0  # atno 11662 bound_to 11631
  -23.8660    2.9925   28.2474 H   0  0  0  0  0  0  0  0  0  0  0  0  # atno 11673 bound_to 11649
  -25.3607    2.5741   27.6644 H   0  0  0  0  0  0  0  0  0  0  0  0  # atno 11674 bound_to 11649
  -24.8958    2.0863   29.1788 H   0  0  0  0  0  0  0  0  0  0  0  0  # atno 11675 bound_to 11649
  -12.3943   15.5165   22.4494 H   0  0  0  0  0  0  0  0  0  0  0  0  # atno 11816 bound_to 11799
  -18.2114   16.3388   24.5229 H   0  0  0  0  0  0  0  0  0  0  0  0  # atno 11879 bound_to 11856
  -16.8343   15.5830   23.9934 H   0  0  0  0  0  0  0  0  0  0  0  0  # atno 11880 bound_to 11856
  -17.6944   14.9464   25.2596 H   0  0  0  0  0  0  0  0  0  0  0  0  # atno 11881 bound_to 11856
  -28.9364    1.3674   20.5650 H   0  0  0  0  0  0  0  0  0  0  0  0  # atno 12008 bound_to 11984
  -28.2842    3.9915   16.8009 H   0  0  0  0  0  0  0  0  0  0  0  0  # atno 12083 bound_to 12056
  -25.0629    7.7834   13.5972 H   0  0  0  0  0  0  0  0  0  0  0  0  # atno 12164 bound_to 12148
    1.6615   -8.8920   17.8691 H   0  0  0  0  0  0  0  0  0  0  0  0  # atno 15411 bound_to 15403
   -1.8559  -10.9523   21.4038 H   0  0  0  0  0  0  0  0  0  0  0  0  # atno 15476 bound_to 15466
  -13.5121   15.7682   23.6049 LP  0  0  0  0  0  0  0  0  0  0  0  0  # atno 16466 bound_to 11799
  -12.9921   17.0118   22.6831 LP  0  0  0  0  0  0  0  0  0  0  0  0  # atno 16467 bound_to 11799
  -22.4949    4.7354   18.1178 LP  0  0  0  0  0  0  0  0  0  0  0  0  # atno 16468 bound_to 10959
  -22.0489    4.4941   16.5656 LP  0  0  0  0  0  0  0  0  0  0  0  0  # atno 16469 bound_to 10959
  -16.8876    3.2263   15.1518 LP  0  0  0  0  0  0  0  0  0  0  0  0  # atno 16472 bound_to 10886
  -17.8178    3.7108   13.7734 LP  0  0  0  0  0  0  0  0  0  0  0  0  # atno 16473 bound_to 10886
  -17.2977    0.0528   16.3450 LP  0  0  0  0  0  0  0  0  0  0  0  0  # atno 16474 bound_to 10948
  -21.5128   -0.1652   21.1546 LP  0  0  0  0  0  0  0  0  0  0  0  0  # atno 16475 bound_to 11004
  -19.7836   -0.2619   21.1828 LP  0  0  0  0  0  0  0  0  0  0  0  0  # atno 16476 bound_to 11004
  -14.2435    0.3216   17.6973 LP  0  0  0  0  0  0  0  0  0  0  0  0  # atno 16477 bound_to 10914
  -14.2675    1.9938   17.2463 LP  0  0  0  0  0  0  0  0  0  0  0  0  # atno 16478 bound_to 10914
  -19.5172    0.1617   17.3400 LP  0  0  0  0  0  0  0  0  0  0  0  0  # atno 16479 bound_to 10951
  -19.5662   -1.5667   17.4415 LP  0  0  0  0  0  0  0  0  0  0  0  0  # atno 16480 bound_to 10951
  -24.6899    1.5626   17.5060 LP  0  0  0  0  0  0  0  0  0  0  0  0  # atno 16482 bound_to 10719
  -23.1011    1.7640   17.8247 LP  0  0  0  0  0  0  0  0  0  0  0  0  # atno 16483 bound_to 10719
  -25.9951    1.3555   17.0576 LP  0  0  0  0  0  0  0  0  0  0  0  0  # atno 16484 bound_to 11987
  -25.9794    1.6489   18.7646 LP  0  0  0  0  0  0  0  0  0  0  0  0  # atno 16485 bound_to 11987
  -26.4437    6.1768   15.6647 LP  0  0  0  0  0  0  0  0  0  0  0  0  # atno 16486 bound_to 12059
  -27.7945    5.4343   14.8748 LP  0  0  0  0  0  0  0  0  0  0  0  0  # atno 16487 bound_to 12059
  -24.3941    0.0360   21.8989 LP  0  0  0  0  0  0  0  0  0  0  0  0  # atno 16490 bound_to 11046
  -24.9909   -1.1519   23.0092 LP  0  0  0  0  0  0  0  0  0  0  0  0  # atno 16491 bound_to 11046
  -27.7396    2.4169   17.3258 LP  0  0  0  0  0  0  0  0  0  0  0  0  # atno 16492 bound_to 12056
  -17.0672    0.3216   13.5151 LP  0  0  0  0  0  0  0  0  0  0  0  0  # atno 16493 bound_to 10911
  -13.1059    1.4706   14.5441 LP  0  0  0  0  0  0  0  0  0  0  0  0  # atno 16500 bound_to 6108
  -13.2720    0.2954   13.2827 LP  0  0  0  0  0  0  0  0  0  0  0  0  # atno 16501 bound_to 6108
  -13.2362    3.1082   11.8222 LP  0  0  0  0  0  0  0  0  0  0  0  0  # atno 16502 bound_to 6140
   -9.2977    2.1326   15.0343 LP  0  0  0  0  0  0  0  0  0  0  0  0  # atno 16503 bound_to 5921
   -7.8234    2.4882   15.8708 LP  0  0  0  0  0  0  0  0  0  0  0  0  # atno 16504 bound_to 5921
  -10.1443    2.3705   11.4820 LP  0  0  0  0  0  0  0  0  0  0  0  0  # atno 16505 bound_to 6105
  -10.2299    4.7330   11.7630 LP  0  0  0  0  0  0  0  0  0  0  0  0  # atno 16506 bound_to 6059
   -9.8457    4.3022   10.1300 LP  0  0  0  0  0  0  0  0  0  0  0  0  # atno 16507 bound_to 6059
   -9.9527    0.2687   12.6108 LP  0  0  0  0  0  0  0  0  0  0  0  0  # atno 16510 bound_to 5858
  -10.5630    0.5039   14.2146 LP  0  0  0  0  0  0  0  0  0  0  0  0  # atno 16511 bound_to 5858
   -9.4715   -2.3884   15.2588 LP  0  0  0  0  0  0  0  0  0  0  0  0  # atno 16516 bound_to 5918
   -7.9886    0.5810   14.6793 LP  0  0  0  0  0  0  0  0  0  0  0  0  # atno 16517 bound_to 5990
   -6.0178    3.6169   11.8730 LP  0  0  0  0  0  0  0  0  0  0  0  0  # atno 16518 bound_to 5993
   -7.4066    3.9593   12.8498 LP  0  0  0  0  0  0  0  0  0  0  0  0  # atno 16519 bound_to 5993
   -7.2186    1.9071   12.4234 LP  0  0  0  0  0  0  0  0  0  0  0  0  # atno 16520 bound_to 6056
  -21.7060    0.3069   26.9679 LP  0  0  0  0  0  0  0  0  0  0  0  0  # atno 16523 bound_to 11156
  -20.5798    1.4253   27.6614 LP  0  0  0  0  0  0  0  0  0  0  0  0  # atno 16524 bound_to 11156
  -19.8937   -1.1462   28.1288 LP  0  0  0  0  0  0  0  0  0  0  0  0  # atno 16525 bound_to 11201
  -16.8269   -1.6642   29.8023 LP  0  0  0  0  0  0  0  0  0  0  0  0  # atno 16528 bound_to 11204
  -16.0570   -0.2501   29.1639 LP  0  0  0  0  0  0  0  0  0  0  0  0  # atno 16529 bound_to 11204
  -18.0610   -0.1373   31.2062 LP  0  0  0  0  0  0  0  0  0  0  0  0  # atno 16530 bound_to 11237
  -21.8669   -0.9660   25.8818 LP  0  0  0  0  0  0  0  0  0  0  0  0  # atno 16533 bound_to 11153
  -20.7129   -4.1306   25.4166 LP  0  0  0  0  0  0  0  0  0  0  0  0  # atno 16540 bound_to 11096
  -20.2141   -3.5987   23.8455 LP  0  0  0  0  0  0  0  0  0  0  0  0  # atno 16541 bound_to 11096
  -17.0601   -1.2565   14.9410 LP  0  0  0  0  0  0  0  0  0  0  0  0  # atno 16544 bound_to 10768
  -15.9429   -2.1144   13.9330 LP  0  0  0  0  0  0  0  0  0  0  0  0  # atno 16545 bound_to 10768
  -14.4576   -1.5042   33.3740 LP  0  0  0  0  0  0  0  0  0  0  0  0  # atno 16552 bound_to 11240
  -14.7907   -1.9622   31.7372 LP  0  0  0  0  0  0  0  0  0  0  0  0  # atno 16553 bound_to 11240
  -16.4756   -0.8329   33.1849 LP  0  0  0  0  0  0  0  0  0  0  0  0  # atno 16554 bound_to 11275
  -19.5796   -4.1131   31.8400 LP  0  0  0  0  0  0  0  0  0  0  0  0  # atno 16558 bound_to 11278
  -19.5562   -2.6124   32.7046 LP  0  0  0  0  0  0  0  0  0  0  0  0  # atno 16559 bound_to 11278
  -17.7858   -8.0902   26.0169 LP  0  0  0  0  0  0  0  0  0  0  0  0  # atno 16561 bound_to 9430
  -20.8557   -7.0349   31.4778 LP  0  0  0  0  0  0  0  0  0  0  0  0  # atno 16562 bound_to 11325
  -21.5431   -5.5129   31.9373 LP  0  0  0  0  0  0  0  0  0  0  0  0  # atno 16563 bound_to 11325
  -21.2164   -3.6399   31.5112 LP  0  0  0  0  0  0  0  0  0  0  0  0  # atno 16564 bound_to 11474
  -19.9000   -5.0656   33.7750 LP  0  0  0  0  0  0  0  0  0  0  0  0  # atno 16565 bound_to 11366
  -21.2321   -9.5384   26.4626 LP  0  0  0  0  0  0  0  0  0  0  0  0  # atno 16566 bound_to 9387
  -21.0432   -7.9541   27.1367 LP  0  0  0  0  0  0  0  0  0  0  0  0  # atno 16567 bound_to 9387
  -19.4513  -11.4561   32.0980 LP  0  0  0  0  0  0  0  0  0  0  0  0  # atno 16568 bound_to 11550
  -18.7156  -10.0183   32.3392 LP  0  0  0  0  0  0  0  0  0  0  0  0  # atno 16569 bound_to 11550
  -18.5121  -10.9436   24.4915 LP  0  0  0  0  0  0  0  0  0  0  0  0  # atno 16570 bound_to 9345
  -19.3568  -11.8755   25.6823 LP  0  0  0  0  0  0  0  0  0  0  0  0  # atno 16571 bound_to 9345
  -15.1018  -13.8558   24.1513 LP  0  0  0  0  0  0  0  0  0  0  0  0  # atno 16572 bound_to 9348
  -14.2256  -13.3689   25.4404 LP  0  0  0  0  0  0  0  0  0  0  0  0  # atno 16573 bound_to 9348
  -18.8757   -9.7683   23.9447 LP  0  0  0  0  0  0  0  0  0  0  0  0  # atno 16574 bound_to 9481
   -8.7965   -3.8906   16.6051 LP  0  0  0  0  0  0  0  0  0  0  0  0  # atno 16579 bound_to 5720
   -8.1430   -3.5412   15.0396 LP  0  0  0  0  0  0  0  0  0  0  0  0  # atno 16580 bound_to 5720
   -1.2848   -9.5334   20.8487 LP  0  0  0  0  0  0  0  0  0  0  0  0  # atno 16587 bound_to 15466
   -2.0681   -9.5978   22.2801 LP  0  0  0  0  0  0  0  0  0  0  0  0  # atno 16588 bound_to 15466
  -10.6122   -9.9207   16.8050 LP  0  0  0  0  0  0  0  0  0  0  0  0  # atno 16591 bound_to 7831
   -2.6291  -13.0226   26.7031 LP  0  0  0  0  0  0  0  0  0  0  0  0  # atno 16592 bound_to 1821
   -4.0474  -13.9338   26.3055 LP  0  0  0  0  0  0  0  0  0  0  0  0  # atno 16593 bound_to 1821
   -7.5784  -12.9208   18.8512 LP  0  0  0  0  0  0  0  0  0  0  0  0  # atno 16594 bound_to 7834
   -7.5606  -13.1862   17.1397 LP  0  0  0  0  0  0  0  0  0  0  0  0  # atno 16595 bound_to 7834
   -9.4991   -7.3998   14.0328 LP  0  0  0  0  0  0  0  0  0  0  0  0  # atno 16596 bound_to 5717
   -7.3236   -5.5049   16.1265 LP  0  0  0  0  0  0  0  0  0  0  0  0  # atno 16597 bound_to 5767
   -0.1640  -12.1289   19.3597 LP  0  0  0  0  0  0  0  0  0  0  0  0  # atno 16600 bound_to 1745
   -1.0317  -13.6250   19.2679 LP  0  0  0  0  0  0  0  0  0  0  0  0  # atno 16601 bound_to 1745
   -0.5896  -13.3430   24.5458 LP  0  0  0  0  0  0  0  0  0  0  0  0  # atno 16602 bound_to 1818
   -4.8523   -6.1178   13.6221 LP  0  0  0  0  0  0  0  0  0  0  0  0  # atno 16603 bound_to 5772
   -3.8037   -6.9859   14.5239 LP  0  0  0  0  0  0  0  0  0  0  0  0  # atno 16604 bound_to 5772
    0.8720   -7.4663   17.2370 LP  0  0  0  0  0  0  0  0  0  0  0  0  # atno 16605 bound_to 15403
    0.7657  -14.9270   20.7289 LP  0  0  0  0  0  0  0  0  0  0  0  0  # atno 16606 bound_to 1791
   -4.0254   -9.4570   13.9404 LP  0  0  0  0  0  0  0  0  0  0  0  0  # atno 16607 bound_to 5617
   -6.7387   -7.3013   12.8279 LP  0  0  0  0  0  0  0  0  0  0  0  0  # atno 16608 bound_to 5620
   -5.3328   -7.8647   13.6681 LP  0  0  0  0  0  0  0  0  0  0  0  0  # atno 16609 bound_to 5620
   -9.6668   -9.5075   15.0290 LP  0  0  0  0  0  0  0  0  0  0  0  0  # atno 16610 bound_to 7788
   -9.6660  -11.1977   15.4074 LP  0  0  0  0  0  0  0  0  0  0  0  0  # atno 16611 bound_to 7788
  -10.9575  -12.7102   18.0050 LP  0  0  0  0  0  0  0  0  0  0  0  0  # atno 16612 bound_to 7874
    0.5450  -16.2409   24.3317 LP  0  0  0  0  0  0  0  0  0  0  0  0  # atno 16613 bound_to 1794
    0.4127  -16.3229   22.6067 LP  0  0  0  0  0  0  0  0  0  0  0  0  # atno 16614 bound_to 1794
   -0.7297  -13.4744   28.1360 LP  0  0  0  0  0  0  0  0  0  0  0  0  # atno 16615 bound_to 1824
    0.3264  -14.5113   28.8261 LP  0  0  0  0  0  0  0  0  0  0  0  0  # atno 16616 bound_to 1824
   -2.4748  -15.1877   26.8160 LP  0  0  0  0  0  0  0  0  0  0  0  0  # atno 16617 bound_to 1854
  -15.6793  -15.5398   27.7189 LP  0  0  0  0  0  0  0  0  0  0  0  0  # atno 16622 bound_to 9318
  -15.4507  -13.8303   27.5587 LP  0  0  0  0  0  0  0  0  0  0  0  0  # atno 16623 bound_to 9318
  -16.5337  -14.3985   25.6765 LP  0  0  0  0  0  0  0  0  0  0  0  0  # atno 16624 bound_to 9342
  -21.1010   -7.8501   22.0781 LP  0  0  0  0  0  0  0  0  0  0  0  0  # atno 16627 bound_to 9433
  -21.8469   -7.3502   23.5592 LP  0  0  0  0  0  0  0  0  0  0  0  0  # atno 16628 bound_to 9433
  -16.0578   -7.7726   18.1770 LP  0  0  0  0  0  0  0  0  0  0  0  0  # atno 16629 bound_to 9492
  -17.3446   -6.7813   18.3450 LP  0  0  0  0  0  0  0  0  0  0  0  0  # atno 16630 bound_to 9492
  -17.9535  -13.1444   19.4843 LP  0  0  0  0  0  0  0  0  0  0  0  0  # atno 16631 bound_to 7667
  -16.6756  -12.0519   19.9010 LP  0  0  0  0  0  0  0  0  0  0  0  0  # atno 16632 bound_to 7667
  -16.0822  -13.1439   18.0543 LP  0  0  0  0  0  0  0  0  0  0  0  0  # atno 16634 bound_to 7723
  -12.2925  -12.0052   16.0258 LP  0  0  0  0  0  0  0  0  0  0  0  0  # atno 16635 bound_to 7726
  -13.3412  -13.1113   16.8485 LP  0  0  0  0  0  0  0  0  0  0  0  0  # atno 16636 bound_to 7726
  -19.5926   -6.1624   16.3658 LP  0  0  0  0  0  0  0  0  0  0  0  0  # atno 16637 bound_to 10539
  -21.2057   -5.5686   16.5786 LP  0  0  0  0  0  0  0  0  0  0  0  0  # atno 16638 bound_to 10539
   -5.1497  -15.4197   31.9311 LP  0  0  0  0  0  0  0  0  0  0  0  0  # atno 16639 bound_to 1884
   -6.0195  -15.5769   33.3041 LP  0  0  0  0  0  0  0  0  0  0  0  0  # atno 16640 bound_to 1884
  -16.9589  -16.7139   27.9039 LP  0  0  0  0  0  0  0  0  0  0  0  0  # atno 16641 bound_to 9315
   -5.3849  -17.1334   29.8851 LP  0  0  0  0  0  0  0  0  0  0  0  0  # atno 16642 bound_to 1879
   -1.6366  -16.1880   29.2720 LP  0  0  0  0  0  0  0  0  0  0  0  0  # atno 16643 bound_to 1857
   -1.9898  -17.5166   30.3256 LP  0  0  0  0  0  0  0  0  0  0  0  0  # atno 16644 bound_to 1857
  -17.4152  -18.2396   23.4489 LP  0  0  0  0  0  0  0  0  0  0  0  0  # atno 16645 bound_to 7565
  -18.3293  -16.8334   23.0162 LP  0  0  0  0  0  0  0  0  0  0  0  0  # atno 16646 bound_to 7565
  -19.8333  -17.8886   25.9960 LP  0  0  0  0  0  0  0  0  0  0  0  0  # atno 16647 bound_to 9289
  -20.5097  -17.0421   27.3473 LP  0  0  0  0  0  0  0  0  0  0  0  0  # atno 16648 bound_to 9289
  -18.8829  -18.6934   32.2445 LP  0  0  0  0  0  0  0  0  0  0  0  0  # atno 16649 bound_to 9236
  -17.9630  -19.4220   30.9705 LP  0  0  0  0  0  0  0  0  0  0  0  0  # atno 16650 bound_to 9236
  -20.0839  -18.2312   29.9622 LP  0  0  0  0  0  0  0  0  0  0  0  0  # atno 16653 bound_to 9286
  -22.3206  -21.0130   31.2154 LP  0  0  0  0  0  0  0  0  0  0  0  0  # atno 16654 bound_to 9233
  -11.3358  -23.9429   33.3817 LP  0  0  0  0  0  0  0  0  0  0  0  0  # atno 16655 bound_to 3365
  -11.5386  -22.6198   34.4809 LP  0  0  0  0  0  0  0  0  0  0  0  0  # atno 16656 bound_to 3365
   -8.2326  -24.5463   37.0740 LP  0  0  0  0  0  0  0  0  0  0  0  0  # atno 16657 bound_to 3362
   -4.5512  -19.1201   29.8082 LP  0  0  0  0  0  0  0  0  0  0  0  0  # atno 16658 bound_to 1922

> <Gold.Score>
     Fitness  S(hb_ext) S(vdw_ext)  S(hb_int)    S(int)      intcor
     36.03       2.00      24.82       0.00      -0.10      -0.76

> <Gold.Goldscore.Fitness>
36.0268

> <Gold.Goldscore.Internal.Vdw>
-0.3113

> <Gold.Goldscore.Internal.Torsion>
-0.5446

> <Gold.Goldscore.External.Vdw>
24.8176

> <Gold.Goldscore.Internal.HBond>
0.0000

> <Gold.Goldscore.External.HBond>
2.0000

> <Gold.Goldscore.Internal.Correction>
-0.7585

> <Gold.Goldscore.Hbonds>
donor molecule, donor type, donor heavy atom, donor atom, acceptor molecule, acceptor atom, score
      L1  H     8    22       P1 10886  1.00

> <Gold.Goldscore.Internal.Vdw.Weighted>
-0.3113

> <Gold.Goldscore.Internal.Torsion.Weighted>
-0.5446

> <Gold.Goldscore.External.Vdw.Weighted>
34.1242

> <Gold.Goldscore.Internal.HBond.Weighted>
0.0000

> <Gold.Goldscore.External.HBond.Weighted>
2.0000

> <Gold.Goldscore.Internal.Correction.Weighted>
-0.7585

> <Gold.Rescore>
     Score     S(PLP)   S(hbond)     S(cho)   S(metal)  DE(clash)   DE(tors)     intcor
     33.11     -35.46       0.00       0.00       0.00       0.00       1.18       ----

> <Gold.PLP.Fitness>
33.1061

> <Gold.PLP.PLP>
-35.4564

> <Gold.PLP.part.hbond>
0.0000

> <Gold.PLP.part.metal>
0.0000

> <Gold.PLP.part.buried>
-4.6816

> <Gold.PLP.part.nonpolar>
-33.4817

> <Gold.PLP.part.repulsive>
0.3468

> <Gold.PLP.ligand.clash>
0.0000

> <Gold.PLP.ligand.torsion>
1.1752

> <Gold.PLP.Chemscore.Hbond>
0.0000

> <Gold.PLP.Chemscore.CHOScore>
0.0000

> <Gold.PLP.Chemscore.Metal>
0.0000

> <Gold.Chemscore.Hbonds>
donor molecule, donor type, donor heavy atom, donor atom, acceptor molecule, acceptor atom, score
      L1  H     8    22       P1 10886  1.00

> <Gold.PLP.Chemscore.Internal.Correction>
   9.000000E+99

