#       Name:                CT1002167954
#       Creating user name   hitesit
#       Creation time:       Sun Apr 16 20:17:53 2023


#       File generated by GOLD software.
#

@<TRIPOS>MOLECULE
CT1002167954|ligand_prepared|mol2|1|dock9
    29    30     1
SMALL
NO_CHARGES


@<TRIPOS>ATOM
      1 C1         -12.4139   2.3586  19.7332 C.3            1 RES1               0.0000
      2 C2         -13.3495   1.5206  20.6282 C.ar           1 RES1               0.0000
      3 C3         -13.2289   3.5625  19.2699 C.2            1 RES1               0.0000
      4 C4         -11.2083   2.7178  20.5947 C.2            1 RES1               0.0000
      5 C5         -11.9011   1.6029  18.4851 C.3            1 RES1               0.0000
      6 C6         -14.4269   2.1144  21.2789 C.ar           1 RES1               0.0000
      7 C7         -13.1500   0.1548  20.8104 C.ar           1 RES1               0.0000
      8 N8         -12.9459   4.7717  19.8334 N.am           1 RES1               0.0000
      9 O9         -14.1328   3.4455  18.4517 O.2            1 RES1               0.0000
     10 N10        -11.0105   4.0381  20.9037 N.am           1 RES1               0.0000
     11 O11        -10.4372   1.8676  21.0225 O.2            1 RES1               0.0000
     12 C12        -11.3527   2.5146  17.3987 C.3            1 RES1               0.0000
     13 C13        -15.2759   1.3693  22.0804 C.ar           1 RES1               0.0000
     14 C14        -14.0001  -0.5885  21.6125 C.ar           1 RES1               0.0000
     15 C15        -11.8419   5.0779  20.5877 C.2            1 RES1               0.0000
     16 C16        -15.0634   0.0174  22.2474 C.ar           1 RES1               0.0000
     17 O17        -11.6244   6.2311  20.9481 O.2            1 RES1               0.0000
     18 H18        -11.1115   0.9066  18.7936 H              1 RES1               0.0000
     19 H19        -12.7251   1.0116  18.0671 H              1 RES1               0.0000
     20 H20        -14.6085   3.1776  21.1614 H              1 RES1               0.0000
     21 H21        -12.3194  -0.3429  20.3217 H              1 RES1               0.0000
     22 H22        -13.6173   5.5173  19.6798 H              1 RES1               0.0000
     23 H23        -10.1650   4.2670  21.4167 H              1 RES1               0.0000
     24 H24        -11.0067   1.9339  16.5462 H              1 RES1               0.0000
     25 H25        -12.1190   3.2040  17.0505 H              1 RES1               0.0000
     26 H26        -10.5150   3.0997  17.7727 H              1 RES1               0.0000
     27 H27        -16.1104   1.8512  22.5789 H              1 RES1               0.0000
     28 H28        -13.8287  -1.6521  21.7416 H              1 RES1               0.0000
     29 H29        -15.7288  -0.5662  22.8750 H              1 RES1               0.0000
@<TRIPOS>BOND
    1    1    2 1     
    2    1    3 1     
    3    1    4 1     
    4    1    5 1     
    5    2    6 ar    
    6    2    7 ar    
    7    3    8 1     
    8    3    9 2     
    9    4   10 1     
   10    4   11 2     
   11    5   12 1     
   12    5   18 1     
   13    5   19 1     
   14    6   13 ar    
   15    6   20 1     
   16    7   14 ar    
   17    7   21 1     
   18    8   15 1     
   19    8   22 1     
   20   10   15 1     
   21   10   23 1     
   22   12   24 1     
   23   12   25 1     
   24   12   26 1     
   25   13   16 ar    
   26   13   27 1     
   27   14   16 ar    
   28   14   28 1     
   29   15   17 2     
   30   16   29 1     
@<TRIPOS>SUBSTRUCTURE
      1 RES1           1
@<TRIPOS>SET
DONOR_HYDROGENS      STATIC     ATOMS    <user>   **** ""
2 22 23
ATOM$RED        STATIC     ATOMS    COLORGROUP SYSTEM
2 22 23
@<TRIPOS>COMMENT
> <Gold.Version>
2022.3.0

> <Gold.Id.Protein>
unknown|3mvj_clean|pdb

> <Gold.Protein.RotatedTorsions>
[ 11816 11799 11798 11795 ] final   77.42 input   60.01 | X-H torsion
[ 11879 11856 11855 11854 ] final   -2.94 input   60.02 | X-H torsion
[ 10986 10959 10958 10956 ] final  -49.13 input   60.00 | X-H torsion
[ 10978 10948 10949 10950 ] final -115.34 input   32.02 | X-H torsion
[ 10745 10719 10718 10716 ] final  -30.03 input   60.01 | X-H torsion
[ 12083 12056 12057 12058 ] final   51.76 input   63.02 | X-H torsion
[ 10921 10911 10912 10913 ] final  140.61 input  -92.90 | X-H torsion
[ 6177 6140 6141 6142 ] final   45.36 input   39.58 | X-H torsion
[ 6115 6105 6106 6107 ] final   67.18 input  -69.34 | X-H torsion
[ 5955 5918 5919 5920 ] final   34.12 input  125.26 | X-H torsion
[ 6027 5990 5991 5992 ] final -120.08 input  110.40 | X-H torsion
[ 6086 6056 6057 6058 ] final   73.36 input  107.04 | X-H torsion
[ 11660 11631 11630 11629 ] final   35.25 input   60.02 | X-H torsion
[ 11213 11201 11202 11203 ] final   99.50 input   18.84 | X-H torsion
[ 11249 11237 11238 11239 ] final   16.46 input  111.29 | X-H torsion
[ 11182 11153 11154 11155 ] final  153.79 input   30.50 | X-H torsion
[ 11292 11275 11276 11277 ] final -114.76 input   58.53 | X-H torsion
[ 9445 9430 9431 9432 ] final  164.78 input  110.06 | X-H torsion
[ 11493 11474 11475 11476 ] final   91.92 input  115.95 | X-H torsion
[ 11385 11366 11367 11368 ] final    1.28 input  117.79 | X-H torsion
[ 11568 11550 11549 11547 ] final   53.07 input   59.97 | X-H torsion
[ 9362 9348 9346 9343 ] final  167.16 input   60.02 | X-H torsion
[ 9502 9481 9482 9483 ] final   79.70 input   75.78 | X-H torsion
[ 15476 15466 15465 15463 ] final -149.34 input   60.00 | X-H torsion
[ 7768 7731 7730 7729 ] final  133.42 input   60.02 | X-H torsion
[ 7852 7831 7832 7833 ] final  146.54 input  113.97 | X-H torsion
[ 5737 5717 5718 5719 ] final  138.60 input  137.93 | X-H torsion
[ 5778 5767 5768 5769 ] final   28.49 input  116.46 | X-H torsion
[ 1832 1818 1819 1820 ] final    4.74 input   43.70 | X-H torsion
[ 5782 5772 5771 5768 ] final -163.43 input   59.97 | X-H torsion
[ 15411 15403 15404 15405 ] final  -88.85 input  102.24 | X-H torsion
[ 1801 1791 1792 1793 ] final  -42.70 input  -10.55 | X-H torsion
[ 5638 5617 5618 5619 ] final -173.57 input   93.34 | X-H torsion
[ 7894 7874 7875 7876 ] final   53.04 input   68.03 | X-H torsion
[ 1838 1824 1822 1819 ] final   54.61 input   60.02 | X-H torsion
[ 1861 1854 1855 1856 ] final   77.59 input   57.50 | X-H torsion
[ 9356 9342 9343 9344 ] final   83.77 input   55.58 | X-H torsion
[ 9510 9492 9491 9489 ] final -120.14 input   60.02 | X-H torsion
[ 7758 7723 7724 7725 ] final   73.61 input   17.81 | X-H torsion
[ 1898 1884 1883 1880 ] final -131.21 input   60.01 | X-H torsion
[ 9322 9315 9316 9317 ] final -124.79 input  -36.21 | X-H torsion
[ 1894 1879 1880 1881 ] final   73.12 input   98.21 | X-H torsion
[ 9297 9286 9287 9288 ] final  -21.82 input   37.00 | X-H torsion
[ 9252 9233 9234 9235 ] final  -56.59 input   95.32 | X-H torsion
[ 3370 3362 3363 3364 ] final  -85.02 input   97.92 | X-H torsion
[ 1951 1922 1923 1924 ] final   40.93 input  104.43 | X-H torsion
[ 12164 12148 12149 12150 ] final -123.21 input  116.04 | X-H torsion
[ 11673 11649 11648 11647 ] final  101.98 input   59.99 | X-H torsion
[ 12008 11984 11985 11986 ] final -115.67 input   61.04 | X-H torsion
[ 11122 11093 11094 11095 ] final  157.28 input   39.50 | X-H torsion
[ 7946 7916 7917 7918 ] final -149.96 input   66.66 | X-H torsion
[ 8659 8630 8631 8632 ] final  131.88 input   75.31 | X-H torsion
[ 9555 9536 9537 9538 ] final  157.41 input  103.50 | X-H torsion
[ 16472 10886 10885 10884 ] final  -92.02 input    0.00 | X-H torsion
[ 16475 11004 11003 11002 ] final -145.39 input    0.00 | X-H torsion
[ 16477 10914 10913 10912 ] final  -34.50 input    0.00 | X-H torsion
[ 16479 10951 10950 10949 ] final  125.72 input   -0.00 | X-H torsion
[ 16484 11987 11986 11985 ] final  128.82 input    0.00 | X-H torsion
[ 16486 12059 12058 12057 ] final  -14.33 input   -0.00 | X-H torsion
[ 16490 11046 11045 11044 ] final    4.31 input    0.00 | X-H torsion
[ 16500 6108 6107 6106 ] final  102.41 input    0.00 | X-H torsion
[ 16503 5921 5920 5919 ] final  -95.82 input   -0.00 | X-H torsion
[ 16506 6059 6058 6057 ] final   30.83 input    0.00 | X-H torsion
[ 16510 5858 5857 5856 ] final   -5.84 input    0.00 | X-H torsion
[ 16518 5993 5992 5991 ] final  -21.20 input   -0.00 | X-H torsion
[ 16523 11156 11155 11154 ] final -118.29 input    0.00 | X-H torsion
[ 16528 11204 11203 11202 ] final -175.94 input    0.00 | X-H torsion
[ 16540 11096 11095 11094 ] final   79.81 input   -0.00 | X-H torsion
[ 16544 10768 10767 10766 ] final  178.21 input   -0.00 | X-H torsion
[ 16552 11240 11239 11238 ] final    4.57 input    0.00 | X-H torsion
[ 16558 11278 11277 11276 ] final -121.29 input   -0.00 | X-H torsion
[ 16562 11325 11324 11323 ] final  -34.61 input   -0.00 | X-H torsion
[ 16566 9387 9386 9385 ] final    1.65 input   -0.00 | X-H torsion
[ 16570 9345 9344 9343 ] final -154.95 input    0.00 | X-H torsion
[ 16579 5720 5719 5718 ] final  -60.79 input    0.00 | X-H torsion
[ 16592 1821 1820 1819 ] final   84.14 input    0.00 | X-H torsion
[ 16594 7834 7833 7832 ] final -171.16 input    0.00 | X-H torsion
[ 16600 1745 1744 1743 ] final  -28.79 input    0.00 | X-H torsion
[ 16608 5620 5619 5618 ] final  136.79 input   -0.00 | X-H torsion
[ 16610 7788 7787 7786 ] final  -92.56 input   -0.00 | X-H torsion
[ 16613 1794 1793 1792 ] final  -21.06 input   -0.00 | X-H torsion
[ 16622 9318 9317 9316 ] final  126.00 input   -0.00 | X-H torsion
[ 16627 9433 9432 9431 ] final   81.95 input    0.00 | X-H torsion
[ 16631 7667 7666 7665 ] final -152.31 input   -0.00 | X-H torsion
[ 16635 7726 7725 7724 ] final  -89.07 input    0.00 | X-H torsion
[ 16637 10539 10538 10537 ] final    6.12 input   -0.00 | X-H torsion
[ 16643 1857 1856 1855 ] final   26.04 input    0.00 | X-H torsion
[ 16645 7565 7564 7563 ] final   97.41 input    0.00 | X-H torsion
[ 16647 9289 9288 9287 ] final   24.44 input    0.00 | X-H torsion
[ 16649 9236 9235 9234 ] final  -47.91 input    0.00 | X-H torsion
[ 16655 3365 3364 3363 ] final   -5.74 input    0.00 | X-H torsion

> <Gold.Protein.ActiveResidues>
 LEU49   GLY50   THR51   GLY52   SER53   PHE54   VAL57   LEU82   LYS83   GLN84  
 HIS87   GLU127  PHE129  SER130  LEU132  ARG133  ARG134  ILE135  GLY136  ARG137 
 ARG165  ASP166  LEU167  LYS168  PRO169  GLU170  ASN171  LEU172  LEU173  ASP184 
 GLY186  PHE187  TPO197  LEU198  CYS199  GLY200  THR201  PRO202  GLU203  TYR204 
 LEU205  ILE209  ILE210  VAL226  LEU227  TYR229  GLU230  ALA233  GLY234  TYR235 
 PRO236  PRO237  PHE238  PHE239  ALA240  ASP241  GLN242  PRO243  ILE244  GLN245 
 ILE246  TYR247  GLU248  LYS249  ILE250  VAL251  SER252  LYS254  ARG256  PHE257 
 PRO258  SER259  PHE327  ASP328  TYR330 

> <Gold.Protein.RotatedAtoms>
    1.5955  -14.1245   21.7648 H   0  0  0  0  0  0  0  0  0  0  0  0  # atno 1801 bound_to 1791
   -1.7550  -13.6952   24.2749 H   0  0  0  0  0  0  0  0  0  0  0  0  # atno 1832 bound_to 1818
   -1.0030  -15.1411   28.4349 H   0  0  0  0  0  0  0  0  0  0  0  0  # atno 1838 bound_to 1824
   -2.4623  -16.9303   26.7129 H   0  0  0  0  0  0  0  0  0  0  0  0  # atno 1861 bound_to 1854
   -5.3487  -17.2926   29.8299 H   0  0  0  0  0  0  0  0  0  0  0  0  # atno 1894 bound_to 1879
   -5.8938  -15.5319   33.2928 H   0  0  0  0  0  0  0  0  0  0  0  0  # atno 1898 bound_to 1884
   -4.1234  -19.0729   29.8556 H   0  0  0  0  0  0  0  0  0  0  0  0  # atno 1951 bound_to 1922
   -8.2052  -24.4733   37.1223 H   0  0  0  0  0  0  0  0  0  0  0  0  # atno 3370 bound_to 3362
   -3.9643  -10.9279   13.7535 H   0  0  0  0  0  0  0  0  0  0  0  0  # atno 5638 bound_to 5617
   -8.8945   -8.5007   15.0371 H   0  0  0  0  0  0  0  0  0  0  0  0  # atno 5737 bound_to 5717
   -7.0817   -5.9969   14.6466 H   0  0  0  0  0  0  0  0  0  0  0  0  # atno 5778 bound_to 5767
   -3.1915   -6.6253   14.3053 H   0  0  0  0  0  0  0  0  0  0  0  0  # atno 5782 bound_to 5772
   -8.4421   -1.6941   14.2004 H   0  0  0  0  0  0  0  0  0  0  0  0  # atno 5955 bound_to 5918
   -7.1754    0.5016   15.4192 H   0  0  0  0  0  0  0  0  0  0  0  0  # atno 6027 bound_to 5990
   -8.1962    0.5938   12.2229 H   0  0  0  0  0  0  0  0  0  0  0  0  # atno 6086 bound_to 6056
  -10.1889    2.3539   11.4634 H   0  0  0  0  0  0  0  0  0  0  0  0  # atno 6115 bound_to 6105
  -12.7471    2.8994   10.9594 H   0  0  0  0  0  0  0  0  0  0  0  0  # atno 6177 bound_to 6140
  -14.4934  -13.5942   18.4680 H   0  0  0  0  0  0  0  0  0  0  0  0  # atno 7758 bound_to 7723
  -12.1971  -13.3213   24.5721 H   0  0  0  0  0  0  0  0  0  0  0  0  # atno 7768 bound_to 7731
  -11.0584  -12.2387   24.0443 H   0  0  0  0  0  0  0  0  0  0  0  0  # atno 7769 bound_to 7731
  -12.6347  -11.7593   24.2305 H   0  0  0  0  0  0  0  0  0  0  0  0  # atno 7770 bound_to 7731
  -11.0653   -9.6014   18.2994 H   0  0  0  0  0  0  0  0  0  0  0  0  # atno 7852 bound_to 7831
  -11.0057  -12.5183   17.1584 H   0  0  0  0  0  0  0  0  0  0  0  0  # atno 7894 bound_to 7874
  -10.7278  -14.2673   15.5110 H   0  0  0  0  0  0  0  0  0  0  0  0  # atno 7946 bound_to 7916
  -13.3256  -21.7194   23.4912 H   0  0  0  0  0  0  0  0  0  0  0  0  # atno 8659 bound_to 8630
  -21.2853  -21.1938   30.3882 H   0  0  0  0  0  0  0  0  0  0  0  0  # atno 9252 bound_to 9233
  -20.4884  -18.2039   29.1369 H   0  0  0  0  0  0  0  0  0  0  0  0  # atno 9297 bound_to 9286
  -17.3134  -17.7627   26.9414 H   0  0  0  0  0  0  0  0  0  0  0  0  # atno 9322 bound_to 9315
  -17.3800  -13.7642   24.7362 H   0  0  0  0  0  0  0  0  0  0  0  0  # atno 9356 bound_to 9342
  -14.1523  -12.9940   23.6811 H   0  0  0  0  0  0  0  0  0  0  0  0  # atno 9362 bound_to 9348
  -17.9734   -7.8849   26.2752 H   0  0  0  0  0  0  0  0  0  0  0  0  # atno 9445 bound_to 9430
  -19.0155   -9.9208   24.1436 H   0  0  0  0  0  0  0  0  0  0  0  0  # atno 9502 bound_to 9481
  -17.7765   -7.1947   17.6871 H   0  0  0  0  0  0  0  0  0  0  0  0  # atno 9510 bound_to 9492
  -20.7429  -11.2130   24.9101 H   0  0  0  0  0  0  0  0  0  0  0  0  # atno 9555 bound_to 9536
  -23.2218    1.3314   18.6555 H   0  0  0  0  0  0  0  0  0  0  0  0  # atno 10745 bound_to 10719
  -17.1967    1.3819   13.5821 H   0  0  0  0  0  0  0  0  0  0  0  0  # atno 10921 bound_to 10911
  -16.0388    0.3268   16.6218 H   0  0  0  0  0  0  0  0  0  0  0  0  # atno 10978 bound_to 10948
  -22.4576    4.2250   17.1007 H   0  0  0  0  0  0  0  0  0  0  0  0  # atno 10986 bound_to 10959
  -23.5272   -2.7160   22.1970 H   0  0  0  0  0  0  0  0  0  0  0  0  # atno 11122 bound_to 11093
  -21.0925   -1.5732   24.4593 H   0  0  0  0  0  0  0  0  0  0  0  0  # atno 11182 bound_to 11153
  -19.6321   -1.4290   28.3539 H   0  0  0  0  0  0  0  0  0  0  0  0  # atno 11213 bound_to 11201
  -18.2059   -0.0357   31.4825 H   0  0  0  0  0  0  0  0  0  0  0  0  # atno 11249 bound_to 11237
  -16.3956   -1.1029   32.6553 H   0  0  0  0  0  0  0  0  0  0  0  0  # atno 11292 bound_to 11275
  -19.9110   -5.1743   33.5877 H   0  0  0  0  0  0  0  0  0  0  0  0  # atno 11385 bound_to 11366
  -21.4918   -4.1199   31.6756 H   0  0  0  0  0  0  0  0  0  0  0  0  # atno 11493 bound_to 11474
  -18.6903   -9.9459   31.2898 H   0  0  0  0  0  0  0  0  0  0  0  0  # atno 11568 bound_to 11550
   -7.9372    9.2985   26.3740 H   0  0  0  0  0  0  0  0  0  0  0  0  # atno 11660 bound_to 11631
   -9.3304    8.5278   26.8330 H   0  0  0  0  0  0  0  0  0  0  0  0  # atno 11661 bound_to 11631
   -8.5724    8.0976   25.4238 H   0  0  0  0  0  0  0  0  0  0  0  0  # atno 11662 bound_to 11631
  -23.8435    2.7949   28.6957 H   0  0  0  0  0  0  0  0  0  0  0  0  # atno 11673 bound_to 11649
  -24.9809    2.8303   27.4898 H   0  0  0  0  0  0  0  0  0  0  0  0  # atno 11674 bound_to 11649
  -25.2985    2.0278   28.9050 H   0  0  0  0  0  0  0  0  0  0  0  0  # atno 11675 bound_to 11649
  -13.5100   16.7352   23.3260 H   0  0  0  0  0  0  0  0  0  0  0  0  # atno 11816 bound_to 11799
  -17.0203   14.8643   24.7586 H   0  0  0  0  0  0  0  0  0  0  0  0  # atno 11879 bound_to 11856
  -18.3589   15.7695   25.1283 H   0  0  0  0  0  0  0  0  0  0  0  0  # atno 11880 bound_to 11856
  -17.3606   16.2342   23.8890 H   0  0  0  0  0  0  0  0  0  0  0  0  # atno 11881 bound_to 11856
  -29.4605    0.9038   19.6137 H   0  0  0  0  0  0  0  0  0  0  0  0  # atno 12008 bound_to 11984
  -28.4303    3.8827   16.7060 H   0  0  0  0  0  0  0  0  0  0  0  0  # atno 12083 bound_to 12056
  -25.6040    6.8342   13.4508 H   0  0  0  0  0  0  0  0  0  0  0  0  # atno 12164 bound_to 12148
    1.7618   -7.6655   17.0215 H   0  0  0  0  0  0  0  0  0  0  0  0  # atno 15411 bound_to 15403
   -1.9769   -9.4211   22.1796 H   0  0  0  0  0  0  0  0  0  0  0  0  # atno 15476 bound_to 15466
  -12.3895   16.3536   22.2096 LP  0  0  0  0  0  0  0  0  0  0  0  0  # atno 16466 bound_to 11799
  -12.9906   15.1987   23.1952 LP  0  0  0  0  0  0  0  0  0  0  0  0  # atno 16467 bound_to 11799
  -21.4327    5.4390   16.7485 LP  0  0  0  0  0  0  0  0  0  0  0  0  # atno 16468 bound_to 10959
  -22.1024    5.3372   18.2343 LP  0  0  0  0  0  0  0  0  0  0  0  0  # atno 16469 bound_to 10959
  -17.0434    3.5241   13.6556 LP  0  0  0  0  0  0  0  0  0  0  0  0  # atno 16472 bound_to 10886
  -17.6620    3.4130   15.2696 LP  0  0  0  0  0  0  0  0  0  0  0  0  # atno 16473 bound_to 10886
  -17.5967    1.1266   16.5451 LP  0  0  0  0  0  0  0  0  0  0  0  0  # atno 16474 bound_to 10948
  -21.3305   -0.4398   21.6517 LP  0  0  0  0  0  0  0  0  0  0  0  0  # atno 16475 bound_to 11004
  -19.9659    0.0127   20.6857 LP  0  0  0  0  0  0  0  0  0  0  0  0  # atno 16476 bound_to 11004
  -13.7795    0.7871   16.8504 LP  0  0  0  0  0  0  0  0  0  0  0  0  # atno 16477 bound_to 10914
  -14.7314    1.5283   18.0932 LP  0  0  0  0  0  0  0  0  0  0  0  0  # atno 16478 bound_to 10914
  -19.4255   -1.5558   17.2986 LP  0  0  0  0  0  0  0  0  0  0  0  0  # atno 16479 bound_to 10951
  -19.6579    0.1507   17.4829 LP  0  0  0  0  0  0  0  0  0  0  0  0  # atno 16480 bound_to 10951
  -24.8048    1.1363   18.3333 LP  0  0  0  0  0  0  0  0  0  0  0  0  # atno 16482 bound_to 10719
  -23.8335    1.8782   17.2503 LP  0  0  0  0  0  0  0  0  0  0  0  0  # atno 16483 bound_to 10719
  -26.1953    1.0792   17.1846 LP  0  0  0  0  0  0  0  0  0  0  0  0  # atno 16484 bound_to 11987
  -25.7792    1.9253   18.6376 LP  0  0  0  0  0  0  0  0  0  0  0  0  # atno 16485 bound_to 11987
  -27.8511    5.3489   15.3452 LP  0  0  0  0  0  0  0  0  0  0  0  0  # atno 16486 bound_to 12059
  -26.3872    6.2622   15.1944 LP  0  0  0  0  0  0  0  0  0  0  0  0  # atno 16487 bound_to 12059
  -24.9241   -0.4138   21.6321 LP  0  0  0  0  0  0  0  0  0  0  0  0  # atno 16490 bound_to 11046
  -24.4609   -0.7021   23.2760 LP  0  0  0  0  0  0  0  0  0  0  0  0  # atno 16491 bound_to 11046
  -27.5963    2.5235   17.4188 LP  0  0  0  0  0  0  0  0  0  0  0  0  # atno 16492 bound_to 12056
  -17.6289    0.1441   14.7423 LP  0  0  0  0  0  0  0  0  0  0  0  0  # atno 16493 bound_to 10911
  -13.8508    1.4120   14.0924 LP  0  0  0  0  0  0  0  0  0  0  0  0  # atno 16500 bound_to 6108
  -12.5271    0.3540   13.7344 LP  0  0  0  0  0  0  0  0  0  0  0  0  # atno 16501 bound_to 6108
  -12.6696    1.9821   12.4453 LP  0  0  0  0  0  0  0  0  0  0  0  0  # atno 16502 bound_to 6140
   -9.0200    2.2640   14.7199 LP  0  0  0  0  0  0  0  0  0  0  0  0  # atno 16503 bound_to 5921
   -8.1011    2.3568   16.1852 LP  0  0  0  0  0  0  0  0  0  0  0  0  # atno 16504 bound_to 5921
   -9.5000    1.9741   13.0274 LP  0  0  0  0  0  0  0  0  0  0  0  0  # atno 16505 bound_to 6105
   -9.8082    4.3138   10.1367 LP  0  0  0  0  0  0  0  0  0  0  0  0  # atno 16506 bound_to 6059
  -10.2674    4.7214   11.7563 LP  0  0  0  0  0  0  0  0  0  0  0  0  # atno 16507 bound_to 6059
  -10.5332    0.0984   12.6437 LP  0  0  0  0  0  0  0  0  0  0  0  0  # atno 16510 bound_to 5858
   -9.9825    0.6742   14.1817 LP  0  0  0  0  0  0  0  0  0  0  0  0  # atno 16511 bound_to 5858
   -9.9346   -2.0476   15.0354 LP  0  0  0  0  0  0  0  0  0  0  0  0  # atno 16516 bound_to 5918
   -7.4622   -0.3983   13.9420 LP  0  0  0  0  0  0  0  0  0  0  0  0  # atno 16517 bound_to 5990
   -6.4314    3.8484   13.1784 LP  0  0  0  0  0  0  0  0  0  0  0  0  # atno 16518 bound_to 5993
   -6.9930    3.7278   11.5444 LP  0  0  0  0  0  0  0  0  0  0  0  0  # atno 16519 bound_to 5993
   -6.8764    1.7126   12.0294 LP  0  0  0  0  0  0  0  0  0  0  0  0  # atno 16520 bound_to 6056
  -20.5336    1.4789   27.3708 LP  0  0  0  0  0  0  0  0  0  0  0  0  # atno 16523 bound_to 11156
  -21.7522    0.2532   27.2584 LP  0  0  0  0  0  0  0  0  0  0  0  0  # atno 16524 bound_to 11156
  -18.6305   -0.3178   27.4395 LP  0  0  0  0  0  0  0  0  0  0  0  0  # atno 16525 bound_to 11201
  -15.9580   -0.8740   30.1964 LP  0  0  0  0  0  0  0  0  0  0  0  0  # atno 16528 bound_to 11204
  -16.9260   -1.0403   28.7698 LP  0  0  0  0  0  0  0  0  0  0  0  0  # atno 16529 bound_to 11204
  -17.6299    1.4314   30.7272 LP  0  0  0  0  0  0  0  0  0  0  0  0  # atno 16530 bound_to 11237
  -21.8945   -1.2134   25.9732 LP  0  0  0  0  0  0  0  0  0  0  0  0  # atno 16533 bound_to 11153
  -20.2472   -3.6196   23.8290 LP  0  0  0  0  0  0  0  0  0  0  0  0  # atno 16540 bound_to 11096
  -20.6798   -4.1097   25.4330 LP  0  0  0  0  0  0  0  0  0  0  0  0  # atno 16541 bound_to 11096
  -16.2130   -1.9070   13.6511 LP  0  0  0  0  0  0  0  0  0  0  0  0  # atno 16544 bound_to 10768
  -16.7900   -1.4639   15.2229 LP  0  0  0  0  0  0  0  0  0  0  0  0  # atno 16545 bound_to 10768
  -14.2395   -1.0210   32.2479 LP  0  0  0  0  0  0  0  0  0  0  0  0  # atno 16552 bound_to 11240
  -15.0089   -2.4455   32.8634 LP  0  0  0  0  0  0  0  0  0  0  0  0  # atno 16553 bound_to 11240
  -18.0884   -0.9377   33.0570 LP  0  0  0  0  0  0  0  0  0  0  0  0  # atno 16554 bound_to 11275
  -20.0001   -3.9136   32.7820 LP  0  0  0  0  0  0  0  0  0  0  0  0  # atno 16558 bound_to 11278
  -19.1357   -2.8119   31.7626 LP  0  0  0  0  0  0  0  0  0  0  0  0  # atno 16559 bound_to 11278
  -19.0153   -9.2264   25.8558 LP  0  0  0  0  0  0  0  0  0  0  0  0  # atno 16561 bound_to 9430
  -20.7050   -5.8486   31.1377 LP  0  0  0  0  0  0  0  0  0  0  0  0  # atno 16562 bound_to 11325
  -21.6938   -6.6992   32.2774 LP  0  0  0  0  0  0  0  0  0  0  0  0  # atno 16563 bound_to 11325
  -22.5913   -2.7944   31.3523 LP  0  0  0  0  0  0  0  0  0  0  0  0  # atno 16564 bound_to 11474
  -19.5861   -6.5581   34.5904 LP  0  0  0  0  0  0  0  0  0  0  0  0  # atno 16565 bound_to 11366
  -21.1256   -9.2458   27.5070 LP  0  0  0  0  0  0  0  0  0  0  0  0  # atno 16566 bound_to 9387
  -21.1497   -8.2467   26.0924 LP  0  0  0  0  0  0  0  0  0  0  0  0  # atno 16567 bound_to 9387
  -19.4282  -11.3962   31.2754 LP  0  0  0  0  0  0  0  0  0  0  0  0  # atno 16568 bound_to 11550
  -19.0514  -10.6827   32.6951 LP  0  0  0  0  0  0  0  0  0  0  0  0  # atno 16569 bound_to 11550
  -19.1056  -10.5760   25.2482 LP  0  0  0  0  0  0  0  0  0  0  0  0  # atno 16570 bound_to 9345
  -18.7634  -12.2430   24.9256 LP  0  0  0  0  0  0  0  0  0  0  0  0  # atno 16571 bound_to 9345
  -15.1204  -13.9464   24.5775 LP  0  0  0  0  0  0  0  0  0  0  0  0  # atno 16572 bound_to 9348
  -13.9223  -13.0947   25.2888 LP  0  0  0  0  0  0  0  0  0  0  0  0  # atno 16573 bound_to 9348
  -20.1286   -8.6455   23.7020 LP  0  0  0  0  0  0  0  0  0  0  0  0  # atno 16574 bound_to 9481
   -9.0035   -3.8669   15.1573 LP  0  0  0  0  0  0  0  0  0  0  0  0  # atno 16579 bound_to 5720
   -7.9360   -3.5649   16.4874 LP  0  0  0  0  0  0  0  0  0  0  0  0  # atno 16580 bound_to 5720
   -1.9620  -10.9412   21.5994 LP  0  0  0  0  0  0  0  0  0  0  0  0  # atno 16587 bound_to 15466
   -1.2691   -9.7323   20.7479 LP  0  0  0  0  0  0  0  0  0  0  0  0  # atno 16588 bound_to 15466
  -10.9265  -10.5650   16.8386 LP  0  0  0  0  0  0  0  0  0  0  0  0  # atno 16591 bound_to 7831
   -3.6698  -13.7066   25.7375 LP  0  0  0  0  0  0  0  0  0  0  0  0  # atno 16592 bound_to 1821
   -3.0068  -13.2497   27.2711 LP  0  0  0  0  0  0  0  0  0  0  0  0  # atno 16593 bound_to 1821
   -7.8594  -13.7483   17.5675 LP  0  0  0  0  0  0  0  0  0  0  0  0  # atno 16594 bound_to 7834
   -7.2796  -12.3587   18.4235 LP  0  0  0  0  0  0  0  0  0  0  0  0  # atno 16595 bound_to 7834
   -8.8659   -7.2103   13.8472 LP  0  0  0  0  0  0  0  0  0  0  0  0  # atno 16596 bound_to 5717
   -6.7965   -5.9697   16.3733 LP  0  0  0  0  0  0  0  0  0  0  0  0  # atno 16597 bound_to 5767
   -0.0416  -12.4573   18.7995 LP  0  0  0  0  0  0  0  0  0  0  0  0  # atno 16600 bound_to 1745
   -1.1541  -13.2966   19.8281 LP  0  0  0  0  0  0  0  0  0  0  0  0  # atno 16601 bound_to 1745
   -0.1465  -14.3209   23.9897 LP  0  0  0  0  0  0  0  0  0  0  0  0  # atno 16602 bound_to 1818
   -3.9189   -5.5786   13.2937 LP  0  0  0  0  0  0  0  0  0  0  0  0  # atno 16603 bound_to 5772
   -4.8064   -6.6783   14.1121 LP  0  0  0  0  0  0  0  0  0  0  0  0  # atno 16604 bound_to 5772
    0.7742   -8.6626   18.0636 LP  0  0  0  0  0  0  0  0  0  0  0  0  # atno 16605 bound_to 15403
    0.5796  -14.2523   20.3447 LP  0  0  0  0  0  0  0  0  0  0  0  0  # atno 16606 bound_to 1791
   -4.2866   -9.3469   13.0720 LP  0  0  0  0  0  0  0  0  0  0  0  0  # atno 16607 bound_to 5617
   -6.3970   -7.4919   12.4662 LP  0  0  0  0  0  0  0  0  0  0  0  0  # atno 16608 bound_to 5620
   -5.6745   -7.6741   14.0298 LP  0  0  0  0  0  0  0  0  0  0  0  0  # atno 16609 bound_to 5620
   -9.9174  -11.1800   15.1688 LP  0  0  0  0  0  0  0  0  0  0  0  0  # atno 16610 bound_to 7788
   -9.4154   -9.5252   15.2675 LP  0  0  0  0  0  0  0  0  0  0  0  0  # atno 16611 bound_to 7788
   -9.4640  -12.5408   17.9739 LP  0  0  0  0  0  0  0  0  0  0  0  0  # atno 16612 bound_to 7874
    0.3858  -16.3386   22.6101 LP  0  0  0  0  0  0  0  0  0  0  0  0  # atno 16613 bound_to 1794
    0.5720  -16.2252   24.3284 LP  0  0  0  0  0  0  0  0  0  0  0  0  # atno 16614 bound_to 1794
   -0.8989  -13.5549   28.0867 LP  0  0  0  0  0  0  0  0  0  0  0  0  # atno 16615 bound_to 1824
    0.3576  -14.3231   28.7922 LP  0  0  0  0  0  0  0  0  0  0  0  0  # atno 16616 bound_to 1824
   -2.3643  -15.1946   26.9534 LP  0  0  0  0  0  0  0  0  0  0  0  0  # atno 16617 bound_to 1854
  -14.9832  -14.3881   27.0702 LP  0  0  0  0  0  0  0  0  0  0  0  0  # atno 16622 bound_to 9318
  -16.1468  -14.9820   28.2075 LP  0  0  0  0  0  0  0  0  0  0  0  0  # atno 16623 bound_to 9318
  -17.1954  -14.2060   26.4190 LP  0  0  0  0  0  0  0  0  0  0  0  0  # atno 16624 bound_to 9342
  -20.9098   -7.2882   22.2404 LP  0  0  0  0  0  0  0  0  0  0  0  0  # atno 16627 bound_to 9433
  -22.0381   -7.9121   23.3970 LP  0  0  0  0  0  0  0  0  0  0  0  0  # atno 16628 bound_to 9433
  -16.5441   -8.2288   17.4416 LP  0  0  0  0  0  0  0  0  0  0  0  0  # atno 16629 bound_to 9492
  -16.4367   -7.0876   18.6046 LP  0  0  0  0  0  0  0  0  0  0  0  0  # atno 16630 bound_to 9492
  -17.0328  -11.8258   19.4205 LP  0  0  0  0  0  0  0  0  0  0  0  0  # atno 16631 bound_to 7667
  -17.5964  -13.3705   19.9648 LP  0  0  0  0  0  0  0  0  0  0  0  0  # atno 16632 bound_to 7667
  -15.9776  -13.1326   17.6551 LP  0  0  0  0  0  0  0  0  0  0  0  0  # atno 16634 bound_to 7723
  -12.2448  -12.6153   17.0848 LP  0  0  0  0  0  0  0  0  0  0  0  0  # atno 16635 bound_to 7726
  -13.3889  -12.5013   15.7895 LP  0  0  0  0  0  0  0  0  0  0  0  0  # atno 16636 bound_to 7726
  -20.9569   -5.5946   17.0768 LP  0  0  0  0  0  0  0  0  0  0  0  0  # atno 16637 bound_to 10539
  -19.8414   -6.1364   15.8675 LP  0  0  0  0  0  0  0  0  0  0  0  0  # atno 16638 bound_to 10539
   -6.7334  -16.0240   31.9889 LP  0  0  0  0  0  0  0  0  0  0  0  0  # atno 16639 bound_to 1884
   -5.2111  -15.4582   31.8178 LP  0  0  0  0  0  0  0  0  0  0  0  0  # atno 16640 bound_to 1884
  -17.8681  -16.5468   28.0746 LP  0  0  0  0  0  0  0  0  0  0  0  0  # atno 16641 bound_to 9315
   -3.8057  -16.4697   29.7949 LP  0  0  0  0  0  0  0  0  0  0  0  0  # atno 16642 bound_to 1879
   -1.6312  -16.2191   29.2367 LP  0  0  0  0  0  0  0  0  0  0  0  0  # atno 16643 bound_to 1857
   -1.9952  -17.4854   30.3610 LP  0  0  0  0  0  0  0  0  0  0  0  0  # atno 16644 bound_to 1857
  -17.3067  -18.1686   23.4074 LP  0  0  0  0  0  0  0  0  0  0  0  0  # atno 16645 bound_to 7565
  -18.4379  -16.9044   23.0577 LP  0  0  0  0  0  0  0  0  0  0  0  0  # atno 16646 bound_to 7565
  -20.5665  -17.7678   27.3805 LP  0  0  0  0  0  0  0  0  0  0  0  0  # atno 16647 bound_to 9289
  -19.7765  -17.1629   25.9628 LP  0  0  0  0  0  0  0  0  0  0  0  0  # atno 16648 bound_to 9289
  -18.8189  -18.5328   32.1712 LP  0  0  0  0  0  0  0  0  0  0  0  0  # atno 16649 bound_to 9236
  -18.0270  -19.5825   31.0438 LP  0  0  0  0  0  0  0  0  0  0  0  0  # atno 16650 bound_to 9236
  -19.7892  -19.6612   29.8026 LP  0  0  0  0  0  0  0  0  0  0  0  0  # atno 16653 bound_to 9286
  -21.6423  -21.0468   32.0944 LP  0  0  0  0  0  0  0  0  0  0  0  0  # atno 16654 bound_to 9233
  -11.0459  -22.5171   34.0442 LP  0  0  0  0  0  0  0  0  0  0  0  0  # atno 16655 bound_to 3365
  -11.8285  -24.0456   33.8184 LP  0  0  0  0  0  0  0  0  0  0  0  0  # atno 16656 bound_to 3365
   -7.3198  -24.4351   35.6158 LP  0  0  0  0  0  0  0  0  0  0  0  0  # atno 16657 bound_to 3362
   -4.8225  -19.5111   31.4019 LP  0  0  0  0  0  0  0  0  0  0  0  0  # atno 16658 bound_to 1922

> <Gold.Score>
     Fitness  S(hb_ext) S(vdw_ext)  S(hb_int)    S(int)      intcor
     29.56       0.00      22.56       0.00      -1.45      -0.76

> <Gold.Goldscore.Fitness>
29.5648

> <Gold.Goldscore.Internal.Vdw>
-1.3553

> <Gold.Goldscore.Internal.Torsion>
-0.8573

> <Gold.Goldscore.External.Vdw>
22.5591

> <Gold.Goldscore.Internal.HBond>
0.0000

> <Gold.Goldscore.External.HBond>
0.0000

> <Gold.Goldscore.Internal.Correction>
-0.7585

> <Gold.Goldscore.Internal.Vdw.Weighted>
-1.3553

> <Gold.Goldscore.Internal.Torsion.Weighted>
-0.8573

> <Gold.Goldscore.External.Vdw.Weighted>
31.0188

> <Gold.Goldscore.Internal.HBond.Weighted>
0.0000

> <Gold.Goldscore.External.HBond.Weighted>
0.0000

> <Gold.Goldscore.Internal.Correction.Weighted>
-0.7585

> <Gold.Rescore>
     Score     S(PLP)   S(hbond)     S(cho)   S(metal)  DE(clash)   DE(tors)     intcor
     26.22     -28.85       0.00       0.00       0.00       0.00       1.32       ----

> <Gold.PLP.Fitness>
26.2215

> <Gold.PLP.PLP>
-28.8538

> <Gold.PLP.part.hbond>
0.0000

> <Gold.PLP.part.metal>
0.0000

> <Gold.PLP.part.buried>
-2.7791

> <Gold.PLP.part.nonpolar>
-27.0378

> <Gold.PLP.part.repulsive>
0.7554

> <Gold.PLP.ligand.clash>
0.0000

> <Gold.PLP.ligand.torsion>
1.3162

> <Gold.PLP.Chemscore.Hbond>
0.0000

> <Gold.PLP.Chemscore.CHOScore>
0.0000

> <Gold.PLP.Chemscore.Metal>
0.0000

> <Gold.PLP.Chemscore.Internal.Correction>
   9.000000E+99

