#       Name:                CT1002167954
#       Creating user name   hitesit
#       Creation time:       Sun Apr 16 20:17:37 2023


#       File generated by GOLD software.
#

@<TRIPOS>MOLECULE
CT1002167954|ligand_prepared|mol2|1|dock3
    29    30     1
SMALL
NO_CHARGES


@<TRIPOS>ATOM
      1 C1         -13.9451  -2.1030  23.5360 C.3            1 RES1               0.0000
      2 C2         -14.1742  -3.5978  23.2329 C.ar           1 RES1               0.0000
      3 C3         -14.9408  -1.7302  24.6305 C.2            1 RES1               0.0000
      4 C4         -12.4844  -1.9712  23.9527 C.2            1 RES1               0.0000
      5 C5         -14.1808  -1.1758  22.3210 C.3            1 RES1               0.0000
      6 C6         -13.8737  -4.5679  24.1844 C.ar           1 RES1               0.0000
      7 C7         -14.6869  -4.0211  22.0096 C.ar           1 RES1               0.0000
      8 N8         -14.4539  -1.5427  25.8905 N.am           1 RES1               0.0000
      9 O9         -16.1404  -1.6410  24.3995 O.2            1 RES1               0.0000
     10 N10        -12.2162  -1.5950  25.2428 N.am           1 RES1               0.0000
     11 O11        -11.5632  -2.2059  23.1803 O.2            1 RES1               0.0000
     12 C12        -13.8285   0.2799  22.5831 C.3            1 RES1               0.0000
     13 C13        -14.0810  -5.9123  23.9236 C.ar           1 RES1               0.0000
     14 C14        -14.8933  -5.3660  21.7508 C.ar           1 RES1               0.0000
     15 C15        -13.1345  -1.4046  26.2392 C.2            1 RES1               0.0000
     16 C16        -14.5913  -6.3122  22.7070 C.ar           1 RES1               0.0000
     17 O17        -12.8125  -1.1203  27.3893 O.2            1 RES1               0.0000
     18 H18        -13.5794  -1.5384  21.4782 H              1 RES1               0.0000
     19 H19        -15.2368  -1.2366  22.0300 H              1 RES1               0.0000
     20 H20        -13.4690  -4.2723  25.1467 H              1 RES1               0.0000
     21 H21        -14.9307  -3.2944  21.2420 H              1 RES1               0.0000
     22 H22        -15.1338  -1.5015  26.6431 H              1 RES1               0.0000
     23 H23        -11.2417  -1.4426  25.4826 H              1 RES1               0.0000
     24 H24        -14.0125   0.8866  21.6989 H              1 RES1               0.0000
     25 H25        -14.4262   0.6805  23.3992 H              1 RES1               0.0000
     26 H26        -12.7787   0.3806  22.8507 H              1 RES1               0.0000
     27 H27        -13.8404  -6.6531  24.6790 H              1 RES1               0.0000
     28 H28        -15.2945  -5.6763  20.7916 H              1 RES1               0.0000
     29 H29        -14.7540  -7.3654  22.5030 H              1 RES1               0.0000
@<TRIPOS>BOND
    1    1    2 1     
    2    1    3 1     
    3    1    4 1     
    4    1    5 1     
    5    2    6 ar    
    6    2    7 ar    
    7    3    8 1     
    8    3    9 2     
    9    4   10 1     
   10    4   11 2     
   11    5   12 1     
   12    5   18 1     
   13    5   19 1     
   14    6   13 ar    
   15    6   20 1     
   16    7   14 ar    
   17    7   21 1     
   18    8   15 1     
   19    8   22 1     
   20   10   15 1     
   21   10   23 1     
   22   12   24 1     
   23   12   25 1     
   24   12   26 1     
   25   13   16 ar    
   26   13   27 1     
   27   14   16 ar    
   28   14   28 1     
   29   15   17 2     
   30   16   29 1     
@<TRIPOS>SUBSTRUCTURE
      1 RES1           1
@<TRIPOS>SET
DONOR_HYDROGENS      STATIC     ATOMS    <user>   **** ""
2 22 23
ATOM$RED        STATIC     ATOMS    COLORGROUP SYSTEM
2 22 23
@<TRIPOS>COMMENT
> <Gold.Version>
2022.3.0

> <Gold.Id.Protein>
unknown|3mvj_clean|pdb

> <Gold.Protein.RotatedTorsions>
[ 11816 11799 11798 11795 ] final -158.82 input   60.01 | X-H torsion
[ 11879 11856 11855 11854 ] final  -67.51 input   60.02 | X-H torsion
[ 10986 10959 10958 10956 ] final  -68.98 input   60.00 | X-H torsion
[ 10978 10948 10949 10950 ] final  -21.06 input   32.02 | X-H torsion
[ 10745 10719 10718 10716 ] final -123.89 input   60.01 | X-H torsion
[ 12083 12056 12057 12058 ] final  -61.85 input   63.02 | X-H torsion
[ 10921 10911 10912 10913 ] final  -57.48 input  -92.90 | X-H torsion
[ 6177 6140 6141 6142 ] final   11.70 input   39.58 | X-H torsion
[ 6115 6105 6106 6107 ] final   95.42 input  -69.34 | X-H torsion
[ 5955 5918 5919 5920 ] final  159.14 input  125.26 | X-H torsion
[ 6027 5990 5991 5992 ] final   82.15 input  110.40 | X-H torsion
[ 6086 6056 6057 6058 ] final   90.30 input  107.04 | X-H torsion
[ 11660 11631 11630 11629 ] final   64.15 input   60.02 | X-H torsion
[ 11213 11201 11202 11203 ] final -128.80 input   18.84 | X-H torsion
[ 11249 11237 11238 11239 ] final   29.74 input  111.29 | X-H torsion
[ 11182 11153 11154 11155 ] final  142.98 input   30.50 | X-H torsion
[ 11292 11275 11276 11277 ] final  -59.62 input   58.53 | X-H torsion
[ 9445 9430 9431 9432 ] final  -57.41 input  110.06 | X-H torsion
[ 11493 11474 11475 11476 ] final  162.24 input  115.95 | X-H torsion
[ 11385 11366 11367 11368 ] final    3.73 input  117.79 | X-H torsion
[ 11568 11550 11549 11547 ] final  145.58 input   59.97 | X-H torsion
[ 9362 9348 9346 9343 ] final -141.26 input   60.02 | X-H torsion
[ 9502 9481 9482 9483 ] final  -93.17 input   75.78 | X-H torsion
[ 15476 15466 15465 15463 ] final  -21.79 input   60.00 | X-H torsion
[ 7768 7731 7730 7729 ] final -137.03 input   60.02 | X-H torsion
[ 7852 7831 7832 7833 ] final   77.24 input  113.97 | X-H torsion
[ 5737 5717 5718 5719 ] final  -68.70 input  137.93 | X-H torsion
[ 5778 5767 5768 5769 ] final   13.63 input  116.46 | X-H torsion
[ 1832 1818 1819 1820 ] final   67.39 input   43.70 | X-H torsion
[ 5782 5772 5771 5768 ] final  -44.27 input   59.97 | X-H torsion
[ 15411 15403 15404 15405 ] final   35.96 input  102.24 | X-H torsion
[ 1801 1791 1792 1793 ] final  -22.01 input  -10.55 | X-H torsion
[ 5638 5617 5618 5619 ] final -144.54 input   93.34 | X-H torsion
[ 7894 7874 7875 7876 ] final   45.30 input   68.03 | X-H torsion
[ 1838 1824 1822 1819 ] final -177.88 input   60.02 | X-H torsion
[ 1861 1854 1855 1856 ] final   13.77 input   57.50 | X-H torsion
[ 9356 9342 9343 9344 ] final   23.09 input   55.58 | X-H torsion
[ 9510 9492 9491 9489 ] final    2.74 input   60.02 | X-H torsion
[ 7758 7723 7724 7725 ] final -149.58 input   17.81 | X-H torsion
[ 1898 1884 1883 1880 ] final  131.67 input   60.01 | X-H torsion
[ 9322 9315 9316 9317 ] final   32.58 input  -36.21 | X-H torsion
[ 1894 1879 1880 1881 ] final -156.42 input   98.21 | X-H torsion
[ 9297 9286 9287 9288 ] final  129.88 input   37.00 | X-H torsion
[ 9252 9233 9234 9235 ] final  -84.84 input   95.32 | X-H torsion
[ 3370 3362 3363 3364 ] final -173.47 input   97.92 | X-H torsion
[ 1951 1922 1923 1924 ] final -146.06 input  104.43 | X-H torsion
[ 12164 12148 12149 12150 ] final  138.33 input  116.04 | X-H torsion
[ 11673 11649 11648 11647 ] final  -13.71 input   59.99 | X-H torsion
[ 12008 11984 11985 11986 ] final   96.00 input   61.04 | X-H torsion
[ 11122 11093 11094 11095 ] final  144.73 input   39.50 | X-H torsion
[ 7946 7916 7917 7918 ] final   -8.09 input   66.66 | X-H torsion
[ 8659 8630 8631 8632 ] final  172.35 input   75.31 | X-H torsion
[ 9555 9536 9537 9538 ] final   42.93 input  103.50 | X-H torsion
[ 16472 10886 10885 10884 ] final -115.38 input    0.00 | X-H torsion
[ 16475 11004 11003 11002 ] final   74.43 input    0.00 | X-H torsion
[ 16477 10914 10913 10912 ] final  127.84 input    0.00 | X-H torsion
[ 16479 10951 10950 10949 ] final -166.13 input   -0.00 | X-H torsion
[ 16484 11987 11986 11985 ] final  -97.26 input    0.00 | X-H torsion
[ 16486 12059 12058 12057 ] final -166.15 input   -0.00 | X-H torsion
[ 16490 11046 11045 11044 ] final -166.20 input    0.00 | X-H torsion
[ 16500 6108 6107 6106 ] final  176.87 input    0.00 | X-H torsion
[ 16503 5921 5920 5919 ] final -167.65 input   -0.00 | X-H torsion
[ 16506 6059 6058 6057 ] final   29.18 input    0.00 | X-H torsion
[ 16510 5858 5857 5856 ] final  -45.19 input    0.00 | X-H torsion
[ 16518 5993 5992 5991 ] final   -4.36 input   -0.00 | X-H torsion
[ 16523 11156 11155 11154 ] final   19.54 input    0.00 | X-H torsion
[ 16528 11204 11203 11202 ] final -128.14 input    0.00 | X-H torsion
[ 16540 11096 11095 11094 ] final   12.48 input   -0.00 | X-H torsion
[ 16544 10768 10767 10766 ] final -102.96 input   -0.00 | X-H torsion
[ 16552 11240 11239 11238 ] final  127.33 input    0.00 | X-H torsion
[ 16558 11278 11277 11276 ] final  172.64 input   -0.00 | X-H torsion
[ 16562 11325 11324 11323 ] final   58.91 input   -0.00 | X-H torsion
[ 16566 9387 9386 9385 ] final    2.99 input   -0.00 | X-H torsion
[ 16570 9345 9344 9343 ] final  -85.97 input    0.00 | X-H torsion
[ 16579 5720 5719 5718 ] final  -77.54 input    0.00 | X-H torsion
[ 16592 1821 1820 1819 ] final  -46.62 input    0.00 | X-H torsion
[ 16594 7834 7833 7832 ] final  117.98 input    0.00 | X-H torsion
[ 16600 1745 1744 1743 ] final  -90.13 input    0.00 | X-H torsion
[ 16608 5620 5619 5618 ] final -128.17 input   -0.00 | X-H torsion
[ 16610 7788 7787 7786 ] final  144.64 input   -0.00 | X-H torsion
[ 16613 1794 1793 1792 ] final  -80.36 input   -0.00 | X-H torsion
[ 16622 9318 9317 9316 ] final   92.65 input   -0.00 | X-H torsion
[ 16627 9433 9432 9431 ] final  -76.15 input    0.00 | X-H torsion
[ 16631 7667 7666 7665 ] final  117.90 input   -0.00 | X-H torsion
[ 16635 7726 7725 7724 ] final  155.87 input    0.00 | X-H torsion
[ 16637 10539 10538 10537 ] final  -36.88 input   -0.00 | X-H torsion
[ 16643 1857 1856 1855 ] final -118.48 input    0.00 | X-H torsion
[ 16645 7565 7564 7563 ] final   89.63 input    0.00 | X-H torsion
[ 16647 9289 9288 9287 ] final   10.95 input    0.00 | X-H torsion
[ 16649 9236 9235 9234 ] final   25.00 input    0.00 | X-H torsion
[ 16655 3365 3364 3363 ] final  -70.62 input    0.00 | X-H torsion

> <Gold.Protein.ActiveResidues>
 LEU49   GLY50   THR51   GLY52   SER53   PHE54   VAL57   LEU82   LYS83   GLN84  
 HIS87   GLU127  PHE129  SER130  LEU132  ARG133  ARG134  ILE135  GLY136  ARG137 
 ARG165  ASP166  LEU167  LYS168  PRO169  GLU170  ASN171  LEU172  LEU173  ASP184 
 GLY186  PHE187  TPO197  LEU198  CYS199  GLY200  THR201  PRO202  GLU203  TYR204 
 LEU205  ILE209  ILE210  VAL226  LEU227  TYR229  GLU230  ALA233  GLY234  TYR235 
 PRO236  PRO237  PHE238  PHE239  ALA240  ASP241  GLN242  PRO243  ILE244  GLN245 
 ILE246  TYR247  GLU248  LYS249  ILE250  VAL251  SER252  LYS254  ARG256  PHE257 
 PRO258  SER259  PHE327  ASP328  TYR330 

> <Gold.Protein.RotatedAtoms>
    1.5471  -14.4404   21.7571 H   0  0  0  0  0  0  0  0  0  0  0  0  # atno 1801 bound_to 1791
   -1.0067  -13.2548   24.5868 H   0  0  0  0  0  0  0  0  0  0  0  0  # atno 1832 bound_to 1818
    0.3530  -14.2047   28.7584 H   0  0  0  0  0  0  0  0  0  0  0  0  # atno 1838 bound_to 1824
   -1.9391  -16.5486   27.4077 H   0  0  0  0  0  0  0  0  0  0  0  0  # atno 1861 bound_to 1854
   -4.3397  -16.0642   30.0921 H   0  0  0  0  0  0  0  0  0  0  0  0  # atno 1894 bound_to 1879
   -6.8175  -16.0114   32.3519 H   0  0  0  0  0  0  0  0  0  0  0  0  # atno 1898 bound_to 1884
   -4.9243  -19.5644   31.3739 H   0  0  0  0  0  0  0  0  0  0  0  0  # atno 1951 bound_to 1922
   -7.3077  -23.7574   36.6693 H   0  0  0  0  0  0  0  0  0  0  0  0  # atno 3370 bound_to 3362
   -4.0788  -11.0100   13.3292 H   0  0  0  0  0  0  0  0  0  0  0  0  # atno 5638 bound_to 5617
   -9.2781   -7.2101   13.9225 H   0  0  0  0  0  0  0  0  0  0  0  0  # atno 5737 bound_to 5717
   -7.2371   -5.8359   14.6999 H   0  0  0  0  0  0  0  0  0  0  0  0  # atno 5778 bound_to 5767
   -4.7945   -6.6830   14.1207 H   0  0  0  0  0  0  0  0  0  0  0  0  # atno 5782 bound_to 5772
   -9.2835   -2.4585   15.2743 H   0  0  0  0  0  0  0  0  0  0  0  0  # atno 5955 bound_to 5918
   -7.1605   -0.5455   14.0077 H   0  0  0  0  0  0  0  0  0  0  0  0  # atno 6027 bound_to 5990
   -8.0684    0.4699   12.0383 H   0  0  0  0  0  0  0  0  0  0  0  0  # atno 6086 bound_to 6056
   -9.9617    2.7089   11.5682 H   0  0  0  0  0  0  0  0  0  0  0  0  # atno 6115 bound_to 6105
  -12.4280    2.5073   10.8752 H   0  0  0  0  0  0  0  0  0  0  0  0  # atno 6177 bound_to 6140
  -16.0844  -13.1272   18.2938 H   0  0  0  0  0  0  0  0  0  0  0  0  # atno 7758 bound_to 7723
  -11.0556  -12.7230   24.1778 H   0  0  0  0  0  0  0  0  0  0  0  0  # atno 7768 bound_to 7731
  -12.2090  -11.5364   24.0827 H   0  0  0  0  0  0  0  0  0  0  0  0  # atno 7769 bound_to 7731
  -12.6265  -13.0600   24.5865 H   0  0  0  0  0  0  0  0  0  0  0  0  # atno 7770 bound_to 7731
  -11.4515  -10.5410   18.1842 H   0  0  0  0  0  0  0  0  0  0  0  0  # atno 7852 bound_to 7831
  -10.9446  -12.4905   17.0609 H   0  0  0  0  0  0  0  0  0  0  0  0  # atno 7894 bound_to 7874
   -9.3326  -13.3729   15.3251 H   0  0  0  0  0  0  0  0  0  0  0  0  # atno 7946 bound_to 7916
  -13.1170  -22.0805   23.9429 H   0  0  0  0  0  0  0  0  0  0  0  0  # atno 8659 bound_to 8630
  -21.7143  -21.1343   30.4017 H   0  0  0  0  0  0  0  0  0  0  0  0  # atno 9252 bound_to 9233
  -19.9314  -19.8009   29.4241 H   0  0  0  0  0  0  0  0  0  0  0  0  # atno 9297 bound_to 9286
  -17.5316  -16.4681   28.0996 H   0  0  0  0  0  0  0  0  0  0  0  0  # atno 9322 bound_to 9315
  -18.0178  -13.5555   25.3324 H   0  0  0  0  0  0  0  0  0  0  0  0  # atno 9356 bound_to 9342
  -13.7076  -12.7435   24.3160 H   0  0  0  0  0  0  0  0  0  0  0  0  # atno 9362 bound_to 9348
  -19.3020   -8.8754   26.2940 H   0  0  0  0  0  0  0  0  0  0  0  0  # atno 9445 bound_to 9430
  -20.2194   -8.6772   23.7618 H   0  0  0  0  0  0  0  0  0  0  0  0  # atno 9502 bound_to 9481
  -16.4058   -7.1223   18.5934 H   0  0  0  0  0  0  0  0  0  0  0  0  # atno 9510 bound_to 9492
  -21.8880  -10.3805   24.5195 H   0  0  0  0  0  0  0  0  0  0  0  0  # atno 9555 bound_to 9536
  -24.5559    1.0301   18.6609 H   0  0  0  0  0  0  0  0  0  0  0  0  # atno 10745 bound_to 10719
  -17.5007   -0.0378   14.5756 H   0  0  0  0  0  0  0  0  0  0  0  0  # atno 10921 bound_to 10911
  -17.2798   -0.0094   16.3663 H   0  0  0  0  0  0  0  0  0  0  0  0  # atno 10978 bound_to 10948
  -22.2998    4.2907   16.8268 H   0  0  0  0  0  0  0  0  0  0  0  0  # atno 10986 bound_to 10959
  -23.4421   -2.8920   22.2073 H   0  0  0  0  0  0  0  0  0  0  0  0  # atno 11122 bound_to 11093
  -21.0937   -1.4070   24.4375 H   0  0  0  0  0  0  0  0  0  0  0  0  # atno 11182 bound_to 11153
  -19.3253   -0.1378   27.4024 H   0  0  0  0  0  0  0  0  0  0  0  0  # atno 11213 bound_to 11201
  -18.2772    0.0933   31.6242 H   0  0  0  0  0  0  0  0  0  0  0  0  # atno 11249 bound_to 11237
  -16.9426   -1.3847   32.1150 H   0  0  0  0  0  0  0  0  0  0  0  0  # atno 11292 bound_to 11275
  -19.9038   -5.1525   33.6169 H   0  0  0  0  0  0  0  0  0  0  0  0  # atno 11385 bound_to 11366
  -21.2159   -3.1945   31.3204 H   0  0  0  0  0  0  0  0  0  0  0  0  # atno 11493 bound_to 11474
  -18.8571  -10.2957   32.5857 H   0  0  0  0  0  0  0  0  0  0  0  0  # atno 11568 bound_to 11550
   -8.2332    9.3366   26.7470 H   0  0  0  0  0  0  0  0  0  0  0  0  # atno 11660 bound_to 11631
   -9.4182    8.2071   26.4905 H   0  0  0  0  0  0  0  0  0  0  0  0  # atno 11661 bound_to 11631
   -8.1886    8.3803   25.3935 H   0  0  0  0  0  0  0  0  0  0  0  0  # atno 11662 bound_to 11631
  -25.2473    2.0273   28.9555 H   0  0  0  0  0  0  0  0  0  0  0  0  # atno 11673 bound_to 11649
  -23.8323    2.8292   28.6329 H   0  0  0  0  0  0  0  0  0  0  0  0  # atno 11674 bound_to 11649
  -25.0430    2.7970   27.5011 H   0  0  0  0  0  0  0  0  0  0  0  0  # atno 11675 bound_to 11649
  -12.9494   15.1923   23.1492 H   0  0  0  0  0  0  0  0  0  0  0  0  # atno 11816 bound_to 11799
  -16.8188   15.5394   24.0176 H   0  0  0  0  0  0  0  0  0  0  0  0  # atno 11879 bound_to 11856
  -17.7371   14.9713   25.2753 H   0  0  0  0  0  0  0  0  0  0  0  0  # atno 11880 bound_to 11856
  -18.1839   16.3573   24.4829 H   0  0  0  0  0  0  0  0  0  0  0  0  # atno 11881 bound_to 11856
  -27.9756    1.1965   20.4517 H   0  0  0  0  0  0  0  0  0  0  0  0  # atno 12008 bound_to 11984
  -27.3062    3.4257   17.5474 H   0  0  0  0  0  0  0  0  0  0  0  0  # atno 12083 bound_to 12056
  -24.7950    7.9014   13.4509 H   0  0  0  0  0  0  0  0  0  0  0  0  # atno 12164 bound_to 12148
    1.5326   -8.9178   17.9377 H   0  0  0  0  0  0  0  0  0  0  0  0  # atno 15411 bound_to 15403
   -1.2729   -9.8522   20.7171 H   0  0  0  0  0  0  0  0  0  0  0  0  # atno 15476 bound_to 15466
  -13.5343   16.6950   23.3667 LP  0  0  0  0  0  0  0  0  0  0  0  0  # atno 16466 bound_to 11799
  -12.4106   16.4117   22.2163 LP  0  0  0  0  0  0  0  0  0  0  0  0  # atno 16467 bound_to 11799
  -21.3959    5.6318   17.0076 LP  0  0  0  0  0  0  0  0  0  0  0  0  # atno 16468 bound_to 10959
  -22.2981    5.0782   18.2510 LP  0  0  0  0  0  0  0  0  0  0  0  0  # atno 16469 bound_to 10959
  -16.7602    3.4181   13.8330 LP  0  0  0  0  0  0  0  0  0  0  0  0  # atno 16472 bound_to 10886
  -17.9452    3.5190   15.0922 LP  0  0  0  0  0  0  0  0  0  0  0  0  # atno 16473 bound_to 10886
  -16.4052    1.4493   16.7904 LP  0  0  0  0  0  0  0  0  0  0  0  0  # atno 16474 bound_to 10948
  -20.4649    0.1791   20.4189 LP  0  0  0  0  0  0  0  0  0  0  0  0  # atno 16475 bound_to 11004
  -20.8315   -0.6062   21.9186 LP  0  0  0  0  0  0  0  0  0  0  0  0  # atno 16476 bound_to 11004
  -14.6780    1.7446   17.9482 LP  0  0  0  0  0  0  0  0  0  0  0  0  # atno 16477 bound_to 10914
  -13.8329    0.5707   16.9954 LP  0  0  0  0  0  0  0  0  0  0  0  0  # atno 16478 bound_to 10914
  -20.0530   -1.1566   17.9221 LP  0  0  0  0  0  0  0  0  0  0  0  0  # atno 16479 bound_to 10951
  -19.0304   -0.2484   16.8594 LP  0  0  0  0  0  0  0  0  0  0  0  0  # atno 16480 bound_to 10951
  -24.2495    1.7842   17.2520 LP  0  0  0  0  0  0  0  0  0  0  0  0  # atno 16482 bound_to 10719
  -23.0453    1.5337   18.3261 LP  0  0  0  0  0  0  0  0  0  0  0  0  # atno 16483 bound_to 10719
  -25.5243    2.2144   18.0801 LP  0  0  0  0  0  0  0  0  0  0  0  0  # atno 16484 bound_to 11987
  -26.4502    0.7901   17.7422 LP  0  0  0  0  0  0  0  0  0  0  0  0  # atno 16485 bound_to 11987
  -26.5239    6.2212   14.7976 LP  0  0  0  0  0  0  0  0  0  0  0  0  # atno 16486 bound_to 12059
  -27.7144    5.3899   15.7420 LP  0  0  0  0  0  0  0  0  0  0  0  0  # atno 16487 bound_to 12059
  -24.3697   -0.5932   23.2569 LP  0  0  0  0  0  0  0  0  0  0  0  0  # atno 16490 bound_to 11046
  -25.0154   -0.5227   21.6513 LP  0  0  0  0  0  0  0  0  0  0  0  0  # atno 16491 bound_to 11046
  -28.6978    2.9712   16.5943 LP  0  0  0  0  0  0  0  0  0  0  0  0  # atno 16492 bound_to 12056
  -17.3355    1.5147   13.7833 LP  0  0  0  0  0  0  0  0  0  0  0  0  # atno 16493 bound_to 10911
  -13.8183    0.6624   13.3609 LP  0  0  0  0  0  0  0  0  0  0  0  0  # atno 16500 bound_to 6108
  -12.5596    1.1036   14.4659 LP  0  0  0  0  0  0  0  0  0  0  0  0  # atno 16501 bound_to 6108
  -12.9807    2.3644   12.5273 LP  0  0  0  0  0  0  0  0  0  0  0  0  # atno 16502 bound_to 6140
   -8.0519    2.5619   14.7983 LP  0  0  0  0  0  0  0  0  0  0  0  0  # atno 16503 bound_to 5921
   -9.0692    2.0589   16.1068 LP  0  0  0  0  0  0  0  0  0  0  0  0  # atno 16504 bound_to 5921
   -9.7196    1.6308   12.9261 LP  0  0  0  0  0  0  0  0  0  0  0  0  # atno 16505 bound_to 6105
   -9.7851    4.3213   10.1418 LP  0  0  0  0  0  0  0  0  0  0  0  0  # atno 16506 bound_to 6059
  -10.2905    4.7139   11.7512 LP  0  0  0  0  0  0  0  0  0  0  0  0  # atno 16507 bound_to 6059
   -9.9744    0.2603   12.6042 LP  0  0  0  0  0  0  0  0  0  0  0  0  # atno 16510 bound_to 5858
  -10.5413    0.5123   14.2213 LP  0  0  0  0  0  0  0  0  0  0  0  0  # atno 16511 bound_to 5858
   -9.1090   -1.2975   13.9816 LP  0  0  0  0  0  0  0  0  0  0  0  0  # atno 16516 bound_to 5918
   -7.4765    0.6041   15.2933 LP  0  0  0  0  0  0  0  0  0  0  0  0  # atno 16517 bound_to 5990
   -6.2093    3.7993   13.0664 LP  0  0  0  0  0  0  0  0  0  0  0  0  # atno 16518 bound_to 5993
   -7.2151    3.7769   11.6565 LP  0  0  0  0  0  0  0  0  0  0  0  0  # atno 16519 bound_to 5993
   -7.0041    1.8364   12.2138 LP  0  0  0  0  0  0  0  0  0  0  0  0  # atno 16520 bound_to 6056
  -21.5750    0.4457   26.6928 LP  0  0  0  0  0  0  0  0  0  0  0  0  # atno 16523 bound_to 11156
  -20.7109    1.2864   27.9364 LP  0  0  0  0  0  0  0  0  0  0  0  0  # atno 16524 bound_to 11156
  -18.9247   -1.5561   28.3520 LP  0  0  0  0  0  0  0  0  0  0  0  0  # atno 16525 bound_to 11201
  -16.3937   -1.4238   30.2111 LP  0  0  0  0  0  0  0  0  0  0  0  0  # atno 16528 bound_to 11204
  -16.4902   -0.4905   28.7552 LP  0  0  0  0  0  0  0  0  0  0  0  0  # atno 16529 bound_to 11204
  -17.5603    1.3055   30.5890 LP  0  0  0  0  0  0  0  0  0  0  0  0  # atno 16530 bound_to 11237
  -21.8933   -1.3742   25.9944 LP  0  0  0  0  0  0  0  0  0  0  0  0  # atno 16533 bound_to 11153
  -21.0085   -4.1687   24.0306 LP  0  0  0  0  0  0  0  0  0  0  0  0  # atno 16540 bound_to 11096
  -19.9185   -3.5605   25.2315 LP  0  0  0  0  0  0  0  0  0  0  0  0  # atno 16541 bound_to 11096
  -17.0571   -1.2588   13.9279 LP  0  0  0  0  0  0  0  0  0  0  0  0  # atno 16544 bound_to 10768
  -15.9458   -2.1121   14.9461 LP  0  0  0  0  0  0  0  0  0  0  0  0  # atno 16545 bound_to 10768
  -14.6815   -1.9062   33.4022 LP  0  0  0  0  0  0  0  0  0  0  0  0  # atno 16552 bound_to 11240
  -14.5668   -1.5602   31.7090 LP  0  0  0  0  0  0  0  0  0  0  0  0  # atno 16553 bound_to 11240
  -17.5549   -0.6628   33.5841 LP  0  0  0  0  0  0  0  0  0  0  0  0  # atno 16554 bound_to 11275
  -19.6461   -4.1594   31.9418 LP  0  0  0  0  0  0  0  0  0  0  0  0  # atno 16558 bound_to 11278
  -19.4897   -2.5661   32.6028 LP  0  0  0  0  0  0  0  0  0  0  0  0  # atno 16559 bound_to 11278
  -17.7269   -8.2659   25.8375 LP  0  0  0  0  0  0  0  0  0  0  0  0  # atno 16561 bound_to 9430
  -20.8715   -7.0470   31.4958 LP  0  0  0  0  0  0  0  0  0  0  0  0  # atno 16562 bound_to 11325
  -21.5273   -5.5008   31.9193 LP  0  0  0  0  0  0  0  0  0  0  0  0  # atno 16563 bound_to 11325
  -22.8565   -3.6838   31.6937 LP  0  0  0  0  0  0  0  0  0  0  0  0  # atno 16564 bound_to 11474
  -19.5933   -6.5800   34.5612 LP  0  0  0  0  0  0  0  0  0  0  0  0  # atno 16565 bound_to 11366
  -21.1233   -9.2293   27.5183 LP  0  0  0  0  0  0  0  0  0  0  0  0  # atno 16566 bound_to 9387
  -21.1520   -8.2632   26.0810 LP  0  0  0  0  0  0  0  0  0  0  0  0  # atno 16567 bound_to 9387
  -18.8281  -10.2145   30.9607 LP  0  0  0  0  0  0  0  0  0  0  0  0  # atno 16568 bound_to 11550
  -19.4835  -11.5120   31.7046 LP  0  0  0  0  0  0  0  0  0  0  0  0  # atno 16569 bound_to 11550
  -18.5344  -10.8944   24.5172 LP  0  0  0  0  0  0  0  0  0  0  0  0  # atno 16570 bound_to 9345
  -19.3346  -11.9246   25.6567 LP  0  0  0  0  0  0  0  0  0  0  0  0  # atno 16571 bound_to 9345
  -14.9489  -13.6730   23.8232 LP  0  0  0  0  0  0  0  0  0  0  0  0  # atno 16572 bound_to 9348
  -14.5417  -13.6203   25.4037 LP  0  0  0  0  0  0  0  0  0  0  0  0  # atno 16573 bound_to 9348
  -18.9607   -9.8519   24.0724 LP  0  0  0  0  0  0  0  0  0  0  0  0  # atno 16574 bound_to 9481
   -8.8042   -3.7843   15.0265 LP  0  0  0  0  0  0  0  0  0  0  0  0  # atno 16579 bound_to 5720
   -8.1353   -3.6475   16.6183 LP  0  0  0  0  0  0  0  0  0  0  0  0  # atno 16580 bound_to 5720
   -1.9261   -9.3299   22.1128 LP  0  0  0  0  0  0  0  0  0  0  0  0  # atno 16587 bound_to 15466
   -2.0141  -10.9093   21.7075 LP  0  0  0  0  0  0  0  0  0  0  0  0  # atno 16588 bound_to 15466
  -10.5589   -9.6708   16.9482 LP  0  0  0  0  0  0  0  0  0  0  0  0  # atno 16591 bound_to 7831
   -2.6285  -13.0223   26.7002 LP  0  0  0  0  0  0  0  0  0  0  0  0  # atno 16592 bound_to 1821
   -4.0481  -13.9341   26.3085 LP  0  0  0  0  0  0  0  0  0  0  0  0  # atno 16593 bound_to 1821
   -7.8848  -13.6260   18.5637 LP  0  0  0  0  0  0  0  0  0  0  0  0  # atno 16594 bound_to 7834
   -7.2542  -12.4810   17.4273 LP  0  0  0  0  0  0  0  0  0  0  0  0  # atno 16595 bound_to 7834
   -8.5010   -8.4380   14.9075 LP  0  0  0  0  0  0  0  0  0  0  0  0  # atno 16596 bound_to 5717
   -6.6460   -6.1257   16.3217 LP  0  0  0  0  0  0  0  0  0  0  0  0  # atno 16597 bound_to 5767
   -0.2818  -12.1151   19.5778 LP  0  0  0  0  0  0  0  0  0  0  0  0  # atno 16600 bound_to 1745
   -0.9139  -13.6388   19.0498 LP  0  0  0  0  0  0  0  0  0  0  0  0  # atno 16601 bound_to 1745
   -0.8736  -14.7488   23.6866 LP  0  0  0  0  0  0  0  0  0  0  0  0  # atno 16602 bound_to 1818
   -3.1783   -6.6197   14.2996 LP  0  0  0  0  0  0  0  0  0  0  0  0  # atno 16603 bound_to 5772
   -3.9325   -5.5791   13.2921 LP  0  0  0  0  0  0  0  0  0  0  0  0  # atno 16604 bound_to 5772
    0.9977   -7.4412   17.1701 LP  0  0  0  0  0  0  0  0  0  0  0  0  # atno 16605 bound_to 15403
    0.6264  -13.9471   20.3521 LP  0  0  0  0  0  0  0  0  0  0  0  0  # atno 16606 bound_to 1791
   -4.1763   -9.2678   13.4809 LP  0  0  0  0  0  0  0  0  0  0  0  0  # atno 16607 bound_to 5617
   -6.7018   -7.2373   13.6803 LP  0  0  0  0  0  0  0  0  0  0  0  0  # atno 16608 bound_to 5620
   -5.3697   -7.9287   12.8158 LP  0  0  0  0  0  0  0  0  0  0  0  0  # atno 16609 bound_to 5620
   -9.0352  -10.0847   15.7472 LP  0  0  0  0  0  0  0  0  0  0  0  0  # atno 16610 bound_to 7788
  -10.2976  -10.6205   14.6892 LP  0  0  0  0  0  0  0  0  0  0  0  0  # atno 16611 bound_to 7788
   -9.5244  -12.5683   18.0703 LP  0  0  0  0  0  0  0  0  0  0  0  0  # atno 16612 bound_to 7874
   -0.2069  -16.6828   23.1242 LP  0  0  0  0  0  0  0  0  0  0  0  0  # atno 16613 bound_to 1794
    1.1646  -15.8811   23.8142 LP  0  0  0  0  0  0  0  0  0  0  0  0  # atno 16614 bound_to 1794
   -0.9083  -15.1973   28.4902 LP  0  0  0  0  0  0  0  0  0  0  0  0  # atno 16615 bound_to 1824
   -0.9986  -13.6238   28.0629 LP  0  0  0  0  0  0  0  0  0  0  0  0  # atno 16616 bound_to 1824
   -2.8628  -15.5584   26.2913 LP  0  0  0  0  0  0  0  0  0  0  0  0  # atno 16617 bound_to 1854
  -14.9723  -14.8841   27.0396 LP  0  0  0  0  0  0  0  0  0  0  0  0  # atno 16622 bound_to 9318
  -16.1577  -14.4860   28.2381 LP  0  0  0  0  0  0  0  0  0  0  0  0  # atno 16623 bound_to 9318
  -16.5772  -14.4083   25.8411 LP  0  0  0  0  0  0  0  0  0  0  0  0  # atno 16624 bound_to 9342
  -21.9700   -7.6181   23.5283 LP  0  0  0  0  0  0  0  0  0  0  0  0  # atno 16627 bound_to 9433
  -20.9780   -7.5822   22.1090 LP  0  0  0  0  0  0  0  0  0  0  0  0  # atno 16628 bound_to 9433
  -17.7773   -7.1584   17.7182 LP  0  0  0  0  0  0  0  0  0  0  0  0  # atno 16629 bound_to 9492
  -16.5837   -8.2309   17.4153 LP  0  0  0  0  0  0  0  0  0  0  0  0  # atno 16630 bound_to 9492
  -16.6814  -12.6176   20.2832 LP  0  0  0  0  0  0  0  0  0  0  0  0  # atno 16631 bound_to 7667
  -17.9477  -12.5788   19.1021 LP  0  0  0  0  0  0  0  0  0  0  0  0  # atno 16632 bound_to 7667
  -14.4566  -13.5791   17.8216 LP  0  0  0  0  0  0  0  0  0  0  0  0  # atno 16634 bound_to 7723
  -12.5855  -12.0330   15.7887 LP  0  0  0  0  0  0  0  0  0  0  0  0  # atno 16635 bound_to 7726
  -13.0482  -13.0836   17.0856 LP  0  0  0  0  0  0  0  0  0  0  0  0  # atno 16636 bound_to 7726
  -21.2148   -5.5755   16.4970 LP  0  0  0  0  0  0  0  0  0  0  0  0  # atno 16637 bound_to 10539
  -19.5835   -6.1556   16.4473 LP  0  0  0  0  0  0  0  0  0  0  0  0  # atno 16638 bound_to 10539
   -5.4573  -15.5860   31.5670 LP  0  0  0  0  0  0  0  0  0  0  0  0  # atno 16639 bound_to 1884
   -5.5564  -15.4131   33.1878 LP  0  0  0  0  0  0  0  0  0  0  0  0  # atno 16640 bound_to 1884
  -17.6580  -17.7929   26.9599 LP  0  0  0  0  0  0  0  0  0  0  0  0  # atno 16641 bound_to 9315
   -4.7858  -17.6629   29.5402 LP  0  0  0  0  0  0  0  0  0  0  0  0  # atno 16642 bound_to 1879
   -1.9069  -17.7083   29.8908 LP  0  0  0  0  0  0  0  0  0  0  0  0  # atno 16643 bound_to 1857
   -1.7195  -15.9962   29.7069 LP  0  0  0  0  0  0  0  0  0  0  0  0  # atno 16644 bound_to 1857
  -17.3997  -18.2308   23.4435 LP  0  0  0  0  0  0  0  0  0  0  0  0  # atno 16645 bound_to 7565
  -18.3449  -16.8421   23.0216 LP  0  0  0  0  0  0  0  0  0  0  0  0  # atno 16646 bound_to 7565
  -20.5302  -17.9485   27.2945 LP  0  0  0  0  0  0  0  0  0  0  0  0  # atno 16647 bound_to 9289
  -19.8128  -16.9822   26.0488 LP  0  0  0  0  0  0  0  0  0  0  0  0  # atno 16648 bound_to 9289
  -18.8642  -19.5609   32.1571 LP  0  0  0  0  0  0  0  0  0  0  0  0  # atno 16649 bound_to 9236
  -17.9817  -18.5544   31.0579 LP  0  0  0  0  0  0  0  0  0  0  0  0  # atno 16650 bound_to 9236
  -20.3329  -18.1024   29.5222 LP  0  0  0  0  0  0  0  0  0  0  0  0  # atno 16653 bound_to 9286
  -21.2259  -21.1045   32.0813 LP  0  0  0  0  0  0  0  0  0  0  0  0  # atno 16654 bound_to 9233
  -11.7515  -22.7994   34.5786 LP  0  0  0  0  0  0  0  0  0  0  0  0  # atno 16655 bound_to 3365
  -11.1229  -23.7633   33.2840 LP  0  0  0  0  0  0  0  0  0  0  0  0  # atno 16656 bound_to 3365
   -8.1953  -25.1334   36.0577 LP  0  0  0  0  0  0  0  0  0  0  0  0  # atno 16657 bound_to 3362
   -4.0544  -19.0397   29.9457 LP  0  0  0  0  0  0  0  0  0  0  0  0  # atno 16658 bound_to 1922

> <Gold.Score>
     Fitness  S(hb_ext) S(vdw_ext)  S(hb_int)    S(int)      intcor
     23.86       0.00      17.39       0.00      -0.05      -0.76

> <Gold.Goldscore.Fitness>
23.8555

> <Gold.Goldscore.Internal.Vdw>
-0.3991

> <Gold.Goldscore.Internal.Torsion>
-0.4133

> <Gold.Goldscore.External.Vdw>
17.3886

> <Gold.Goldscore.Internal.HBond>
0.0000

> <Gold.Goldscore.External.HBond>
0.0000

> <Gold.Goldscore.Internal.Correction>
-0.7585

> <Gold.Goldscore.Internal.Vdw.Weighted>
-0.3991

> <Gold.Goldscore.Internal.Torsion.Weighted>
-0.4133

> <Gold.Goldscore.External.Vdw.Weighted>
23.9094

> <Gold.Goldscore.Internal.HBond.Weighted>
0.0000

> <Gold.Goldscore.External.HBond.Weighted>
0.0000

> <Gold.Goldscore.Internal.Correction.Weighted>
-0.7585

> <Gold.Rescore>
     Score     S(PLP)   S(hbond)     S(cho)   S(metal)  DE(clash)   DE(tors)     intcor
     18.57     -19.02       0.00       0.00       0.00       0.00       0.23       ----

> <Gold.PLP.Fitness>
18.5695

> <Gold.PLP.PLP>
-19.0242

> <Gold.PLP.part.hbond>
0.0000

> <Gold.PLP.part.metal>
0.0000

> <Gold.PLP.part.buried>
0.9572

> <Gold.PLP.part.nonpolar>
-21.5929

> <Gold.PLP.part.repulsive>
0.2052

> <Gold.PLP.ligand.clash>
0.0000

> <Gold.PLP.ligand.torsion>
0.2274

> <Gold.PLP.Chemscore.Hbond>
0.0000

> <Gold.PLP.Chemscore.CHOScore>
0.0000

> <Gold.PLP.Chemscore.Metal>
0.0000

> <Gold.PLP.Chemscore.Internal.Correction>
   9.000000E+99

