#       Name:                GA Fitting Points
#       Creating user name   hitesit
#       Creation time:       Sun Apr 16 02:24:01 2023


#       Fitting Points Used by GA Software.
#

@<TRIPOS>MOLECULE
GA Fitting Points
   986    0    0
SMALL
NO_CHARGES


@<TRIPOS>ATOM
      1 ****       -33.0000  31.2500   6.0000 Du        
      2 ****       -33.0000  31.2500   6.2500 Du        
      3 ****       -32.2500  31.7500   6.0000 Du        
      4 ****       -32.0000  31.7500   5.7500 Du        
      5 ****       -32.0000  31.7500   6.0000 Du        
      6 ****       -31.7500  32.0000   5.7500 Du        
      7 ****       -31.5000  32.0000   5.7500 Du        
      8 ****       -31.5000  32.0000   6.0000 Du        
      9 ****       -31.2500  32.0000   5.7500 Du        
     10 ****       -31.2500  32.0000   6.0000 Du        
     11 ****       -31.0000  32.0000   5.7500 Du        
     12 ****       -29.2500  34.2500   6.2500 Du        
     13 ****       -29.0000  34.2500   6.0000 Du        
     14 ****       -29.0000  34.2500   6.2500 Du        
     15 ****       -29.0000  34.2500   6.5000 Du        
     16 ****       -26.2500  26.5000   3.7500 Du        
     17 ****       -26.2500  26.5000   4.0000 Du        
     18 ****       -26.2500  26.7500   3.7500 Du        
     19 ****       -26.2500  26.7500   4.0000 Du        
     20 ****       -26.2500  27.0000   3.7500 Du        
     21 ****       -26.2500  27.0000   4.0000 Du        
     22 ****       -26.2500  27.2500   3.7500 Du        
     23 ****       -26.2500  27.2500   4.0000 Du        
     24 ****       -26.2500  27.5000   4.0000 Du        
     25 ****       -26.2500  27.7500   4.0000 Du        
     26 ****       -26.2500  28.0000   4.0000 Du        
     27 ****       -26.0000  26.5000   3.7500 Du        
     28 ****       -26.0000  26.5000   4.0000 Du        
     29 ****       -26.0000  26.5000   4.2500 Du        
     30 ****       -26.0000  26.7500   3.7500 Du        
     31 ****       -26.0000  26.7500   4.0000 Du        
     32 ****       -26.0000  26.7500   4.2500 Du        
     33 ****       -26.0000  27.0000   3.7500 Du        
     34 ****       -26.0000  27.0000   4.0000 Du        
     35 ****       -26.0000  27.0000   4.2500 Du        
     36 ****       -26.0000  27.2500   3.7500 Du        
     37 ****       -26.0000  27.2500   4.0000 Du        
     38 ****       -26.0000  27.2500   4.2500 Du        
     39 ****       -26.0000  27.5000   3.7500 Du        
     40 ****       -26.0000  27.5000   4.0000 Du        
     41 ****       -26.0000  27.5000   4.2500 Du        
     42 ****       -26.0000  27.7500   3.7500 Du        
     43 ****       -26.0000  27.7500   4.0000 Du        
     44 ****       -26.0000  27.7500   4.2500 Du        
     45 ****       -26.0000  28.0000   3.7500 Du        
     46 ****       -26.0000  28.0000   4.0000 Du        
     47 ****       -26.0000  28.0000   4.2500 Du        
     48 ****       -26.0000  28.2500   4.0000 Du        
     49 ****       -26.0000  28.2500   4.2500 Du        
     50 ****       -25.7500  26.5000   3.7500 Du        
     51 ****       -25.7500  26.5000   4.0000 Du        
     52 ****       -25.7500  26.7500   3.7500 Du        
     53 ****       -25.7500  26.7500   4.0000 Du        
     54 ****       -25.7500  26.7500   4.2500 Du        
     55 ****       -25.7500  27.0000   3.7500 Du        
     56 ****       -25.7500  27.0000   4.0000 Du        
     57 ****       -25.7500  27.0000   4.2500 Du        
     58 ****       -25.7500  27.2500   3.7500 Du        
     59 ****       -25.7500  27.2500   4.0000 Du        
     60 ****       -25.7500  27.2500   4.2500 Du        
     61 ****       -25.7500  27.5000   3.5000 Du        
     62 ****       -25.7500  27.5000   3.7500 Du        
     63 ****       -25.7500  27.5000   4.0000 Du        
     64 ****       -25.7500  27.5000   4.2500 Du        
     65 ****       -25.7500  27.7500   3.7500 Du        
     66 ****       -25.7500  27.7500   4.0000 Du        
     67 ****       -25.7500  27.7500   4.2500 Du        
     68 ****       -25.7500  28.0000   3.7500 Du        
     69 ****       -25.7500  28.0000   4.0000 Du        
     70 ****       -25.7500  28.0000   4.2500 Du        
     71 ****       -25.7500  28.2500   4.0000 Du        
     72 ****       -25.7500  28.2500   4.2500 Du        
     73 ****       -25.7500  28.5000   4.0000 Du        
     74 ****       -25.5000  26.5000   3.7500 Du        
     75 ****       -25.5000  26.5000   4.0000 Du        
     76 ****       -25.5000  26.7500   3.7500 Du        
     77 ****       -25.5000  26.7500   4.0000 Du        
     78 ****       -25.5000  27.0000   3.7500 Du        
     79 ****       -25.5000  27.0000   4.0000 Du        
     80 ****       -25.5000  27.0000   4.2500 Du        
     81 ****       -25.5000  27.2500   3.7500 Du        
     82 ****       -25.5000  27.2500   4.0000 Du        
     83 ****       -25.5000  27.2500   4.2500 Du        
     84 ****       -25.5000  27.5000   4.0000 Du        
     85 ****       -25.5000  27.5000   4.2500 Du        
     86 ****       -25.5000  27.7500   4.0000 Du        
     87 ****       -25.5000  27.7500   4.2500 Du        
     88 ****       -25.5000  28.0000   4.0000 Du        
     89 ****       -25.5000  28.0000   4.2500 Du        
     90 ****       -25.5000  28.2500   4.0000 Du        
     91 ****       -25.5000  28.2500   4.2500 Du        
     92 ****       -25.5000  28.2500   4.5000 Du        
     93 ****       -25.5000  28.5000   4.0000 Du        
     94 ****       -25.5000  28.5000   4.2500 Du        
     95 ****       -25.5000  28.5000   4.5000 Du        
     96 ****       -25.5000  28.7500   4.2500 Du        
     97 ****       -25.5000  28.7500   4.5000 Du        
     98 ****       -25.2500  26.5000   3.7500 Du        
     99 ****       -25.2500  26.7500   3.7500 Du        
    100 ****       -25.2500  26.7500   4.0000 Du        
    101 ****       -25.2500  27.0000   3.7500 Du        
    102 ****       -25.2500  27.0000   4.0000 Du        
    103 ****       -25.2500  27.2500   3.7500 Du        
    104 ****       -25.2500  27.2500   4.0000 Du        
    105 ****       -25.2500  27.2500   4.2500 Du        
    106 ****       -25.2500  27.5000   4.0000 Du        
    107 ****       -25.2500  27.7500   4.0000 Du        
    108 ****       -25.2500  27.7500   4.2500 Du        
    109 ****       -25.2500  28.0000   4.0000 Du        
    110 ****       -25.2500  28.0000   4.2500 Du        
    111 ****       -25.2500  28.0000   4.5000 Du        
    112 ****       -25.2500  28.2500   4.0000 Du        
    113 ****       -25.2500  28.2500   4.2500 Du        
    114 ****       -25.2500  28.2500   4.5000 Du        
    115 ****       -25.2500  28.5000   4.0000 Du        
    116 ****       -25.2500  28.5000   4.2500 Du        
    117 ****       -25.2500  28.5000   4.5000 Du        
    118 ****       -25.2500  28.7500   4.0000 Du        
    119 ****       -25.2500  28.7500   4.2500 Du        
    120 ****       -25.2500  28.7500   4.5000 Du        
    121 ****       -25.2500  29.0000   4.0000 Du        
    122 ****       -25.2500  29.0000   4.2500 Du        
    123 ****       -25.2500  29.0000   4.5000 Du        
    124 ****       -25.0000  26.7500   3.7500 Du        
    125 ****       -25.0000  27.0000   3.7500 Du        
    126 ****       -25.0000  27.2500   3.7500 Du        
    127 ****       -25.0000  27.2500   4.0000 Du        
    128 ****       -25.0000  28.2500   4.2500 Du        
    129 ****       -25.0000  28.5000   4.0000 Du        
    130 ****       -25.0000  28.5000   4.2500 Du        
    131 ****       -25.0000  28.5000   4.5000 Du        
    132 ****       -25.0000  28.7500   4.0000 Du        
    133 ****       -25.0000  28.7500   4.2500 Du        
    134 ****       -25.0000  28.7500   4.5000 Du        
    135 ****       -25.0000  29.0000   4.0000 Du        
    136 ****       -25.0000  29.0000   4.2500 Du        
    137 ****       -25.0000  29.0000   4.5000 Du        
    138 ****       -25.0000  29.0000   4.7500 Du        
    139 ****       -25.0000  29.2500   4.2500 Du        
    140 ****       -25.0000  29.2500   4.5000 Du        
    141 ****       -25.0000  29.2500   4.7500 Du        
    142 ****       -25.0000  29.5000   4.5000 Du        
    143 ****       -25.0000  29.7500   4.5000 Du        
    144 ****       -25.0000  30.0000   4.5000 Du        
    145 ****       -25.0000  30.2500   4.5000 Du        
    146 ****       -25.0000  31.7500   5.0000 Du        
    147 ****       -25.0000  32.0000   4.7500 Du        
    148 ****       -25.0000  32.0000   5.0000 Du        
    149 ****       -25.0000  32.0000   5.2500 Du        
    150 ****       -25.0000  32.0000   5.5000 Du        
    151 ****       -25.0000  32.2500   4.7500 Du        
    152 ****       -25.0000  32.2500   5.0000 Du        
    153 ****       -25.0000  32.2500   5.2500 Du        
    154 ****       -25.0000  32.2500   5.5000 Du        
    155 ****       -25.0000  37.5000   4.2500 Du        
    156 ****       -25.0000  37.5000   4.5000 Du        
    157 ****       -25.0000  37.7500   4.2500 Du        
    158 ****       -25.0000  37.7500   4.5000 Du        
    159 ****       -24.7500  29.2500   4.2500 Du        
    160 ****       -24.7500  29.2500   4.5000 Du        
    161 ****       -24.7500  29.2500   4.7500 Du        
    162 ****       -24.7500  29.2500   5.0000 Du        
    163 ****       -24.7500  29.5000   4.5000 Du        
    164 ****       -24.7500  29.5000   4.7500 Du        
    165 ****       -24.7500  29.5000   5.0000 Du        
    166 ****       -24.7500  29.7500   4.5000 Du        
    167 ****       -24.7500  29.7500   4.7500 Du        
    168 ****       -24.7500  29.7500   5.0000 Du        
    169 ****       -24.7500  30.0000   4.5000 Du        
    170 ****       -24.7500  30.0000   4.7500 Du        
    171 ****       -24.7500  30.0000   5.0000 Du        
    172 ****       -24.7500  30.2500   4.5000 Du        
    173 ****       -24.7500  30.2500   4.7500 Du        
    174 ****       -24.7500  30.2500   5.0000 Du        
    175 ****       -24.7500  30.5000   4.5000 Du        
    176 ****       -24.7500  30.5000   4.7500 Du        
    177 ****       -24.7500  30.7500   4.5000 Du        
    178 ****       -24.7500  30.7500   4.7500 Du        
    179 ****       -24.7500  30.7500   5.0000 Du        
    180 ****       -24.7500  31.0000   4.5000 Du        
    181 ****       -24.7500  31.0000   4.7500 Du        
    182 ****       -24.7500  31.0000   5.0000 Du        
    183 ****       -24.7500  31.2500   4.5000 Du        
    184 ****       -24.7500  31.2500   4.7500 Du        
    185 ****       -24.7500  31.2500   5.0000 Du        
    186 ****       -24.7500  31.2500   5.2500 Du        
    187 ****       -24.7500  31.5000   4.7500 Du        
    188 ****       -24.7500  31.5000   5.0000 Du        
    189 ****       -24.7500  31.5000   5.2500 Du        
    190 ****       -24.7500  31.5000   5.5000 Du        
    191 ****       -24.7500  31.7500   4.7500 Du        
    192 ****       -24.7500  31.7500   5.0000 Du        
    193 ****       -24.7500  31.7500   5.2500 Du        
    194 ****       -24.7500  31.7500   5.5000 Du        
    195 ****       -24.7500  31.7500   5.7500 Du        
    196 ****       -24.7500  31.7500   6.0000 Du        
    197 ****       -24.7500  32.0000   4.7500 Du        
    198 ****       -24.7500  32.0000   5.0000 Du        
    199 ****       -24.7500  32.0000   5.2500 Du        
    200 ****       -24.7500  32.0000   5.5000 Du        
    201 ****       -24.7500  32.0000   5.7500 Du        
    202 ****       -24.7500  32.0000   6.0000 Du        
    203 ****       -24.7500  32.2500   4.7500 Du        
    204 ****       -24.7500  32.2500   5.0000 Du        
    205 ****       -24.7500  32.2500   5.2500 Du        
    206 ****       -24.7500  32.2500   5.5000 Du        
    207 ****       -24.7500  32.2500   5.7500 Du        
    208 ****       -24.7500  36.5000   4.5000 Du        
    209 ****       -24.7500  36.7500   4.5000 Du        
    210 ****       -24.7500  37.0000   4.5000 Du        
    211 ****       -24.7500  37.2500   4.2500 Du        
    212 ****       -24.7500  37.2500   4.5000 Du        
    213 ****       -24.7500  37.5000   4.2500 Du        
    214 ****       -24.7500  37.5000   4.5000 Du        
    215 ****       -24.7500  37.7500   4.0000 Du        
    216 ****       -24.7500  37.7500   4.2500 Du        
    217 ****       -24.7500  37.7500   4.5000 Du        
    218 ****       -24.5000  29.7500   4.5000 Du        
    219 ****       -24.5000  29.7500   4.7500 Du        
    220 ****       -24.5000  29.7500   5.0000 Du        
    221 ****       -24.5000  29.7500   5.2500 Du        
    222 ****       -24.5000  29.7500   5.5000 Du        
    223 ****       -24.5000  30.0000   4.5000 Du        
    224 ****       -24.5000  30.0000   4.7500 Du        
    225 ****       -24.5000  30.0000   5.0000 Du        
    226 ****       -24.5000  30.0000   5.2500 Du        
    227 ****       -24.5000  30.0000   5.5000 Du        
    228 ****       -24.5000  30.2500   4.5000 Du        
    229 ****       -24.5000  30.2500   4.7500 Du        
    230 ****       -24.5000  30.2500   5.0000 Du        
    231 ****       -24.5000  30.2500   5.2500 Du        
    232 ****       -24.5000  30.2500   5.5000 Du        
    233 ****       -24.5000  30.5000   4.5000 Du        
    234 ****       -24.5000  30.5000   4.7500 Du        
    235 ****       -24.5000  30.5000   5.0000 Du        
    236 ****       -24.5000  30.5000   5.2500 Du        
    237 ****       -24.5000  30.5000   5.5000 Du        
    238 ****       -24.5000  30.7500   4.5000 Du        
    239 ****       -24.5000  30.7500   4.7500 Du        
    240 ****       -24.5000  30.7500   5.0000 Du        
    241 ****       -24.5000  30.7500   5.2500 Du        
    242 ****       -24.5000  30.7500   5.5000 Du        
    243 ****       -24.5000  30.7500   5.7500 Du        
    244 ****       -24.5000  31.0000   4.5000 Du        
    245 ****       -24.5000  31.0000   4.7500 Du        
    246 ****       -24.5000  31.0000   5.0000 Du        
    247 ****       -24.5000  31.0000   5.2500 Du        
    248 ****       -24.5000  31.0000   5.5000 Du        
    249 ****       -24.5000  31.0000   5.7500 Du        
    250 ****       -24.5000  31.0000   6.0000 Du        
    251 ****       -24.5000  31.2500   4.5000 Du        
    252 ****       -24.5000  31.2500   4.7500 Du        
    253 ****       -24.5000  31.2500   5.0000 Du        
    254 ****       -24.5000  31.2500   5.2500 Du        
    255 ****       -24.5000  31.2500   5.5000 Du        
    256 ****       -24.5000  31.2500   5.7500 Du        
    257 ****       -24.5000  31.2500   6.0000 Du        
    258 ****       -24.5000  31.2500   6.2500 Du        
    259 ****       -24.5000  31.5000   4.5000 Du        
    260 ****       -24.5000  31.5000   4.7500 Du        
    261 ****       -24.5000  31.5000   5.0000 Du        
    262 ****       -24.5000  31.5000   5.2500 Du        
    263 ****       -24.5000  31.5000   5.5000 Du        
    264 ****       -24.5000  31.5000   5.7500 Du        
    265 ****       -24.5000  31.5000   6.0000 Du        
    266 ****       -24.5000  31.5000   6.2500 Du        
    267 ****       -24.5000  31.5000   6.5000 Du        
    268 ****       -24.5000  31.7500   4.5000 Du        
    269 ****       -24.5000  31.7500   4.7500 Du        
    270 ****       -24.5000  31.7500   5.0000 Du        
    271 ****       -24.5000  31.7500   5.2500 Du        
    272 ****       -24.5000  31.7500   5.5000 Du        
    273 ****       -24.5000  31.7500   5.7500 Du        
    274 ****       -24.5000  31.7500   6.0000 Du        
    275 ****       -24.5000  31.7500   6.2500 Du        
    276 ****       -24.5000  31.7500   6.5000 Du        
    277 ****       -24.5000  32.0000   4.7500 Du        
    278 ****       -24.5000  32.0000   5.0000 Du        
    279 ****       -24.5000  32.0000   5.2500 Du        
    280 ****       -24.5000  32.0000   5.5000 Du        
    281 ****       -24.5000  32.0000   5.7500 Du        
    282 ****       -24.5000  32.0000   6.0000 Du        
    283 ****       -24.5000  32.2500   4.7500 Du        
    284 ****       -24.5000  32.2500   5.0000 Du        
    285 ****       -24.5000  32.2500   5.2500 Du        
    286 ****       -24.5000  32.2500   5.5000 Du        
    287 ****       -24.5000  32.2500   5.7500 Du        
    288 ****       -24.5000  36.5000   4.2500 Du        
    289 ****       -24.5000  36.5000   4.5000 Du        
    290 ****       -24.5000  36.7500   4.0000 Du        
    291 ****       -24.5000  36.7500   4.2500 Du        
    292 ****       -24.5000  36.7500   4.5000 Du        
    293 ****       -24.5000  37.0000   4.0000 Du        
    294 ****       -24.5000  37.0000   4.2500 Du        
    295 ****       -24.5000  37.0000   4.5000 Du        
    296 ****       -24.5000  37.2500   4.0000 Du        
    297 ****       -24.5000  37.2500   4.2500 Du        
    298 ****       -24.5000  37.2500   4.5000 Du        
    299 ****       -24.5000  37.5000   4.0000 Du        
    300 ****       -24.5000  37.5000   4.2500 Du        
    301 ****       -24.5000  37.5000   4.5000 Du        
    302 ****       -24.5000  37.7500   4.0000 Du        
    303 ****       -24.5000  37.7500   4.2500 Du        
    304 ****       -24.5000  37.7500   4.5000 Du        
    305 ****       -24.5000  38.0000   4.0000 Du        
    306 ****       -24.5000  38.0000   4.2500 Du        
    307 ****       -24.5000  38.0000   4.5000 Du        
    308 ****       -24.2500  29.7500   5.0000 Du        
    309 ****       -24.2500  29.7500   5.2500 Du        
    310 ****       -24.2500  29.7500   5.5000 Du        
    311 ****       -24.2500  29.7500   5.7500 Du        
    312 ****       -24.2500  29.7500   6.0000 Du        
    313 ****       -24.2500  30.0000   4.5000 Du        
    314 ****       -24.2500  30.0000   4.7500 Du        
    315 ****       -24.2500  30.0000   5.0000 Du        
    316 ****       -24.2500  30.0000   5.2500 Du        
    317 ****       -24.2500  30.0000   5.5000 Du        
    318 ****       -24.2500  30.0000   5.7500 Du        
    319 ****       -24.2500  30.0000   6.0000 Du        
    320 ****       -24.2500  30.0000   6.2500 Du        
    321 ****       -24.2500  30.2500   4.5000 Du        
    322 ****       -24.2500  30.2500   4.7500 Du        
    323 ****       -24.2500  30.2500   5.0000 Du        
    324 ****       -24.2500  30.2500   5.2500 Du        
    325 ****       -24.2500  30.2500   5.5000 Du        
    326 ****       -24.2500  30.2500   5.7500 Du        
    327 ****       -24.2500  30.2500   6.0000 Du        
    328 ****       -24.2500  30.2500   6.2500 Du        
    329 ****       -24.2500  30.5000   4.5000 Du        
    330 ****       -24.2500  30.5000   4.7500 Du        
    331 ****       -24.2500  30.5000   5.0000 Du        
    332 ****       -24.2500  30.5000   5.2500 Du        
    333 ****       -24.2500  30.5000   5.5000 Du        
    334 ****       -24.2500  30.5000   5.7500 Du        
    335 ****       -24.2500  30.5000   6.0000 Du        
    336 ****       -24.2500  30.5000   6.2500 Du        
    337 ****       -24.2500  30.5000   6.5000 Du        
    338 ****       -24.2500  30.7500   4.5000 Du        
    339 ****       -24.2500  30.7500   4.7500 Du        
    340 ****       -24.2500  30.7500   5.0000 Du        
    341 ****       -24.2500  30.7500   5.2500 Du        
    342 ****       -24.2500  30.7500   5.5000 Du        
    343 ****       -24.2500  30.7500   5.7500 Du        
    344 ****       -24.2500  30.7500   6.0000 Du        
    345 ****       -24.2500  30.7500   6.2500 Du        
    346 ****       -24.2500  30.7500   6.5000 Du        
    347 ****       -24.2500  30.7500   6.7500 Du        
    348 ****       -24.2500  30.7500   7.0000 Du        
    349 ****       -24.2500  31.0000   4.5000 Du        
    350 ****       -24.2500  31.0000   4.7500 Du        
    351 ****       -24.2500  31.0000   5.0000 Du        
    352 ****       -24.2500  31.0000   5.2500 Du        
    353 ****       -24.2500  31.0000   5.5000 Du        
    354 ****       -24.2500  31.0000   5.7500 Du        
    355 ****       -24.2500  31.0000   6.0000 Du        
    356 ****       -24.2500  31.0000   6.2500 Du        
    357 ****       -24.2500  31.0000   6.5000 Du        
    358 ****       -24.2500  31.0000   6.7500 Du        
    359 ****       -24.2500  31.0000   7.0000 Du        
    360 ****       -24.2500  31.0000   7.2500 Du        
    361 ****       -24.2500  31.2500   4.5000 Du        
    362 ****       -24.2500  31.2500   4.7500 Du        
    363 ****       -24.2500  31.2500   5.0000 Du        
    364 ****       -24.2500  31.2500   5.2500 Du        
    365 ****       -24.2500  31.2500   5.5000 Du        
    366 ****       -24.2500  31.2500   5.7500 Du        
    367 ****       -24.2500  31.2500   6.0000 Du        
    368 ****       -24.2500  31.2500   6.2500 Du        
    369 ****       -24.2500  31.2500   6.5000 Du        
    370 ****       -24.2500  31.2500   6.7500 Du        
    371 ****       -24.2500  31.2500   7.0000 Du        
    372 ****       -24.2500  31.2500   7.2500 Du        
    373 ****       -24.2500  31.2500   7.5000 Du        
    374 ****       -24.2500  31.5000   4.5000 Du        
    375 ****       -24.2500  31.5000   4.7500 Du        
    376 ****       -24.2500  31.5000   5.0000 Du        
    377 ****       -24.2500  31.5000   5.2500 Du        
    378 ****       -24.2500  31.5000   5.5000 Du        
    379 ****       -24.2500  31.5000   5.7500 Du        
    380 ****       -24.2500  31.5000   6.0000 Du        
    381 ****       -24.2500  31.5000   6.2500 Du        
    382 ****       -24.2500  31.5000   6.5000 Du        
    383 ****       -24.2500  31.5000   6.7500 Du        
    384 ****       -24.2500  31.5000   7.0000 Du        
    385 ****       -24.2500  31.5000   7.2500 Du        
    386 ****       -24.2500  31.7500   4.5000 Du        
    387 ****       -24.2500  31.7500   4.7500 Du        
    388 ****       -24.2500  31.7500   5.0000 Du        
    389 ****       -24.2500  31.7500   5.2500 Du        
    390 ****       -24.2500  31.7500   5.5000 Du        
    391 ****       -24.2500  31.7500   5.7500 Du        
    392 ****       -24.2500  31.7500   6.0000 Du        
    393 ****       -24.2500  31.7500   6.2500 Du        
    394 ****       -24.2500  31.7500   6.5000 Du        
    395 ****       -24.2500  31.7500   6.7500 Du        
    396 ****       -24.2500  31.7500   7.0000 Du        
    397 ****       -24.2500  32.0000   4.7500 Du        
    398 ****       -24.2500  32.0000   5.0000 Du        
    399 ****       -24.2500  32.0000   5.2500 Du        
    400 ****       -24.2500  32.0000   5.5000 Du        
    401 ****       -24.2500  32.0000   5.7500 Du        
    402 ****       -24.2500  32.0000   6.0000 Du        
    403 ****       -24.2500  32.0000   6.2500 Du        
    404 ****       -24.2500  32.0000   6.5000 Du        
    405 ****       -24.2500  32.2500   4.7500 Du        
    406 ****       -24.2500  32.2500   5.0000 Du        
    407 ****       -24.2500  32.2500   5.2500 Du        
    408 ****       -24.2500  32.2500   5.5000 Du        
    409 ****       -24.2500  32.2500   5.7500 Du        
    410 ****       -24.2500  36.5000   4.0000 Du        
    411 ****       -24.2500  36.5000   4.2500 Du        
    412 ****       -24.2500  36.5000   4.5000 Du        
    413 ****       -24.2500  36.7500   4.0000 Du        
    414 ****       -24.2500  36.7500   4.2500 Du        
    415 ****       -24.2500  36.7500   4.5000 Du        
    416 ****       -24.2500  37.0000   3.7500 Du        
    417 ****       -24.2500  37.0000   4.0000 Du        
    418 ****       -24.2500  37.0000   4.2500 Du        
    419 ****       -24.2500  37.0000   4.5000 Du        
    420 ****       -24.2500  37.0000   4.7500 Du        
    421 ****       -24.2500  37.2500   3.7500 Du        
    422 ****       -24.2500  37.2500   4.0000 Du        
    423 ****       -24.2500  37.2500   4.2500 Du        
    424 ****       -24.2500  37.2500   4.5000 Du        
    425 ****       -24.2500  37.2500   4.7500 Du        
    426 ****       -24.2500  37.5000   3.7500 Du        
    427 ****       -24.2500  37.5000   4.0000 Du        
    428 ****       -24.2500  37.5000   4.2500 Du        
    429 ****       -24.2500  37.5000   4.5000 Du        
    430 ****       -24.2500  37.5000   4.7500 Du        
    431 ****       -24.2500  37.7500   3.7500 Du        
    432 ****       -24.2500  37.7500   4.0000 Du        
    433 ****       -24.2500  37.7500   4.2500 Du        
    434 ****       -24.2500  37.7500   4.5000 Du        
    435 ****       -24.2500  37.7500   4.7500 Du        
    436 ****       -24.2500  38.0000   3.7500 Du        
    437 ****       -24.2500  38.0000   4.0000 Du        
    438 ****       -24.2500  38.0000   4.2500 Du        
    439 ****       -24.2500  38.0000   4.5000 Du        
    440 ****       -24.0000  29.7500   5.7500 Du        
    441 ****       -24.0000  29.7500   6.0000 Du        
    442 ****       -24.0000  29.7500   6.2500 Du        
    443 ****       -24.0000  29.7500   6.5000 Du        
    444 ****       -24.0000  30.0000   5.2500 Du        
    445 ****       -24.0000  30.0000   5.5000 Du        
    446 ****       -24.0000  30.0000   5.7500 Du        
    447 ****       -24.0000  30.0000   6.0000 Du        
    448 ****       -24.0000  30.0000   6.2500 Du        
    449 ****       -24.0000  30.0000   6.5000 Du        
    450 ****       -24.0000  30.2500   5.0000 Du        
    451 ****       -24.0000  30.2500   5.2500 Du        
    452 ****       -24.0000  30.2500   5.5000 Du        
    453 ****       -24.0000  30.2500   5.7500 Du        
    454 ****       -24.0000  30.2500   6.0000 Du        
    455 ****       -24.0000  30.2500   6.2500 Du        
    456 ****       -24.0000  30.2500   6.5000 Du        
    457 ****       -24.0000  30.2500   6.7500 Du        
    458 ****       -24.0000  30.5000   4.5000 Du        
    459 ****       -24.0000  30.5000   4.7500 Du        
    460 ****       -24.0000  30.5000   5.0000 Du        
    461 ****       -24.0000  30.5000   5.2500 Du        
    462 ****       -24.0000  30.5000   5.5000 Du        
    463 ****       -24.0000  30.5000   5.7500 Du        
    464 ****       -24.0000  30.5000   6.0000 Du        
    465 ****       -24.0000  30.5000   6.2500 Du        
    466 ****       -24.0000  30.5000   6.5000 Du        
    467 ****       -24.0000  30.5000   6.7500 Du        
    468 ****       -24.0000  30.5000   7.0000 Du        
    469 ****       -24.0000  30.7500   4.5000 Du        
    470 ****       -24.0000  30.7500   4.7500 Du        
    471 ****       -24.0000  30.7500   5.0000 Du        
    472 ****       -24.0000  30.7500   5.2500 Du        
    473 ****       -24.0000  30.7500   5.5000 Du        
    474 ****       -24.0000  30.7500   5.7500 Du        
    475 ****       -24.0000  30.7500   6.0000 Du        
    476 ****       -24.0000  30.7500   6.2500 Du        
    477 ****       -24.0000  30.7500   6.5000 Du        
    478 ****       -24.0000  30.7500   6.7500 Du        
    479 ****       -24.0000  30.7500   7.0000 Du        
    480 ****       -24.0000  30.7500   7.2500 Du        
    481 ****       -24.0000  31.0000   4.5000 Du        
    482 ****       -24.0000  31.0000   4.7500 Du        
    483 ****       -24.0000  31.0000   5.0000 Du        
    484 ****       -24.0000  31.0000   5.2500 Du        
    485 ****       -24.0000  31.0000   5.5000 Du        
    486 ****       -24.0000  31.0000   5.7500 Du        
    487 ****       -24.0000  31.0000   6.0000 Du        
    488 ****       -24.0000  31.0000   6.2500 Du        
    489 ****       -24.0000  31.0000   6.5000 Du        
    490 ****       -24.0000  31.0000   6.7500 Du        
    491 ****       -24.0000  31.0000   7.0000 Du        
    492 ****       -24.0000  31.0000   7.2500 Du        
    493 ****       -24.0000  31.0000   7.5000 Du        
    494 ****       -24.0000  31.0000   7.7500 Du        
    495 ****       -24.0000  31.2500   4.5000 Du        
    496 ****       -24.0000  31.2500   4.7500 Du        
    497 ****       -24.0000  31.2500   5.0000 Du        
    498 ****       -24.0000  31.2500   5.2500 Du        
    499 ****       -24.0000  31.2500   5.5000 Du        
    500 ****       -24.0000  31.2500   5.7500 Du        
    501 ****       -24.0000  31.2500   6.0000 Du        
    502 ****       -24.0000  31.2500   6.2500 Du        
    503 ****       -24.0000  31.2500   6.5000 Du        
    504 ****       -24.0000  31.2500   6.7500 Du        
    505 ****       -24.0000  31.2500   7.0000 Du        
    506 ****       -24.0000  31.2500   7.2500 Du        
    507 ****       -24.0000  31.2500   7.5000 Du        
    508 ****       -24.0000  31.2500   7.7500 Du        
    509 ****       -24.0000  31.2500   8.0000 Du        
    510 ****       -24.0000  31.5000   4.5000 Du        
    511 ****       -24.0000  31.5000   4.7500 Du        
    512 ****       -24.0000  31.5000   5.0000 Du        
    513 ****       -24.0000  31.5000   5.2500 Du        
    514 ****       -24.0000  31.5000   5.5000 Du        
    515 ****       -24.0000  31.5000   5.7500 Du        
    516 ****       -24.0000  31.5000   6.0000 Du        
    517 ****       -24.0000  31.5000   6.2500 Du        
    518 ****       -24.0000  31.5000   6.5000 Du        
    519 ****       -24.0000  31.5000   6.7500 Du        
    520 ****       -24.0000  31.5000   7.0000 Du        
    521 ****       -24.0000  31.5000   7.2500 Du        
    522 ****       -24.0000  31.5000   7.5000 Du        
    523 ****       -24.0000  31.5000   7.7500 Du        
    524 ****       -24.0000  31.7500   4.5000 Du        
    525 ****       -24.0000  31.7500   4.7500 Du        
    526 ****       -24.0000  31.7500   5.0000 Du        
    527 ****       -24.0000  31.7500   5.2500 Du        
    528 ****       -24.0000  31.7500   5.5000 Du        
    529 ****       -24.0000  31.7500   5.7500 Du        
    530 ****       -24.0000  31.7500   6.0000 Du        
    531 ****       -24.0000  31.7500   6.2500 Du        
    532 ****       -24.0000  31.7500   6.5000 Du        
    533 ****       -24.0000  31.7500   6.7500 Du        
    534 ****       -24.0000  31.7500   7.0000 Du        
    535 ****       -24.0000  31.7500   7.2500 Du        
    536 ****       -24.0000  32.0000   4.7500 Du        
    537 ****       -24.0000  32.0000   5.0000 Du        
    538 ****       -24.0000  32.0000   5.2500 Du        
    539 ****       -24.0000  32.0000   5.5000 Du        
    540 ****       -24.0000  32.0000   5.7500 Du        
    541 ****       -24.0000  32.0000   6.0000 Du        
    542 ****       -24.0000  32.0000   6.2500 Du        
    543 ****       -24.0000  32.0000   6.5000 Du        
    544 ****       -24.0000  32.2500   4.7500 Du        
    545 ****       -24.0000  36.7500   4.0000 Du        
    546 ****       -24.0000  36.7500   4.2500 Du        
    547 ****       -24.0000  36.7500   4.5000 Du        
    548 ****       -24.0000  37.0000   3.7500 Du        
    549 ****       -24.0000  37.0000   4.0000 Du        
    550 ****       -24.0000  37.0000   4.2500 Du        
    551 ****       -24.0000  37.0000   4.5000 Du        
    552 ****       -24.0000  37.0000   4.7500 Du        
    553 ****       -24.0000  37.2500   3.7500 Du        
    554 ****       -24.0000  37.2500   4.0000 Du        
    555 ****       -24.0000  37.2500   4.2500 Du        
    556 ****       -24.0000  37.2500   4.5000 Du        
    557 ****       -24.0000  37.2500   4.7500 Du        
    558 ****       -24.0000  37.5000   3.7500 Du        
    559 ****       -24.0000  37.5000   4.0000 Du        
    560 ****       -24.0000  37.5000   4.2500 Du        
    561 ****       -24.0000  37.5000   4.5000 Du        
    562 ****       -24.0000  37.5000   4.7500 Du        
    563 ****       -24.0000  37.7500   3.5000 Du        
    564 ****       -24.0000  37.7500   3.7500 Du        
    565 ****       -24.0000  37.7500   4.0000 Du        
    566 ****       -24.0000  37.7500   4.2500 Du        
    567 ****       -24.0000  37.7500   4.5000 Du        
    568 ****       -24.0000  37.7500   4.7500 Du        
    569 ****       -24.0000  38.0000   3.5000 Du        
    570 ****       -24.0000  38.0000   3.7500 Du        
    571 ****       -24.0000  38.0000   4.0000 Du        
    572 ****       -24.0000  38.0000   4.2500 Du        
    573 ****       -24.0000  38.0000   4.5000 Du        
    574 ****       -24.0000  38.0000   4.7500 Du        
    575 ****       -24.0000  38.2500   3.7500 Du        
    576 ****       -24.0000  38.2500   4.0000 Du        
    577 ****       -24.0000  38.2500   4.2500 Du        
    578 ****       -24.0000  38.2500   4.5000 Du        
    579 ****       -23.7500  30.0000   6.0000 Du        
    580 ****       -23.7500  30.0000   6.2500 Du        
    581 ****       -23.7500  30.0000   6.5000 Du        
    582 ****       -23.7500  30.0000   6.7500 Du        
    583 ****       -23.7500  30.2500   5.7500 Du        
    584 ****       -23.7500  30.2500   6.0000 Du        
    585 ****       -23.7500  30.2500   6.2500 Du        
    586 ****       -23.7500  30.2500   6.5000 Du        
    587 ****       -23.7500  30.2500   6.7500 Du        
    588 ****       -23.7500  30.5000   5.5000 Du        
    589 ****       -23.7500  30.5000   5.7500 Du        
    590 ****       -23.7500  30.5000   6.0000 Du        
    591 ****       -23.7500  30.5000   6.2500 Du        
    592 ****       -23.7500  30.5000   6.5000 Du        
    593 ****       -23.7500  30.5000   6.7500 Du        
    594 ****       -23.7500  30.5000   7.0000 Du        
    595 ****       -23.7500  30.7500   5.2500 Du        
    596 ****       -23.7500  30.7500   5.5000 Du        
    597 ****       -23.7500  30.7500   5.7500 Du        
    598 ****       -23.7500  30.7500   6.0000 Du        
    599 ****       -23.7500  30.7500   6.2500 Du        
    600 ****       -23.7500  30.7500   6.5000 Du        
    601 ****       -23.7500  30.7500   6.7500 Du        
    602 ****       -23.7500  30.7500   7.0000 Du        
    603 ****       -23.7500  30.7500   7.2500 Du        
    604 ****       -23.7500  31.0000   5.0000 Du        
    605 ****       -23.7500  31.0000   5.2500 Du        
    606 ****       -23.7500  31.0000   5.5000 Du        
    607 ****       -23.7500  31.0000   5.7500 Du        
    608 ****       -23.7500  31.0000   6.0000 Du        
    609 ****       -23.7500  31.0000   6.2500 Du        
    610 ****       -23.7500  31.0000   6.5000 Du        
    611 ****       -23.7500  31.0000   6.7500 Du        
    612 ****       -23.7500  31.0000   7.0000 Du        
    613 ****       -23.7500  31.0000   7.2500 Du        
    614 ****       -23.7500  31.0000   7.5000 Du        
    615 ****       -23.7500  31.0000   7.7500 Du        
    616 ****       -23.7500  31.2500   5.0000 Du        
    617 ****       -23.7500  31.2500   5.2500 Du        
    618 ****       -23.7500  31.2500   5.5000 Du        
    619 ****       -23.7500  31.2500   5.7500 Du        
    620 ****       -23.7500  31.2500   6.0000 Du        
    621 ****       -23.7500  31.2500   6.2500 Du        
    622 ****       -23.7500  31.2500   6.5000 Du        
    623 ****       -23.7500  31.2500   6.7500 Du        
    624 ****       -23.7500  31.2500   7.0000 Du        
    625 ****       -23.7500  31.2500   7.2500 Du        
    626 ****       -23.7500  31.2500   7.5000 Du        
    627 ****       -23.7500  31.2500   7.7500 Du        
    628 ****       -23.7500  31.2500   8.0000 Du        
    629 ****       -23.7500  31.5000   5.0000 Du        
    630 ****       -23.7500  31.5000   5.2500 Du        
    631 ****       -23.7500  31.5000   5.5000 Du        
    632 ****       -23.7500  31.5000   5.7500 Du        
    633 ****       -23.7500  31.5000   6.0000 Du        
    634 ****       -23.7500  31.5000   6.2500 Du        
    635 ****       -23.7500  31.5000   6.5000 Du        
    636 ****       -23.7500  31.5000   6.7500 Du        
    637 ****       -23.7500  31.5000   7.0000 Du        
    638 ****       -23.7500  31.5000   7.2500 Du        
    639 ****       -23.7500  31.5000   7.5000 Du        
    640 ****       -23.7500  31.5000   7.7500 Du        
    641 ****       -23.7500  31.7500   5.0000 Du        
    642 ****       -23.7500  31.7500   5.2500 Du        
    643 ****       -23.7500  31.7500   5.5000 Du        
    644 ****       -23.7500  31.7500   5.7500 Du        
    645 ****       -23.7500  31.7500   6.0000 Du        
    646 ****       -23.7500  31.7500   6.2500 Du        
    647 ****       -23.7500  31.7500   6.5000 Du        
    648 ****       -23.7500  31.7500   6.7500 Du        
    649 ****       -23.7500  31.7500   7.0000 Du        
    650 ****       -23.7500  31.7500   7.2500 Du        
    651 ****       -23.7500  37.2500   3.7500 Du        
    652 ****       -23.7500  37.2500   4.0000 Du        
    653 ****       -23.7500  37.2500   4.2500 Du        
    654 ****       -23.7500  37.2500   4.5000 Du        
    655 ****       -23.7500  37.2500   4.7500 Du        
    656 ****       -23.7500  37.5000   3.5000 Du        
    657 ****       -23.7500  37.5000   3.7500 Du        
    658 ****       -23.7500  37.5000   4.0000 Du        
    659 ****       -23.7500  37.5000   4.2500 Du        
    660 ****       -23.7500  37.5000   4.5000 Du        
    661 ****       -23.7500  37.5000   4.7500 Du        
    662 ****       -23.7500  37.5000   5.0000 Du        
    663 ****       -23.7500  37.7500   3.5000 Du        
    664 ****       -23.7500  37.7500   3.7500 Du        
    665 ****       -23.7500  37.7500   4.0000 Du        
    666 ****       -23.7500  37.7500   4.2500 Du        
    667 ****       -23.7500  37.7500   4.5000 Du        
    668 ****       -23.7500  37.7500   4.7500 Du        
    669 ****       -23.7500  37.7500   5.0000 Du        
    670 ****       -23.7500  38.0000   3.5000 Du        
    671 ****       -23.7500  38.0000   3.7500 Du        
    672 ****       -23.7500  38.0000   4.0000 Du        
    673 ****       -23.7500  38.0000   4.2500 Du        
    674 ****       -23.7500  38.0000   4.5000 Du        
    675 ****       -23.7500  38.0000   4.7500 Du        
    676 ****       -23.7500  38.0000   5.0000 Du        
    677 ****       -23.7500  38.2500   3.5000 Du        
    678 ****       -23.7500  38.2500   3.7500 Du        
    679 ****       -23.7500  38.2500   4.0000 Du        
    680 ****       -23.7500  38.2500   4.2500 Du        
    681 ****       -23.7500  38.2500   4.5000 Du        
    682 ****       -23.7500  38.2500   4.7500 Du        
    683 ****       -23.5000  30.2500   6.5000 Du        
    684 ****       -23.5000  30.5000   6.5000 Du        
    685 ****       -23.5000  30.5000   6.7500 Du        
    686 ****       -23.5000  30.5000   7.0000 Du        
    687 ****       -23.5000  30.7500   6.2500 Du        
    688 ****       -23.5000  30.7500   6.5000 Du        
    689 ****       -23.5000  30.7500   6.7500 Du        
    690 ****       -23.5000  30.7500   7.0000 Du        
    691 ****       -23.5000  30.7500   7.2500 Du        
    692 ****       -23.5000  31.0000   6.0000 Du        
    693 ****       -23.5000  31.0000   6.2500 Du        
    694 ****       -23.5000  31.0000   6.5000 Du        
    695 ****       -23.5000  31.0000   6.7500 Du        
    696 ****       -23.5000  31.0000   7.0000 Du        
    697 ****       -23.5000  31.0000   7.2500 Du        
    698 ****       -23.5000  31.0000   7.5000 Du        
    699 ****       -23.5000  31.2500   6.0000 Du        
    700 ****       -23.5000  31.2500   6.2500 Du        
    701 ****       -23.5000  31.2500   6.5000 Du        
    702 ****       -23.5000  31.2500   6.7500 Du        
    703 ****       -23.5000  31.2500   7.0000 Du        
    704 ****       -23.5000  31.2500   7.2500 Du        
    705 ****       -23.5000  31.2500   7.5000 Du        
    706 ****       -23.5000  31.2500   7.7500 Du        
    707 ****       -23.5000  31.5000   6.5000 Du        
    708 ****       -23.5000  31.5000   6.7500 Du        
    709 ****       -23.5000  31.5000   7.0000 Du        
    710 ****       -23.5000  31.5000   7.2500 Du        
    711 ****       -23.5000  31.5000   7.5000 Du        
    712 ****       -23.5000  31.5000   7.7500 Du        
    713 ****       -23.5000  37.5000   3.7500 Du        
    714 ****       -23.5000  37.5000   4.0000 Du        
    715 ****       -23.5000  37.5000   4.2500 Du        
    716 ****       -23.5000  37.5000   4.5000 Du        
    717 ****       -23.5000  37.5000   4.7500 Du        
    718 ****       -23.5000  37.7500   3.5000 Du        
    719 ****       -23.5000  37.7500   3.7500 Du        
    720 ****       -23.5000  37.7500   4.0000 Du        
    721 ****       -23.5000  37.7500   4.2500 Du        
    722 ****       -23.5000  37.7500   4.5000 Du        
    723 ****       -23.5000  37.7500   4.7500 Du        
    724 ****       -23.5000  37.7500   5.0000 Du        
    725 ****       -23.5000  38.0000   3.5000 Du        
    726 ****       -23.5000  38.0000   3.7500 Du        
    727 ****       -23.5000  38.0000   4.0000 Du        
    728 ****       -23.5000  38.0000   4.2500 Du        
    729 ****       -23.5000  38.0000   4.5000 Du        
    730 ****       -23.5000  38.0000   4.7500 Du        
    731 ****       -23.5000  38.0000   5.0000 Du        
    732 ****       -23.5000  38.2500   3.5000 Du        
    733 ****       -23.5000  38.2500   3.7500 Du        
    734 ****       -23.5000  38.2500   4.0000 Du        
    735 ****       -23.5000  38.2500   4.2500 Du        
    736 ****       -23.5000  38.2500   4.5000 Du        
    737 ****       -23.5000  38.2500   4.7500 Du        
    738 ****       -23.5000  38.2500   5.0000 Du        
    739 ****       -23.5000  38.5000   3.7500 Du        
    740 ****       -23.5000  38.5000   4.0000 Du        
    741 ****       -23.2500  31.2500   7.2500 Du        
    742 ****       -23.2500  31.2500   7.5000 Du        
    743 ****       -23.2500  37.7500   3.7500 Du        
    744 ****       -23.2500  37.7500   4.0000 Du        
    745 ****       -23.2500  37.7500   4.2500 Du        
    746 ****       -23.2500  37.7500   4.5000 Du        
    747 ****       -23.2500  38.0000   3.5000 Du        
    748 ****       -23.2500  38.0000   3.7500 Du        
    749 ****       -23.2500  38.0000   4.0000 Du        
    750 ****       -23.2500  38.0000   4.2500 Du        
    751 ****       -23.2500  38.0000   4.5000 Du        
    752 ****       -23.2500  38.0000   4.7500 Du        
    753 ****       -23.2500  38.0000   5.0000 Du        
    754 ****       -23.2500  38.2500   3.5000 Du        
    755 ****       -23.2500  38.2500   3.7500 Du        
    756 ****       -23.2500  38.2500   4.0000 Du        
    757 ****       -23.2500  38.2500   4.2500 Du        
    758 ****       -23.2500  38.2500   4.5000 Du        
    759 ****       -23.2500  38.2500   4.7500 Du        
    760 ****       -23.2500  38.2500   5.0000 Du        
    761 ****       -23.2500  38.5000   3.7500 Du        
    762 ****       -23.2500  38.5000   4.0000 Du        
    763 ****       -23.2500  38.5000   4.2500 Du        
    764 ****       -23.2500  38.5000   4.5000 Du        
    765 ****       -23.2500  38.5000   4.7500 Du        
    766 ****       -23.0000  38.2500   3.7500 Du        
    767 ****       -23.0000  38.2500   4.0000 Du        
    768 ****       -23.0000  38.2500   4.2500 Du        
    769 ****       -23.0000  38.5000   3.7500 Du        
    770 ****       -23.0000  38.5000   4.0000 Du        
    771 ****       -23.0000  38.5000   4.5000 Du        
    772 ****       -22.5000  24.2500   1.7500 Du        
    773 ****       -22.5000  24.5000   1.7500 Du        
    774 ****       -22.5000  24.5000   2.0000 Du        
    775 ****       -22.5000  24.7500   1.7500 Du        
    776 ****       -22.5000  24.7500   2.0000 Du        
    777 ****       -22.5000  25.0000   2.0000 Du        
    778 ****       -22.5000  25.2500   2.0000 Du        
    779 ****       -22.2500  24.0000   1.7500 Du        
    780 ****       -22.2500  24.2500   1.7500 Du        
    781 ****       -22.2500  24.2500   2.0000 Du        
    782 ****       -22.2500  24.5000   1.5000 Du        
    783 ****       -22.2500  24.5000   1.7500 Du        
    784 ****       -22.2500  24.5000   2.0000 Du        
    785 ****       -22.2500  24.7500   1.5000 Du        
    786 ****       -22.2500  24.7500   1.7500 Du        
    787 ****       -22.2500  24.7500   2.0000 Du        
    788 ****       -22.2500  25.0000   1.7500 Du        
    789 ****       -22.2500  25.0000   2.0000 Du        
    790 ****       -22.2500  25.2500   1.7500 Du        
    791 ****       -22.2500  25.2500   2.0000 Du        
    792 ****       -22.2500  25.5000   1.7500 Du        
    793 ****       -22.2500  25.7500   1.7500 Du        
    794 ****       -22.2500  26.0000   1.7500 Du        
    795 ****       -22.0000  24.5000   1.7500 Du        
    796 ****       -22.0000  24.5000   2.0000 Du        
    797 ****       -22.0000  24.7500   1.7500 Du        
    798 ****       -22.0000  24.7500   2.0000 Du        
    799 ****       -22.0000  25.0000   1.5000 Du        
    800 ****       -22.0000  25.0000   1.7500 Du        
    801 ****       -22.0000  25.0000   2.0000 Du        
    802 ****       -22.0000  25.2500   1.5000 Du        
    803 ****       -22.0000  25.2500   1.7500 Du        
    804 ****       -22.0000  25.2500   2.0000 Du        
    805 ****       -22.0000  25.5000   1.5000 Du        
    806 ****       -22.0000  25.5000   1.7500 Du        
    807 ****       -22.0000  25.5000   2.0000 Du        
    808 ****       -22.0000  25.7500   1.5000 Du        
    809 ****       -22.0000  25.7500   1.7500 Du        
    810 ****       -22.0000  25.7500   2.0000 Du        
    811 ****       -22.0000  26.0000   1.5000 Du        
    812 ****       -22.0000  26.0000   1.7500 Du        
    813 ****       -22.0000  26.0000   2.0000 Du        
    814 ****       -22.0000  26.2500   1.5000 Du        
    815 ****       -22.0000  26.2500   1.7500 Du        
    816 ****       -22.0000  26.5000   1.7500 Du        
    817 ****       -21.7500  24.5000   1.7500 Du        
    818 ****       -21.7500  24.5000   2.0000 Du        
    819 ****       -21.7500  24.7500   1.7500 Du        
    820 ****       -21.7500  24.7500   2.0000 Du        
    821 ****       -21.7500  25.0000   1.5000 Du        
    822 ****       -21.7500  25.0000   1.7500 Du        
    823 ****       -21.7500  25.0000   2.0000 Du        
    824 ****       -21.7500  25.2500   1.5000 Du        
    825 ****       -21.7500  25.2500   1.7500 Du        
    826 ****       -21.7500  25.2500   2.0000 Du        
    827 ****       -21.7500  25.5000   1.5000 Du        
    828 ****       -21.7500  25.5000   1.7500 Du        
    829 ****       -21.7500  25.5000   2.0000 Du        
    830 ****       -21.7500  25.7500   1.5000 Du        
    831 ****       -21.7500  25.7500   1.7500 Du        
    832 ****       -21.7500  25.7500   2.0000 Du        
    833 ****       -21.7500  26.0000   1.5000 Du        
    834 ****       -21.7500  26.0000   1.7500 Du        
    835 ****       -21.7500  26.0000   2.0000 Du        
    836 ****       -21.7500  26.2500   1.5000 Du        
    837 ****       -21.7500  26.2500   1.7500 Du        
    838 ****       -21.7500  26.5000   1.5000 Du        
    839 ****       -21.7500  26.5000   1.7500 Du        
    840 ****       -21.7500  26.7500   1.5000 Du        
    841 ****       -21.5000  24.5000   1.7500 Du        
    842 ****       -21.5000  24.7500   1.7500 Du        
    843 ****       -21.5000  24.7500   2.0000 Du        
    844 ****       -21.5000  25.0000   1.2500 Du        
    845 ****       -21.5000  25.0000   1.5000 Du        
    846 ****       -21.5000  25.0000   1.7500 Du        
    847 ****       -21.5000  25.0000   2.0000 Du        
    848 ****       -21.5000  25.2500   1.2500 Du        
    849 ****       -21.5000  25.2500   1.5000 Du        
    850 ****       -21.5000  25.2500   1.7500 Du        
    851 ****       -21.5000  25.2500   2.0000 Du        
    852 ****       -21.5000  25.2500   2.2500 Du        
    853 ****       -21.5000  25.5000   1.2500 Du        
    854 ****       -21.5000  25.5000   1.5000 Du        
    855 ****       -21.5000  25.5000   1.7500 Du        
    856 ****       -21.5000  25.5000   2.0000 Du        
    857 ****       -21.5000  25.7500   1.2500 Du        
    858 ****       -21.5000  25.7500   1.5000 Du        
    859 ****       -21.5000  25.7500   1.7500 Du        
    860 ****       -21.5000  25.7500   2.0000 Du        
    861 ****       -21.5000  26.0000   1.2500 Du        
    862 ****       -21.5000  26.0000   1.5000 Du        
    863 ****       -21.5000  26.0000   1.7500 Du        
    864 ****       -21.5000  26.0000   2.0000 Du        
    865 ****       -21.5000  26.2500   1.2500 Du        
    866 ****       -21.5000  26.2500   1.5000 Du        
    867 ****       -21.5000  26.2500   1.7500 Du        
    868 ****       -21.5000  26.5000   1.5000 Du        
    869 ****       -21.5000  26.7500   1.5000 Du        
    870 ****       -21.2500  24.5000   1.7500 Du        
    871 ****       -21.2500  24.7500   1.7500 Du        
    872 ****       -21.2500  24.7500   2.0000 Du        
    873 ****       -21.2500  25.0000   1.2500 Du        
    874 ****       -21.2500  25.0000   1.5000 Du        
    875 ****       -21.2500  25.0000   1.7500 Du        
    876 ****       -21.2500  25.0000   2.0000 Du        
    877 ****       -21.2500  25.2500   1.2500 Du        
    878 ****       -21.2500  25.2500   1.5000 Du        
    879 ****       -21.2500  25.2500   1.7500 Du        
    880 ****       -21.2500  25.2500   2.0000 Du        
    881 ****       -21.2500  25.5000   1.2500 Du        
    882 ****       -21.2500  25.5000   1.5000 Du        
    883 ****       -21.2500  25.5000   1.7500 Du        
    884 ****       -21.2500  25.5000   2.0000 Du        
    885 ****       -21.2500  25.7500   1.0000 Du        
    886 ****       -21.2500  25.7500   1.2500 Du        
    887 ****       -21.2500  25.7500   1.5000 Du        
    888 ****       -21.2500  25.7500   1.7500 Du        
    889 ****       -21.2500  25.7500   2.0000 Du        
    890 ****       -21.2500  26.0000   1.0000 Du        
    891 ****       -21.2500  26.0000   1.2500 Du        
    892 ****       -21.2500  26.0000   1.5000 Du        
    893 ****       -21.2500  26.0000   1.7500 Du        
    894 ****       -21.2500  26.0000   2.0000 Du        
    895 ****       -21.2500  26.2500   1.2500 Du        
    896 ****       -21.2500  26.2500   1.5000 Du        
    897 ****       -21.2500  26.2500   1.7500 Du        
    898 ****       -21.2500  26.5000   1.5000 Du        
    899 ****       -21.2500  33.2500   1.7500 Du        
    900 ****       -21.2500  33.7500   2.0000 Du        
    901 ****       -21.2500  34.0000   1.7500 Du        
    902 ****       -21.2500  34.0000   2.0000 Du        
    903 ****       -21.0000  24.5000   1.7500 Du        
    904 ****       -21.0000  24.7500   1.7500 Du        
    905 ****       -21.0000  25.0000   1.7500 Du        
    906 ****       -21.0000  25.0000   2.0000 Du        
    907 ****       -21.0000  25.2500   1.7500 Du        
    908 ****       -21.0000  25.2500   2.0000 Du        
    909 ****       -21.0000  25.5000   1.5000 Du        
    910 ****       -21.0000  25.5000   1.7500 Du        
    911 ****       -21.0000  25.7500   1.5000 Du        
    912 ****       -21.0000  25.7500   1.7500 Du        
    913 ****       -21.0000  26.0000   1.5000 Du        
    914 ****       -21.0000  33.2500   1.7500 Du        
    915 ****       -21.0000  33.5000   1.7500 Du        
    916 ****       -21.0000  33.7500   1.7500 Du        
    917 ****       -21.0000  33.7500   2.0000 Du        
    918 ****       -21.0000  34.0000   1.7500 Du        
    919 ****       -21.0000  34.0000   2.0000 Du        
    920 ****       -21.0000  34.2500   1.7500 Du        
    921 ****       -21.0000  34.2500   2.0000 Du        
    922 ****       -20.7500  33.0000   1.5000 Du        
    923 ****       -20.7500  33.2500   1.5000 Du        
    924 ****       -20.7500  33.2500   1.7500 Du        
    925 ****       -20.7500  33.7500   1.5000 Du        
    926 ****       -20.7500  33.7500   1.7500 Du        
    927 ****       -20.7500  34.0000   1.5000 Du        
    928 ****       -20.7500  34.0000   1.7500 Du        
    929 ****       -20.7500  34.2500   1.5000 Du        
    930 ****       -20.7500  34.2500   1.7500 Du        
    931 ****       -20.5000  32.0000   1.0000 Du        
    932 ****       -20.5000  32.2500   1.0000 Du        
    933 ****       -20.5000  32.2500   1.2500 Du        
    934 ****       -20.5000  33.0000   1.5000 Du        
    935 ****       -20.5000  33.2500   1.2500 Du        
    936 ****       -20.5000  33.2500   1.5000 Du        
    937 ****       -20.5000  33.5000   1.2500 Du        
    938 ****       -20.5000  33.5000   1.5000 Du        
    939 ****       -20.5000  33.7500   1.2500 Du        
    940 ****       -20.5000  33.7500   1.5000 Du        
    941 ****       -20.5000  34.0000   1.2500 Du        
    942 ****       -20.5000  34.0000   1.5000 Du        
    943 ****       -20.5000  34.2500   1.2500 Du        
    944 ****       -20.5000  34.2500   1.5000 Du        
    945 ****       -20.2500  32.0000   1.0000 Du        
    946 ****       -20.2500  32.2500   1.0000 Du        
    947 ****       -20.2500  32.2500   1.2500 Du        
    948 ****       -20.2500  32.5000   1.0000 Du        
    949 ****       -20.2500  32.7500   1.0000 Du        
    950 ****       -20.2500  32.7500   1.2500 Du        
    951 ****       -20.2500  33.0000   1.0000 Du        
    952 ****       -20.2500  33.0000   1.2500 Du        
    953 ****       -20.2500  33.2500   1.0000 Du        
    954 ****       -20.2500  33.2500   1.2500 Du        
    955 ****       -20.2500  33.2500   1.5000 Du        
    956 ****       -20.2500  33.5000   1.0000 Du        
    957 ****       -20.2500  33.5000   1.2500 Du        
    958 ****       -20.2500  33.5000   1.5000 Du        
    959 ****       -20.2500  33.7500   1.0000 Du        
    960 ****       -20.2500  33.7500   1.2500 Du        
    961 ****       -20.2500  34.0000   1.0000 Du        
    962 ****       -20.2500  34.0000   1.2500 Du        
    963 ****       -20.0000  32.0000   1.0000 Du        
    964 ****       -20.0000  32.2500   1.0000 Du        
    965 ****       -20.0000  32.2500   1.2500 Du        
    966 ****       -20.0000  32.5000   1.0000 Du        
    967 ****       -20.0000  32.5000   1.2500 Du        
    968 ****       -20.0000  32.7500   1.0000 Du        
    969 ****       -20.0000  32.7500   1.2500 Du        
    970 ****       -20.0000  33.0000   1.0000 Du        
    971 ****       -20.0000  33.0000   1.2500 Du        
    972 ****       -20.0000  33.2500   1.0000 Du        
    973 ****       -20.0000  33.2500   1.2500 Du        
    974 ****       -20.0000  33.5000   1.0000 Du        
    975 ****       -20.0000  33.7500   1.0000 Du        
    976 ****       -20.0000  34.0000   1.0000 Du        
    977 ****       -19.7500  32.2500   1.0000 Du        
    978 ****       -19.7500  32.5000   1.0000 Du        
    979 ****       -19.7500  32.7500   1.0000 Du        
    980 ****       -19.7500  32.7500   1.2500 Du        
    981 ****       -19.7500  33.0000   1.0000 Du        
    982 ****       -19.7500  33.2500   1.0000 Du        
    983 ****       -19.5000  32.2500   1.0000 Du        
    984 ****       -19.5000  32.5000   1.0000 Du        
    985 ****       -19.5000  32.7500   1.0000 Du        
    986 ****       -19.5000  33.0000   1.0000 Du        
