#       Name:                CT1002167954
#       Creating user name   hitesit
#       Creation time:       Sun Apr 16 02:24:08 2023


#       File generated by GOLD software.
#

@<TRIPOS>MOLECULE
CT1002167954|ligand_prepared|mol2|1|dock6
    29    30     1
SMALL
NO_CHARGES


@<TRIPOS>ATOM
      1 C1         -25.3795  32.6057   4.0424 C.3            1 RES1               0.0000
      2 C2         -24.9152  31.4266   4.9216 C.ar           1 RES1               0.0000
      3 C3         -24.1652  33.0339   3.2237 C.2            1 RES1               0.0000
      4 C4         -26.5412  32.0820   3.2052 C.2            1 RES1               0.0000
      5 C5         -25.8834  33.8256   4.8485 C.3            1 RES1               0.0000
      6 C6         -24.2954  31.6569   6.1461 C.ar           1 RES1               0.0000
      7 C7         -25.1018  30.1056   4.5233 C.ar           1 RES1               0.0000
      8 N8         -24.1496  32.7088   1.8993 N.am           1 RES1               0.0000
      9 O9         -23.2179  33.6132   3.7407 O.2            1 RES1               0.0000
     10 N10        -26.3685  31.9990   1.8483 N.am           1 RES1               0.0000
     11 O11        -27.5985  31.7249   3.7099 O.2            1 RES1               0.0000
     12 C12        -26.6460  34.8407   4.0118 C.3            1 RES1               0.0000
     13 C13        -23.8798  30.6046   6.9451 C.ar           1 RES1               0.0000
     14 C14        -24.6852  29.0547   5.3238 C.ar           1 RES1               0.0000
     15 C15        -25.2147  32.2597   1.1606 C.2            1 RES1               0.0000
     16 C16        -24.0748  29.3030   6.5348 C.ar           1 RES1               0.0000
     17 O17        -25.1210  32.1094  -0.0542 O.2            1 RES1               0.0000
     18 H18        -26.5367  33.4705   5.6549 H              1 RES1               0.0000
     19 H19        -25.0220  34.3242   5.3098 H              1 RES1               0.0000
     20 H20        -24.1312  32.6745   6.4846 H              1 RES1               0.0000
     21 H21        -25.5787  29.8865   3.5741 H              1 RES1               0.0000
     22 H22        -23.2642  32.8088   1.4132 H              1 RES1               0.0000
     23 H23        -27.1749  31.7169   1.3001 H              1 RES1               0.0000
     24 H24        -26.9768  35.6759   4.6256 H              1 RES1               0.0000
     25 H25        -26.0179  35.2337   3.2150 H              1 RES1               0.0000
     26 H26        -27.5237  34.3851   3.5581 H              1 RES1               0.0000
     27 H27        -23.3987  30.8053   7.8967 H              1 RES1               0.0000
     28 H28        -24.8402  28.0319   4.9966 H              1 RES1               0.0000
     29 H29        -23.7495  28.4788   7.1610 H              1 RES1               0.0000
@<TRIPOS>BOND
    1    1    2 1     
    2    1    3 1     
    3    1    4 1     
    4    1    5 1     
    5    2    6 ar    
    6    2    7 ar    
    7    3    8 1     
    8    3    9 2     
    9    4   10 1     
   10    4   11 2     
   11    5   12 1     
   12    5   18 1     
   13    5   19 1     
   14    6   13 ar    
   15    6   20 1     
   16    7   14 ar    
   17    7   21 1     
   18    8   15 1     
   19    8   22 1     
   20   10   15 1     
   21   10   23 1     
   22   12   24 1     
   23   12   25 1     
   24   12   26 1     
   25   13   16 ar    
   26   13   27 1     
   27   14   16 ar    
   28   14   28 1     
   29   15   17 2     
   30   16   29 1     
@<TRIPOS>SUBSTRUCTURE
      1 RES1           1
@<TRIPOS>SET
DONOR_HYDROGENS      STATIC     ATOMS    <user>   **** ""
2 22 23
ATOM$RED        STATIC     ATOMS    COLORGROUP SYSTEM
2 22 23
@<TRIPOS>COMMENT
> <Gold.Version>
2022.3.0

> <Gold.Id.Protein>
unknown|7ta6_clean|pdb

> <Gold.Protein.RotatedTorsions>
[ 6033 5966 5967 5968 ] final   -8.34 input   72.04 | X-H torsion
[ 6208 6130 6131 6132 ] final  -89.99 input   28.46 | X-H torsion
[ 12156 12099 12098 12096 ] final  105.60 input   60.01 | X-H torsion
[ 12284 12244 12245 12246 ] final -118.91 input   50.53 | X-H torsion
[ 12404 12384 12385 12386 ] final   86.18 input   25.82 | X-H torsion
[ 12460 12440 12441 12442 ] final  -99.11 input   -3.82 | X-H torsion
[ 12540 12505 12506 12507 ] final   90.79 input   74.25 | X-H torsion
[ 2786 2603 2604 2605 ] final   68.13 input  117.54 | X-H torsion
[ 20622 20550 20554 20551 ] final   45.85 input   82.88 | X-H torsion
[ 17287 17198 17202 17199 ] final  -49.76 input   60.02 | X-H torsion
[ 6320 6280 6281 6282 ] final  -91.83 input   19.24 | X-H torsion
[ 17411 17334 17335 17336 ] final  102.08 input   65.80 | X-H torsion
[ 17508 17478 17479 17480 ] final -110.23 input  127.72 | X-H torsion
[ 20694 2606 2605 2604 ] final -149.19 input   -0.00 | X-H torsion
[ 20697 5969 5968 5967 ] final   12.50 input    0.00 | X-H torsion
[ 20703 12247 12246 12245 ] final  110.68 input    0.00 | X-H torsion
[ 20706 12387 12386 12385 ] final   10.86 input   -0.00 | X-H torsion
[ 20709 12443 12442 12441 ] final   -7.35 input    0.00 | X-H torsion
[ 20713 20017 20016 20015 ] final -160.66 input   -0.00 | X-H torsion
[ 20715 20461 20460 20459 ] final  -51.16 input   -0.00 | X-H torsion
[ 20718 12508 12507 12506 ] final   86.91 input   -0.00 | X-H torsion

> <Gold.Protein.ActiveResidues>
 TRP28   LEU57   ILE58   TYR59   SER60   LEU94   TYR119  LEU120  GLY121  GLY122 
 VAL123  PHE124  XCP1    LEU2    GLY3    TRP4    ILE6    ILE24   LEU25   CYS27  
 XCP29  

> <Gold.Protein.RotatedAtoms>
  -28.9303   33.3553   12.8311 H   0  0  0  0  0  0  0  0  0  0  0  0  # atno 2786 bound_to 2603
  -19.9306   27.4082    9.4593 H   0  0  0  0  0  0  0  0  0  0  0  0  # atno 6033 bound_to 5966
  -17.0795   29.3912    9.0860 H   0  0  0  0  0  0  0  0  0  0  0  0  # atno 6208 bound_to 6130
  -17.1637   33.2944    9.5552 H   0  0  0  0  0  0  0  0  0  0  0  0  # atno 6320 bound_to 6280
  -22.7386   33.8912    8.6530 H   0  0  0  0  0  0  0  0  0  0  0  0  # atno 12156 bound_to 12099
  -18.1272   35.9315    4.4963 H   0  0  0  0  0  0  0  0  0  0  0  0  # atno 12284 bound_to 12244
  -19.8297   32.8779    4.6042 H   0  0  0  0  0  0  0  0  0  0  0  0  # atno 12404 bound_to 12384
  -21.3298   29.6072    6.2453 H   0  0  0  0  0  0  0  0  0  0  0  0  # atno 12460 bound_to 12440
  -22.5184   25.6544    5.0471 H   0  0  0  0  0  0  0  0  0  0  0  0  # atno 12540 bound_to 12505
  -32.9021   25.9374    5.3233 H   0  0  0  0  0  0  0  0  0  0  0  0  # atno 17287 bound_to 17198
  -31.9457   26.7875    4.2692 H   0  0  0  0  0  0  0  0  0  0  0  0  # atno 17288 bound_to 17198
  -25.7528   39.0106    7.0462 H   0  0  0  0  0  0  0  0  0  0  0  0  # atno 17411 bound_to 17334
  -23.7155   38.2085    8.9033 H   0  0  0  0  0  0  0  0  0  0  0  0  # atno 17508 bound_to 17478
  -30.7252   33.3438   11.8367 H   0  0  0  0  0  0  0  0  0  0  0  0  # atno 20622 bound_to 20550
  -30.9240   32.9857    8.5469 LP  0  0  0  0  0  0  0  0  0  0  0  0  # atno 20694 bound_to 2606
  -29.3826   32.2074    8.4114 LP  0  0  0  0  0  0  0  0  0  0  0  0  # atno 20695 bound_to 2606
  -19.0932   25.9285    9.8804 LP  0  0  0  0  0  0  0  0  0  0  0  0  # atno 20696 bound_to 5966
  -19.3880   28.4107    7.7801 LP  0  0  0  0  0  0  0  0  0  0  0  0  # atno 20697 bound_to 5969
  -18.8593   30.0533    7.6296 LP  0  0  0  0  0  0  0  0  0  0  0  0  # atno 20698 bound_to 5969
  -17.7864   29.7529   10.6413 LP  0  0  0  0  0  0  0  0  0  0  0  0  # atno 20699 bound_to 6130
  -21.3228   33.6937    9.4308 LP  0  0  0  0  0  0  0  0  0  0  0  0  # atno 20700 bound_to 12099
  -21.6292   32.8577    8.0619 LP  0  0  0  0  0  0  0  0  0  0  0  0  # atno 20701 bound_to 12099
  -17.2018   35.4498    5.9029 LP  0  0  0  0  0  0  0  0  0  0  0  0  # atno 20702 bound_to 12244
  -18.6963   33.4288    7.4306 LP  0  0  0  0  0  0  0  0  0  0  0  0  # atno 20703 bound_to 12247
  -17.1668   32.6986    7.0739 LP  0  0  0  0  0  0  0  0  0  0  0  0  # atno 20704 bound_to 12247
  -18.3187   32.0955    5.0072 LP  0  0  0  0  0  0  0  0  0  0  0  0  # atno 20705 bound_to 12384
  -20.5654   30.9944    3.4922 LP  0  0  0  0  0  0  0  0  0  0  0  0  # atno 20706 bound_to 12387
  -21.3155   29.4338    3.5339 LP  0  0  0  0  0  0  0  0  0  0  0  0  # atno 20707 bound_to 12387
  -19.6842   29.0959    5.9637 LP  0  0  0  0  0  0  0  0  0  0  0  0  # atno 20708 bound_to 12440
  -19.8976   27.3608    7.4322 LP  0  0  0  0  0  0  0  0  0  0  0  0  # atno 20709 bound_to 12443
  -20.5744   25.8323    7.8855 LP  0  0  0  0  0  0  0  0  0  0  0  0  # atno 20710 bound_to 12443
  -21.1080   26.1660    5.9516 LP  0  0  0  0  0  0  0  0  0  0  0  0  # atno 20711 bound_to 12505
  -28.0600   34.6185   11.9880 LP  0  0  0  0  0  0  0  0  0  0  0  0  # atno 20712 bound_to 2603
  -27.5856   32.1910   13.6868 LP  0  0  0  0  0  0  0  0  0  0  0  0  # atno 20713 bound_to 20017
  -26.1982   33.2272   13.7232 LP  0  0  0  0  0  0  0  0  0  0  0  0  # atno 20714 bound_to 20017
  -30.2331   36.0630   11.1511 LP  0  0  0  0  0  0  0  0  0  0  0  0  # atno 20715 bound_to 20461
  -28.9700   35.4720   10.1240 LP  0  0  0  0  0  0  0  0  0  0  0  0  # atno 20716 bound_to 20461
  -30.2024   32.2320   10.5908 LP  0  0  0  0  0  0  0  0  0  0  0  0  # atno 20717 bound_to 20550
  -20.5969   23.6537    3.9177 LP  0  0  0  0  0  0  0  0  0  0  0  0  # atno 20718 bound_to 12508
  -21.7433   22.3803    4.1711 LP  0  0  0  0  0  0  0  0  0  0  0  0  # atno 20719 bound_to 12508
  -31.6452   25.1965    4.5618 LP  0  0  0  0  0  0  0  0  0  0  0  0  # atno 20720 bound_to 17198

> <Gold.Score>
     Fitness  S(hb_ext) S(vdw_ext)  S(hb_int)    S(int)      intcor
     22.08       0.00      16.63       0.00      -0.79      -0.76

> <Gold.Goldscore.Fitness>
22.0811

> <Gold.Goldscore.Internal.Vdw>
-0.8818

> <Gold.Goldscore.Internal.Torsion>
-0.6646

> <Gold.Goldscore.External.Vdw>
16.6321

> <Gold.Goldscore.Internal.HBond>
0.0000

> <Gold.Goldscore.External.HBond>
0.0000

> <Gold.Goldscore.Internal.Correction>
-0.7584

> <Gold.Goldscore.Internal.Vdw.Weighted>
-0.8818

> <Gold.Goldscore.Internal.Torsion.Weighted>
-0.6646

> <Gold.Goldscore.External.Vdw.Weighted>
22.8691

> <Gold.Goldscore.Internal.HBond.Weighted>
0.0000

> <Gold.Goldscore.External.HBond.Weighted>
0.0000

> <Gold.Goldscore.Internal.Correction.Weighted>
-0.7584

> <Gold.Rescore>
     Score     S(PLP)   S(hbond)     S(cho)   S(metal)  DE(clash)   DE(tors)     intcor
     23.83     -25.48       0.00       0.00       0.00       0.09       0.78       ----

> <Gold.PLP.Fitness>
23.8302

> <Gold.PLP.PLP>
-25.4784

> <Gold.PLP.part.hbond>
0.0000

> <Gold.PLP.part.metal>
0.0000

> <Gold.PLP.part.buried>
-2.3615

> <Gold.PLP.part.nonpolar>
-23.0316

> <Gold.PLP.part.repulsive>
0.0135

> <Gold.PLP.ligand.clash>
0.0878

> <Gold.PLP.ligand.torsion>
0.7802

> <Gold.PLP.Chemscore.Hbond>
0.0000

> <Gold.PLP.Chemscore.CHOScore>
0.0000

> <Gold.PLP.Chemscore.Metal>
0.0000

> <Gold.PLP.Chemscore.Internal.Correction>
   9.000000E+99

