#       Name:                CT1002167954
#       Creating user name   hitesit
#       Creation time:       Sun Apr 16 02:24:10 2023


#       File generated by GOLD software.
#

@<TRIPOS>MOLECULE
CT1002167954|ligand_prepared|mol2|1|dock9
    29    30     1
SMALL
NO_CHARGES


@<TRIPOS>ATOM
      1 C1         -24.5845  30.2482   2.9410 C.3            1 RES1               0.0000
      2 C2         -24.3223  30.4057   4.4527 C.ar           1 RES1               0.0000
      3 C3         -23.3502  29.5639   2.3610 C.2            1 RES1               0.0000
      4 C4         -25.8661  29.4321   2.8130 C.2            1 RES1               0.0000
      5 C5         -24.7962  31.5892   2.2005 C.3            1 RES1               0.0000
      6 C6         -24.1361  31.6663   5.0120 C.ar           1 RES1               0.0000
      7 C7         -24.2666  29.3019   5.2995 C.ar           1 RES1               0.0000
      8 N8         -23.4633  28.2521   2.0055 N.am           1 RES1               0.0000
      9 O9         -22.2828  30.1551   2.2541 O.2            1 RES1               0.0000
     10 N10        -25.7789  28.1828   2.2568 N.am           1 RES1               0.0000
     11 O11        -26.9478  29.8530   3.2041 O.2            1 RES1               0.0000
     12 C12        -25.2244  31.4280   0.7504 C.3            1 RES1               0.0000
     13 C13        -23.9055  31.8183   6.3692 C.ar           1 RES1               0.0000
     14 C14        -24.0356  29.4561   6.6565 C.ar           1 RES1               0.0000
     15 C15        -24.6307  27.5437   1.8753 C.2            1 RES1               0.0000
     16 C16        -23.8555  30.7135   7.1924 C.ar           1 RES1               0.0000
     17 O17        -24.6274  26.3983   1.4336 O.2            1 RES1               0.0000
     18 H18        -25.5607  32.1693   2.7320 H              1 RES1               0.0000
     19 H19        -23.8603  32.1608   2.2308 H              1 RES1               0.0000
     20 H20        -24.1696  32.5472   4.3795 H              1 RES1               0.0000
     21 H21        -24.4043  28.3029   4.8998 H              1 RES1               0.0000
     22 H22        -22.6001  27.7516   1.8192 H              1 RES1               0.0000
     23 H23        -26.6507  27.6830   2.1136 H              1 RES1               0.0000
     24 H24        -25.3589  32.3987   0.2777 H              1 RES1               0.0000
     25 H25        -24.4750  30.8771   0.1858 H              1 RES1               0.0000
     26 H26        -26.1653  30.8855   0.6841 H              1 RES1               0.0000
     27 H27        -23.7631  32.8100   6.7858 H              1 RES1               0.0000
     28 H28        -23.9965  28.5838   7.3005 H              1 RES1               0.0000
     29 H29        -23.6753  30.8329   8.2556 H              1 RES1               0.0000
@<TRIPOS>BOND
    1    1    2 1     
    2    1    3 1     
    3    1    4 1     
    4    1    5 1     
    5    2    6 ar    
    6    2    7 ar    
    7    3    8 1     
    8    3    9 2     
    9    4   10 1     
   10    4   11 2     
   11    5   12 1     
   12    5   18 1     
   13    5   19 1     
   14    6   13 ar    
   15    6   20 1     
   16    7   14 ar    
   17    7   21 1     
   18    8   15 1     
   19    8   22 1     
   20   10   15 1     
   21   10   23 1     
   22   12   24 1     
   23   12   25 1     
   24   12   26 1     
   25   13   16 ar    
   26   13   27 1     
   27   14   16 ar    
   28   14   28 1     
   29   15   17 2     
   30   16   29 1     
@<TRIPOS>SUBSTRUCTURE
      1 RES1           1
@<TRIPOS>SET
DONOR_HYDROGENS      STATIC     ATOMS    <user>   **** ""
2 22 23
ATOM$RED        STATIC     ATOMS    COLORGROUP SYSTEM
2 22 23
@<TRIPOS>COMMENT
> <Gold.Version>
2022.3.0

> <Gold.Id.Protein>
unknown|7ta6_clean|pdb

> <Gold.Protein.RotatedTorsions>
[ 6033 5966 5967 5968 ] final   70.01 input   72.04 | X-H torsion
[ 6208 6130 6131 6132 ] final  -26.07 input   28.46 | X-H torsion
[ 12156 12099 12098 12096 ] final  -38.23 input   60.01 | X-H torsion
[ 12284 12244 12245 12246 ] final -169.99 input   50.53 | X-H torsion
[ 12404 12384 12385 12386 ] final   44.01 input   25.82 | X-H torsion
[ 12460 12440 12441 12442 ] final -136.15 input   -3.82 | X-H torsion
[ 12540 12505 12506 12507 ] final -172.18 input   74.25 | X-H torsion
[ 2786 2603 2604 2605 ] final  -34.57 input  117.54 | X-H torsion
[ 20622 20550 20554 20551 ] final  132.45 input   82.88 | X-H torsion
[ 17287 17198 17202 17199 ] final  158.12 input   60.02 | X-H torsion
[ 6320 6280 6281 6282 ] final -113.05 input   19.24 | X-H torsion
[ 17411 17334 17335 17336 ] final  109.17 input   65.80 | X-H torsion
[ 17508 17478 17479 17480 ] final -136.97 input  127.72 | X-H torsion
[ 20694 2606 2605 2604 ] final  -32.49 input   -0.00 | X-H torsion
[ 20697 5969 5968 5967 ] final  145.91 input    0.00 | X-H torsion
[ 20703 12247 12246 12245 ] final  174.03 input    0.00 | X-H torsion
[ 20706 12387 12386 12385 ] final  -32.30 input   -0.00 | X-H torsion
[ 20709 12443 12442 12441 ] final  -86.09 input    0.00 | X-H torsion
[ 20713 20017 20016 20015 ] final  -72.03 input   -0.00 | X-H torsion
[ 20715 20461 20460 20459 ] final -112.80 input   -0.00 | X-H torsion
[ 20718 12508 12507 12506 ] final   -8.73 input   -0.00 | X-H torsion

> <Gold.Protein.ActiveResidues>
 TRP28   LEU57   ILE58   TYR59   SER60   LEU94   TYR119  LEU120  GLY121  GLY122 
 VAL123  PHE124  XCP1    LEU2    GLY3    TRP4    ILE6    ILE24   LEU25   CYS27  
 XCP29  

> <Gold.Protein.RotatedAtoms>
  -29.1438   34.4974   12.0696 H   0  0  0  0  0  0  0  0  0  0  0  0  # atno 2786 bound_to 2603
  -19.4859   26.6242    8.7822 H   0  0  0  0  0  0  0  0  0  0  0  0  # atno 6033 bound_to 5966
  -16.5669   29.7026    9.8015 H   0  0  0  0  0  0  0  0  0  0  0  0  # atno 6208 bound_to 6130
  -16.9686   33.0561    9.6656 H   0  0  0  0  0  0  0  0  0  0  0  0  # atno 6320 bound_to 6280
  -21.1165   33.4358    9.2273 H   0  0  0  0  0  0  0  0  0  0  0  0  # atno 12156 bound_to 12099
  -17.3636   35.9577    4.4153 H   0  0  0  0  0  0  0  0  0  0  0  0  # atno 12284 bound_to 12244
  -19.7055   32.3984    4.2029 H   0  0  0  0  0  0  0  0  0  0  0  0  # atno 12404 bound_to 12384
  -21.1631   29.8090    5.7504 H   0  0  0  0  0  0  0  0  0  0  0  0  # atno 12460 bound_to 12440
  -22.2375   26.3110    6.1779 H   0  0  0  0  0  0  0  0  0  0  0  0  # atno 12540 bound_to 12505
  -31.4267   25.5645    4.2568 H   0  0  0  0  0  0  0  0  0  0  0  0  # atno 17287 bound_to 17198
  -32.6954   25.4496    5.3178 H   0  0  0  0  0  0  0  0  0  0  0  0  # atno 17288 bound_to 17198
  -25.8674   38.9726    7.0476 H   0  0  0  0  0  0  0  0  0  0  0  0  # atno 17411 bound_to 17334
  -23.5621   38.1879    8.5272 H   0  0  0  0  0  0  0  0  0  0  0  0  # atno 17508 bound_to 17478
  -30.5832   32.1347   11.8022 H   0  0  0  0  0  0  0  0  0  0  0  0  # atno 20622 bound_to 20550
  -29.4690   33.1097    8.3435 LP  0  0  0  0  0  0  0  0  0  0  0  0  # atno 20694 bound_to 2606
  -30.8377   32.0835    8.6148 LP  0  0  0  0  0  0  0  0  0  0  0  0  # atno 20695 bound_to 2606
  -19.5214   26.6834   10.5324 LP  0  0  0  0  0  0  0  0  0  0  0  0  # atno 20696 bound_to 5966
  -19.4106   29.9817    8.0298 LP  0  0  0  0  0  0  0  0  0  0  0  0  # atno 20697 bound_to 5969
  -18.8367   28.4823    7.3799 LP  0  0  0  0  0  0  0  0  0  0  0  0  # atno 20698 bound_to 5969
  -18.2889   29.4478    9.9400 LP  0  0  0  0  0  0  0  0  0  0  0  0  # atno 20699 bound_to 6130
  -21.9840   32.9573    7.9362 LP  0  0  0  0  0  0  0  0  0  0  0  0  # atno 20700 bound_to 12099
  -22.6017   34.0528    8.9779 LP  0  0  0  0  0  0  0  0  0  0  0  0  # atno 20701 bound_to 12099
  -17.9387   35.4245    5.9811 LP  0  0  0  0  0  0  0  0  0  0  0  0  # atno 20702 bound_to 12244
  -18.5814   32.5268    7.4507 LP  0  0  0  0  0  0  0  0  0  0  0  0  # atno 20703 bound_to 12247
  -17.2817   33.6007    7.0539 LP  0  0  0  0  0  0  0  0  0  0  0  0  # atno 20704 bound_to 12247
  -18.4396   32.5624    5.3979 LP  0  0  0  0  0  0  0  0  0  0  0  0  # atno 20705 bound_to 12384
  -21.1834   31.0353    3.6417 LP  0  0  0  0  0  0  0  0  0  0  0  0  # atno 20706 bound_to 12387
  -20.6975   29.3928    3.3845 LP  0  0  0  0  0  0  0  0  0  0  0  0  # atno 20707 bound_to 12387
  -19.8477   28.8980    6.4493 LP  0  0  0  0  0  0  0  0  0  0  0  0  # atno 20708 bound_to 12440
  -19.5191   26.3470    7.2420 LP  0  0  0  0  0  0  0  0  0  0  0  0  # atno 20709 bound_to 12443
  -20.9529   26.8461    8.0757 LP  0  0  0  0  0  0  0  0  0  0  0  0  # atno 20710 bound_to 12443
  -21.3783   25.5342    4.8636 LP  0  0  0  0  0  0  0  0  0  0  0  0  # atno 20711 bound_to 12505
  -27.8534   33.5129   12.7251 LP  0  0  0  0  0  0  0  0  0  0  0  0  # atno 20712 bound_to 2603
  -27.3840   33.3208   14.0707 LP  0  0  0  0  0  0  0  0  0  0  0  0  # atno 20713 bound_to 20017
  -26.3998   32.0975   13.3394 LP  0  0  0  0  0  0  0  0  0  0  0  0  # atno 20714 bound_to 20017
  -30.3077   35.2777   10.7446 LP  0  0  0  0  0  0  0  0  0  0  0  0  # atno 20715 bound_to 20461
  -28.8954   36.2573   10.5305 LP  0  0  0  0  0  0  0  0  0  0  0  0  # atno 20716 bound_to 20461
  -30.3402   33.4055   10.6243 LP  0  0  0  0  0  0  0  0  0  0  0  0  # atno 20717 bound_to 20550
  -21.8675   23.5303    4.0502 LP  0  0  0  0  0  0  0  0  0  0  0  0  # atno 20718 bound_to 12508
  -20.4726   22.5037    4.0386 LP  0  0  0  0  0  0  0  0  0  0  0  0  # atno 20719 bound_to 12508
  -32.3599   26.8812    4.5793 LP  0  0  0  0  0  0  0  0  0  0  0  0  # atno 20720 bound_to 17198

> <Gold.Score>
     Fitness  S(hb_ext) S(vdw_ext)  S(hb_int)    S(int)      intcor
     21.73       0.00      16.40       0.00      -0.82      -0.76

> <Gold.Goldscore.Fitness>
21.7327

> <Gold.Goldscore.Internal.Vdw>
-1.1271

> <Gold.Goldscore.Internal.Torsion>
-0.4463

> <Gold.Goldscore.External.Vdw>
16.3983

> <Gold.Goldscore.Internal.HBond>
0.0000

> <Gold.Goldscore.External.HBond>
0.0000

> <Gold.Goldscore.Internal.Correction>
-0.7584

> <Gold.Goldscore.Internal.Vdw.Weighted>
-1.1271

> <Gold.Goldscore.Internal.Torsion.Weighted>
-0.4463

> <Gold.Goldscore.External.Vdw.Weighted>
22.5477

> <Gold.Goldscore.Internal.HBond.Weighted>
0.0000

> <Gold.Goldscore.External.HBond.Weighted>
0.0000

> <Gold.Goldscore.Internal.Correction.Weighted>
-0.7584

> <Gold.Rescore>
     Score     S(PLP)   S(hbond)     S(cho)   S(metal)  DE(clash)   DE(tors)     intcor
     23.74     -24.01       0.00       0.00       0.00       0.00       0.13       ----

> <Gold.PLP.Fitness>
23.7424

> <Gold.PLP.PLP>
-24.0056

> <Gold.PLP.part.hbond>
0.0000

> <Gold.PLP.part.metal>
0.0000

> <Gold.PLP.part.buried>
-2.2602

> <Gold.PLP.part.nonpolar>
-21.1731

> <Gold.PLP.part.repulsive>
0.0900

> <Gold.PLP.ligand.clash>
0.0000

> <Gold.PLP.ligand.torsion>
0.1316

> <Gold.PLP.Chemscore.Hbond>
0.0000

> <Gold.PLP.Chemscore.CHOScore>
0.0000

> <Gold.PLP.Chemscore.Metal>
0.0000

> <Gold.PLP.Chemscore.Internal.Correction>
   9.000000E+99

