#       Name:                CT1002167954
#       Creating user name   hitesit
#       Creation time:       Sun Apr 16 02:24:05 2023


#       File generated by GOLD software.
#

@<TRIPOS>MOLECULE
CT1002167954|ligand_prepared|mol2|1|dock1
    29    30     1
SMALL
NO_CHARGES


@<TRIPOS>ATOM
      1 C1         -25.3052  32.3125   3.8402 C.3            1 RES1               0.0000
      2 C2         -24.7705  31.1824   4.7435 C.ar           1 RES1               0.0000
      3 C3         -26.4902  32.9272   4.5793 C.2            1 RES1               0.0000
      4 C4         -24.1409  33.2727   3.6238 C.2            1 RES1               0.0000
      5 C5         -25.7889  31.8279   2.4536 C.3            1 RES1               0.0000
      6 C6         -24.1069  31.4781   5.9305 C.ar           1 RES1               0.0000
      7 C7         -24.9352  29.8420   4.4050 C.ar           1 RES1               0.0000
      8 N8         -26.3118  34.1528   5.1503 N.am           1 RES1               0.0000
      9 O9         -27.5526  32.3284   4.6932 O.2            1 RES1               0.0000
     10 N10        -24.2457  34.5364   4.1433 N.am           1 RES1               0.0000
     11 O11        -23.1266  32.9412   3.0225 O.2            1 RES1               0.0000
     12 C12        -26.1956  32.9553   1.5177 C.3            1 RES1               0.0000
     13 C13        -23.6279  30.4702   6.7509 C.ar           1 RES1               0.0000
     14 C14        -24.4552  28.8356   5.2268 C.ar           1 RES1               0.0000
     15 C15        -25.2654  35.0102   4.9232 C.2            1 RES1               0.0000
     16 C16        -23.8021  29.1485   6.3999 C.ar           1 RES1               0.0000
     17 O17        -25.2625  36.1417   5.3992 O.2            1 RES1               0.0000
     18 H18        -24.9851  31.2497   1.9814 H              1 RES1               0.0000
     19 H19        -26.6465  31.1581   2.5929 H              1 RES1               0.0000
     20 H20        -23.9583  32.5125   6.2219 H              1 RES1               0.0000
     21 H21        -25.4449  29.5723   3.4863 H              1 RES1               0.0000
     22 H22        -27.0221  34.4602   5.8070 H              1 RES1               0.0000
     23 H23        -23.4941  35.1840   3.9287 H              1 RES1               0.0000
     24 H24        -26.5266  32.5606   0.5594 H              1 RES1               0.0000
     25 H25        -27.0106  33.5361   1.9447 H              1 RES1               0.0000
     26 H26        -25.3591  33.6271   1.3369 H              1 RES1               0.0000
     27 H27        -23.1134  30.7218   7.6724 H              1 RES1               0.0000
     28 H28        -24.5940  27.7967   4.9463 H              1 RES1               0.0000
     29 H29        -23.4271  28.3591   7.0430 H              1 RES1               0.0000
@<TRIPOS>BOND
    1    1    2 1     
    2    1    3 1     
    3    1    4 1     
    4    1    5 1     
    5    2    6 ar    
    6    2    7 ar    
    7    3    8 1     
    8    3    9 2     
    9    4   10 1     
   10    4   11 2     
   11    5   12 1     
   12    5   18 1     
   13    5   19 1     
   14    6   13 ar    
   15    6   20 1     
   16    7   14 ar    
   17    7   21 1     
   18    8   15 1     
   19    8   22 1     
   20   10   15 1     
   21   10   23 1     
   22   12   24 1     
   23   12   25 1     
   24   12   26 1     
   25   13   16 ar    
   26   13   27 1     
   27   14   16 ar    
   28   14   28 1     
   29   15   17 2     
   30   16   29 1     
@<TRIPOS>SUBSTRUCTURE
      1 RES1           1
@<TRIPOS>SET
DONOR_HYDROGENS      STATIC     ATOMS    <user>   **** ""
2 22 23
ATOM$RED        STATIC     ATOMS    COLORGROUP SYSTEM
2 22 23
@<TRIPOS>COMMENT
> <Gold.Version>
2022.3.0

> <Gold.Id.Protein>
unknown|7ta6_clean|pdb

> <Gold.Protein.RotatedTorsions>
[ 6033 5966 5967 5968 ] final  154.04 input   72.04 | X-H torsion
[ 6208 6130 6131 6132 ] final  178.40 input   28.46 | X-H torsion
[ 12156 12099 12098 12096 ] final -121.82 input   60.01 | X-H torsion
[ 12284 12244 12245 12246 ] final  175.54 input   50.53 | X-H torsion
[ 12404 12384 12385 12386 ] final  -46.27 input   25.82 | X-H torsion
[ 12460 12440 12441 12442 ] final -163.90 input   -3.82 | X-H torsion
[ 12540 12505 12506 12507 ] final -100.33 input   74.25 | X-H torsion
[ 2786 2603 2604 2605 ] final  175.55 input  117.54 | X-H torsion
[ 20622 20550 20554 20551 ] final  -27.53 input   82.88 | X-H torsion
[ 17287 17198 17202 17199 ] final  -28.09 input   60.02 | X-H torsion
[ 6320 6280 6281 6282 ] final  -34.87 input   19.24 | X-H torsion
[ 17411 17334 17335 17336 ] final   17.94 input   65.80 | X-H torsion
[ 17508 17478 17479 17480 ] final -106.49 input  127.72 | X-H torsion
[ 20694 2606 2605 2604 ] final  -48.09 input   -0.00 | X-H torsion
[ 20697 5969 5968 5967 ] final   31.09 input    0.00 | X-H torsion
[ 20703 12247 12246 12245 ] final  -34.69 input    0.00 | X-H torsion
[ 20706 12387 12386 12385 ] final  -78.25 input   -0.00 | X-H torsion
[ 20709 12443 12442 12441 ] final  -40.01 input    0.00 | X-H torsion
[ 20713 20017 20016 20015 ] final  158.57 input   -0.00 | X-H torsion
[ 20715 20461 20460 20459 ] final  121.74 input   -0.00 | X-H torsion
[ 20718 12508 12507 12506 ] final    3.56 input   -0.00 | X-H torsion

> <Gold.Protein.ActiveResidues>
 TRP28   LEU57   ILE58   TYR59   SER60   LEU94   TYR119  LEU120  GLY121  GLY122 
 VAL123  PHE124  XCP1    LEU2    GLY3    TRP4    ILE6    ILE24   LEU25   CYS27  
 XCP29  

> <Gold.Protein.RotatedAtoms>
  -27.6197   33.8247   12.4881 H   0  0  0  0  0  0  0  0  0  0  0  0  # atno 2786 bound_to 2603
  -19.0438   25.8920    9.6158 H   0  0  0  0  0  0  0  0  0  0  0  0  # atno 6033 bound_to 5966
  -18.2399   29.3474    9.5867 H   0  0  0  0  0  0  0  0  0  0  0  0  # atno 6208 bound_to 6130
  -17.3723   33.6941    8.8380 H   0  0  0  0  0  0  0  0  0  0  0  0  # atno 6320 bound_to 6280
  -21.4593   32.8533    8.1782 H   0  0  0  0  0  0  0  0  0  0  0  0  # atno 12156 bound_to 12099
  -17.1625   35.9234    4.5091 H   0  0  0  0  0  0  0  0  0  0  0  0  # atno 12284 bound_to 12244
  -18.6324   31.7952    4.4513 H   0  0  0  0  0  0  0  0  0  0  0  0  # atno 12404 bound_to 12384
  -20.8543   29.8404    5.4635 H   0  0  0  0  0  0  0  0  0  0  0  0  # atno 12460 bound_to 12440
  -21.1974   26.2187    6.0931 H   0  0  0  0  0  0  0  0  0  0  0  0  # atno 12540 bound_to 12505
  -32.9148   26.2818    5.2192 H   0  0  0  0  0  0  0  0  0  0  0  0  # atno 17287 bound_to 17198
  -31.6921   26.5689    4.1371 H   0  0  0  0  0  0  0  0  0  0  0  0  # atno 17288 bound_to 17198
  -25.0803   39.9128    7.7119 H   0  0  0  0  0  0  0  0  0  0  0  0  # atno 17411 bound_to 17334
  -23.7381   38.2263    8.9532 H   0  0  0  0  0  0  0  0  0  0  0  0  # atno 17508 bound_to 17478
  -30.4440   33.5909   10.8439 H   0  0  0  0  0  0  0  0  0  0  0  0  # atno 20622 bound_to 20550
  -29.6336   33.2773    8.3506 LP  0  0  0  0  0  0  0  0  0  0  0  0  # atno 20694 bound_to 2606
  -30.6731   31.9159    8.6078 LP  0  0  0  0  0  0  0  0  0  0  0  0  # atno 20695 bound_to 2606
  -19.9471   27.3884    9.7298 LP  0  0  0  0  0  0  0  0  0  0  0  0  # atno 20696 bound_to 5966
  -19.5798   28.5349    7.9415 LP  0  0  0  0  0  0  0  0  0  0  0  0  # atno 20697 bound_to 5969
  -18.6675   29.9291    7.4683 LP  0  0  0  0  0  0  0  0  0  0  0  0  # atno 20698 bound_to 5969
  -16.6491   29.7959   10.1505 LP  0  0  0  0  0  0  0  0  0  0  0  0  # atno 20699 bound_to 6130
  -22.7634   33.7779    8.4828 LP  0  0  0  0  0  0  0  0  0  0  0  0  # atno 20700 bound_to 12099
  -21.4771   33.8189    9.4880 LP  0  0  0  0  0  0  0  0  0  0  0  0  # atno 20701 bound_to 12099
  -18.1328   35.4577    5.8905 LP  0  0  0  0  0  0  0  0  0  0  0  0  # atno 20702 bound_to 12244
  -17.1071   33.2088    7.0302 LP  0  0  0  0  0  0  0  0  0  0  0  0  # atno 20703 bound_to 12247
  -18.7559   32.9186    7.4743 LP  0  0  0  0  0  0  0  0  0  0  0  0  # atno 20704 bound_to 12247
  -19.4846   33.1497    5.1561 LP  0  0  0  0  0  0  0  0  0  0  0  0  # atno 20705 bound_to 12384
  -21.6896   30.5946    3.7229 LP  0  0  0  0  0  0  0  0  0  0  0  0  # atno 20706 bound_to 12387
  -20.1914   29.8335    3.3033 LP  0  0  0  0  0  0  0  0  0  0  0  0  # atno 20707 bound_to 12387
  -20.1507   28.8671    6.7309 LP  0  0  0  0  0  0  0  0  0  0  0  0  # atno 20708 bound_to 12440
  -19.5930   27.0206    7.2630 LP  0  0  0  0  0  0  0  0  0  0  0  0  # atno 20709 bound_to 12443
  -20.8791   26.1725    8.0547 LP  0  0  0  0  0  0  0  0  0  0  0  0  # atno 20710 bound_to 12443
  -22.3791   25.6231    4.9452 LP  0  0  0  0  0  0  0  0  0  0  0  0  # atno 20711 bound_to 12505
  -29.3287   34.1641   12.3199 LP  0  0  0  0  0  0  0  0  0  0  0  0  # atno 20712 bound_to 2603
  -27.1067   31.9092   13.4521 LP  0  0  0  0  0  0  0  0  0  0  0  0  # atno 20713 bound_to 20017
  -26.6772   33.5091   13.9579 LP  0  0  0  0  0  0  0  0  0  0  0  0  # atno 20714 bound_to 20017
  -28.9178   35.5627   10.1471 LP  0  0  0  0  0  0  0  0  0  0  0  0  # atno 20715 bound_to 20461
  -30.2853   35.9723   11.1280 LP  0  0  0  0  0  0  0  0  0  0  0  0  # atno 20716 bound_to 20461
  -30.4753   31.9922   11.5543 LP  0  0  0  0  0  0  0  0  0  0  0  0  # atno 20717 bound_to 20550
  -21.7436   23.6656    4.0231 LP  0  0  0  0  0  0  0  0  0  0  0  0  # atno 20718 bound_to 12508
  -20.5965   22.3685    4.0657 LP  0  0  0  0  0  0  0  0  0  0  0  0  # atno 20719 bound_to 12508
  -31.8825   25.0726    4.7943 LP  0  0  0  0  0  0  0  0  0  0  0  0  # atno 20720 bound_to 17198

> <Gold.Score>
     Fitness  S(hb_ext) S(vdw_ext)  S(hb_int)    S(int)      intcor
     26.10       0.00      19.00       0.00      -0.03      -0.76

> <Gold.Goldscore.Fitness>
26.0993

> <Gold.Goldscore.Internal.Vdw>
-0.3753

> <Gold.Goldscore.Internal.Torsion>
-0.4112

> <Gold.Goldscore.External.Vdw>
19.0017

> <Gold.Goldscore.Internal.HBond>
0.0000

> <Gold.Goldscore.External.HBond>
0.0000

> <Gold.Goldscore.Internal.Correction>
-0.7584

> <Gold.Goldscore.Internal.Vdw.Weighted>
-0.3753

> <Gold.Goldscore.Internal.Torsion.Weighted>
-0.4112

> <Gold.Goldscore.External.Vdw.Weighted>
26.1273

> <Gold.Goldscore.Internal.HBond.Weighted>
0.0000

> <Gold.Goldscore.External.HBond.Weighted>
0.0000

> <Gold.Goldscore.Internal.Correction.Weighted>
-0.7584

> <Gold.Rescore>
     Score     S(PLP)   S(hbond)     S(cho)   S(metal)  DE(clash)   DE(tors)     intcor
     28.28     -28.59       0.00       0.00       0.00       0.00       0.15       ----

> <Gold.PLP.Fitness>
28.2801

> <Gold.PLP.PLP>
-28.5891

> <Gold.PLP.part.hbond>
0.0000

> <Gold.PLP.part.metal>
0.0000

> <Gold.PLP.part.buried>
-4.2409

> <Gold.PLP.part.nonpolar>
-24.2239

> <Gold.PLP.part.repulsive>
0.0885

> <Gold.PLP.ligand.clash>
0.0000

> <Gold.PLP.ligand.torsion>
0.1545

> <Gold.PLP.Chemscore.Hbond>
0.0000

> <Gold.PLP.Chemscore.CHOScore>
0.0000

> <Gold.PLP.Chemscore.Metal>
0.0000

> <Gold.PLP.Chemscore.Internal.Correction>
   9.000000E+99

