#       Name:                CT1002167954
#       Creating user name   hitesit
#       Creation time:       Sun Apr 16 02:24:09 2023


#       File generated by GOLD software.
#

@<TRIPOS>MOLECULE
CT1002167954|ligand_prepared|mol2|1|dock8
    29    30     1
SMALL
NO_CHARGES


@<TRIPOS>ATOM
      1 C1         -23.6031  31.5809   2.8410 C.3            1 RES1               0.0000
      2 C2         -23.7621  30.7461   4.1281 C.ar           1 RES1               0.0000
      3 C3         -23.9340  33.0212   3.2209 C.2            1 RES1               0.0000
      4 C4         -22.1664  31.3751   2.3737 C.2            1 RES1               0.0000
      5 C5         -24.5453  31.1466   1.6942 C.3            1 RES1               0.0000
      6 C6         -23.4277  31.2839   5.3673 C.ar           1 RES1               0.0000
      7 C7         -24.2435  29.4401   4.0924 C.ar           1 RES1               0.0000
      8 N8         -22.8979  33.9026   3.3194 N.am           1 RES1               0.0000
      9 O9         -25.0819  33.3690   3.4689 O.2            1 RES1               0.0000
     10 N10        -21.3247  32.4562   2.3905 N.am           1 RES1               0.0000
     11 O11        -21.7512  30.2827   2.0070 O.2            1 RES1               0.0000
     12 C12        -24.5804  32.1208   0.5272 C.3            1 RES1               0.0000
     13 C13        -23.5721  30.5440   6.5292 C.ar           1 RES1               0.0000
     14 C14        -24.3870  28.7019   5.2556 C.ar           1 RES1               0.0000
     15 C15        -21.6168  33.7036   2.8711 C.2            1 RES1               0.0000
     16 C16        -24.0522  29.2528   6.4742 C.ar           1 RES1               0.0000
     17 O17        -20.7896  34.6101   2.9031 O.2            1 RES1               0.0000
     18 H18        -24.2232  30.1650   1.3251 H              1 RES1               0.0000
     19 H19        -25.5611  31.0377   2.0938 H              1 RES1               0.0000
     20 H20        -23.0460  32.2975   5.4300 H              1 RES1               0.0000
     21 H21        -24.5122  28.9858   3.1448 H              1 RES1               0.0000
     22 H22        -23.0938  34.7919   3.7678 H              1 RES1               0.0000
     23 H23        -20.3941  32.3184   2.0092 H              1 RES1               0.0000
     24 H24        -25.2563  31.7685  -0.2492 H              1 RES1               0.0000
     25 H25        -24.9207  33.1014   0.8534 H              1 RES1               0.0000
     26 H26        -23.5908  32.2339   0.0893 H              1 RES1               0.0000
     27 H27        -23.3060  30.9817   7.4856 H              1 RES1               0.0000
     28 H28        -24.7646  27.6858   5.2075 H              1 RES1               0.0000
     29 H29        -24.1656  28.6735   7.3846 H              1 RES1               0.0000
@<TRIPOS>BOND
    1    1    2 1     
    2    1    3 1     
    3    1    4 1     
    4    1    5 1     
    5    2    6 ar    
    6    2    7 ar    
    7    3    8 1     
    8    3    9 2     
    9    4   10 1     
   10    4   11 2     
   11    5   12 1     
   12    5   18 1     
   13    5   19 1     
   14    6   13 ar    
   15    6   20 1     
   16    7   14 ar    
   17    7   21 1     
   18    8   15 1     
   19    8   22 1     
   20   10   15 1     
   21   10   23 1     
   22   12   24 1     
   23   12   25 1     
   24   12   26 1     
   25   13   16 ar    
   26   13   27 1     
   27   14   16 ar    
   28   14   28 1     
   29   15   17 2     
   30   16   29 1     
@<TRIPOS>SUBSTRUCTURE
      1 RES1           1
@<TRIPOS>SET
DONOR_HYDROGENS      STATIC     ATOMS    <user>   **** ""
2 22 23
ATOM$RED        STATIC     ATOMS    COLORGROUP SYSTEM
2 22 23
@<TRIPOS>COMMENT
> <Gold.Version>
2022.3.0

> <Gold.Id.Protein>
unknown|7ta6_clean|pdb

> <Gold.Protein.RotatedTorsions>
[ 6033 5966 5967 5968 ] final  -13.51 input   72.04 | X-H torsion
[ 6208 6130 6131 6132 ] final   87.54 input   28.46 | X-H torsion
[ 12156 12099 12098 12096 ] final   75.78 input   60.01 | X-H torsion
[ 12284 12244 12245 12246 ] final -119.94 input   50.53 | X-H torsion
[ 12404 12384 12385 12386 ] final   96.41 input   25.82 | X-H torsion
[ 12460 12440 12441 12442 ] final  -20.72 input   -3.82 | X-H torsion
[ 12540 12505 12506 12507 ] final  123.01 input   74.25 | X-H torsion
[ 2786 2603 2604 2605 ] final  -90.35 input  117.54 | X-H torsion
[ 20622 20550 20554 20551 ] final   77.80 input   82.88 | X-H torsion
[ 17287 17198 17202 17199 ] final  -24.15 input   60.02 | X-H torsion
[ 6320 6280 6281 6282 ] final -156.47 input   19.24 | X-H torsion
[ 17411 17334 17335 17336 ] final  -29.33 input   65.80 | X-H torsion
[ 17508 17478 17479 17480 ] final   83.40 input  127.72 | X-H torsion
[ 20694 2606 2605 2604 ] final   92.47 input   -0.00 | X-H torsion
[ 20697 5969 5968 5967 ] final   45.09 input    0.00 | X-H torsion
[ 20703 12247 12246 12245 ] final -142.85 input    0.00 | X-H torsion
[ 20706 12387 12386 12385 ] final  -48.25 input   -0.00 | X-H torsion
[ 20709 12443 12442 12441 ] final  -45.55 input    0.00 | X-H torsion
[ 20713 20017 20016 20015 ] final  -31.62 input   -0.00 | X-H torsion
[ 20715 20461 20460 20459 ] final   55.79 input   -0.00 | X-H torsion
[ 20718 12508 12507 12506 ] final  -93.94 input   -0.00 | X-H torsion

> <Gold.Protein.ActiveResidues>
 TRP28   LEU57   ILE58   TYR59   SER60   LEU94   TYR119  LEU120  GLY121  GLY122 
 VAL123  PHE124  XCP1    LEU2    GLY3    TRP4    ILE6    ILE24   LEU25   CYS27  
 XCP29  

> <Gold.Protein.RotatedAtoms>
  -28.3600   34.7214   11.9025 H   0  0  0  0  0  0  0  0  0  0  0  0  # atno 2786 bound_to 2603
  -19.9374   27.4224    9.5382 H   0  0  0  0  0  0  0  0  0  0  0  0  # atno 6033 bound_to 5966
  -17.7592   29.7676   10.6690 H   0  0  0  0  0  0  0  0  0  0  0  0  # atno 6208 bound_to 6130
  -16.5170   32.5993    9.5271 H   0  0  0  0  0  0  0  0  0  0  0  0  # atno 6320 bound_to 6280
  -22.5400   34.0755    9.0514 H   0  0  0  0  0  0  0  0  0  0  0  0  # atno 12156 bound_to 12099
  -18.1135   35.9343    4.4884 H   0  0  0  0  0  0  0  0  0  0  0  0  # atno 12284 bound_to 12244
  -19.7981   32.9710    4.7277 H   0  0  0  0  0  0  0  0  0  0  0  0  # atno 12404 bound_to 12384
  -20.6647   28.9885    6.8901 H   0  0  0  0  0  0  0  0  0  0  0  0  # atno 12460 bound_to 12440
  -22.6900   25.8960    5.4443 H   0  0  0  0  0  0  0  0  0  0  0  0  # atno 12540 bound_to 12505
  -32.9055   26.3409    5.1921 H   0  0  0  0  0  0  0  0  0  0  0  0  # atno 17287 bound_to 17198
  -31.6523   26.5190    4.1215 H   0  0  0  0  0  0  0  0  0  0  0  0  # atno 17288 bound_to 17198
  -25.5025   40.3021    8.2431 H   0  0  0  0  0  0  0  0  0  0  0  0  # atno 17411 bound_to 17334
  -23.6606   39.8010    8.1866 H   0  0  0  0  0  0  0  0  0  0  0  0  # atno 17508 bound_to 17478
  -30.7396   32.8990   12.0387 H   0  0  0  0  0  0  0  0  0  0  0  0  # atno 20622 bound_to 20550
  -30.1206   31.7341    8.5507 LP  0  0  0  0  0  0  0  0  0  0  0  0  # atno 20694 bound_to 2606
  -30.1861   33.4590    8.4077 LP  0  0  0  0  0  0  0  0  0  0  0  0  # atno 20695 bound_to 2606
  -19.0866   25.9147    9.8045 LP  0  0  0  0  0  0  0  0  0  0  0  0  # atno 20696 bound_to 5966
  -19.6938   28.6775    8.0475 LP  0  0  0  0  0  0  0  0  0  0  0  0  # atno 20697 bound_to 5969
  -18.5535   29.7865    7.3622 LP  0  0  0  0  0  0  0  0  0  0  0  0  # atno 20698 bound_to 5969
  -17.1202   29.3841    9.0897 LP  0  0  0  0  0  0  0  0  0  0  0  0  # atno 20699 bound_to 6130
  -21.0788   33.3684    9.1662 LP  0  0  0  0  0  0  0  0  0  0  0  0  # atno 20700 bound_to 12099
  -22.0732   32.9974    7.9252 LP  0  0  0  0  0  0  0  0  0  0  0  0  # atno 20701 bound_to 12099
  -17.2151   35.4471    5.9105 LP  0  0  0  0  0  0  0  0  0  0  0  0  # atno 20702 bound_to 12244
  -18.0440   32.2084    7.3287 LP  0  0  0  0  0  0  0  0  0  0  0  0  # atno 20703 bound_to 12247
  -17.8191   33.9190    7.1758 LP  0  0  0  0  0  0  0  0  0  0  0  0  # atno 20704 bound_to 12247
  -18.3494   32.0048    4.8868 LP  0  0  0  0  0  0  0  0  0  0  0  0  # atno 20705 bound_to 12384
  -21.3958   30.9309    3.6828 LP  0  0  0  0  0  0  0  0  0  0  0  0  # atno 20706 bound_to 12387
  -20.4851   29.4972    3.3434 LP  0  0  0  0  0  0  0  0  0  0  0  0  # atno 20707 bound_to 12387
  -20.3367   29.7030    5.3311 LP  0  0  0  0  0  0  0  0  0  0  0  0  # atno 20708 bound_to 12440
  -19.5597   26.9458    7.2458 LP  0  0  0  0  0  0  0  0  0  0  0  0  # atno 20709 bound_to 12443
  -20.9123   26.2473    8.0719 LP  0  0  0  0  0  0  0  0  0  0  0  0  # atno 20710 bound_to 12443
  -20.9430   25.9336    5.5695 LP  0  0  0  0  0  0  0  0  0  0  0  0  # atno 20711 bound_to 12505
  -28.6121   33.2961   12.8868 LP  0  0  0  0  0  0  0  0  0  0  0  0  # atno 20712 bound_to 2603
  -26.8245   33.5202   14.0009 LP  0  0  0  0  0  0  0  0  0  0  0  0  # atno 20713 bound_to 20017
  -26.9593   31.8980   13.4091 LP  0  0  0  0  0  0  0  0  0  0  0  0  # atno 20714 bound_to 20017
  -28.9760   36.3664   10.6366 LP  0  0  0  0  0  0  0  0  0  0  0  0  # atno 20715 bound_to 20461
  -30.2271   35.1686   10.6385 LP  0  0  0  0  0  0  0  0  0  0  0  0  # atno 20716 bound_to 20461
  -30.1885   32.6637   10.3948 LP  0  0  0  0  0  0  0  0  0  0  0  0  # atno 20717 bound_to 20550
  -21.7336   22.3718    4.1712 LP  0  0  0  0  0  0  0  0  0  0  0  0  # atno 20718 bound_to 12508
  -20.6065   23.6623    3.9176 LP  0  0  0  0  0  0  0  0  0  0  0  0  # atno 20719 bound_to 12508
  -31.9309   25.0635    4.8363 LP  0  0  0  0  0  0  0  0  0  0  0  0  # atno 20720 bound_to 17198

> <Gold.Score>
     Fitness  S(hb_ext) S(vdw_ext)  S(hb_int)    S(int)      intcor
     26.78       0.18      19.62       0.00      -0.38      -0.76

> <Gold.Goldscore.Fitness>
26.7837

> <Gold.Goldscore.Internal.Vdw>
-0.5762

> <Gold.Goldscore.Internal.Torsion>
-0.5579

> <Gold.Goldscore.External.Vdw>
19.6189

> <Gold.Goldscore.Internal.HBond>
0.0000

> <Gold.Goldscore.External.HBond>
0.1834

> <Gold.Goldscore.Internal.Correction>
-0.7584

> <Gold.Goldscore.Hbonds>
donor molecule, donor type, donor heavy atom, donor atom, acceptor molecule, acceptor atom, score
      P1  H 12384 12404       L1    17  0.09

> <Gold.Goldscore.Internal.Vdw.Weighted>
-0.5762

> <Gold.Goldscore.Internal.Torsion.Weighted>
-0.5579

> <Gold.Goldscore.External.Vdw.Weighted>
26.9760

> <Gold.Goldscore.Internal.HBond.Weighted>
0.0000

> <Gold.Goldscore.External.HBond.Weighted>
0.1834

> <Gold.Goldscore.Internal.Correction.Weighted>
-0.7584

> <Gold.Rescore>
     Score     S(PLP)   S(hbond)     S(cho)   S(metal)  DE(clash)   DE(tors)     intcor
     25.09     -27.17       0.00       0.00       0.00       2.02       0.03       ----

> <Gold.PLP.Fitness>
25.0856

> <Gold.PLP.PLP>
-27.1684

> <Gold.PLP.part.hbond>
0.0000

> <Gold.PLP.part.metal>
0.0000

> <Gold.PLP.part.buried>
-3.9362

> <Gold.PLP.part.nonpolar>
-23.9988

> <Gold.PLP.part.repulsive>
0.1777

> <Gold.PLP.ligand.clash>
2.0165

> <Gold.PLP.ligand.torsion>
0.0332

> <Gold.PLP.Chemscore.Hbond>
0.0000

> <Gold.PLP.Chemscore.CHOScore>
0.0000

> <Gold.PLP.Chemscore.Metal>
0.0000

> <Gold.PLP.Chemscore.Internal.Correction>
   9.000000E+99

