#       Name:                CT1002167954
#       Creating user name   hitesit
#       Creation time:       Sun Apr 16 02:24:07 2023


#       File generated by GOLD software.
#

@<TRIPOS>MOLECULE
CT1002167954|ligand_prepared|mol2|1|dock5
    29    30     1
SMALL
NO_CHARGES


@<TRIPOS>ATOM
      1 C1         -24.4310  28.6584   3.1466 C.3            1 RES1               0.0000
      2 C2         -24.2249  29.7000   4.2653 C.ar           1 RES1               0.0000
      3 C3         -23.1056  28.5678   2.3961 C.2            1 RES1               0.0000
      4 C4         -24.8433  27.3643   3.8394 C.2            1 RES1               0.0000
      5 C5         -25.5415  29.0355   2.1386 C.3            1 RES1               0.0000
      6 C6         -24.0759  31.0492   3.9585 C.ar           1 RES1               0.0000
      7 C7         -24.1844  29.3279   5.6064 C.ar           1 RES1               0.0000
      8 N8         -22.3400  27.4573   2.5975 N.am           1 RES1               0.0000
      9 O9         -22.7196  29.4750   1.6692 O.2            1 RES1               0.0000
     10 N10        -23.9869  26.2969   3.7684 N.am           1 RES1               0.0000
     11 O11        -25.8945  27.2644   4.4602 O.2            1 RES1               0.0000
     12 C12        -25.8419  27.9460   1.1213 C.3            1 RES1               0.0000
     13 C13        -23.8959  31.9927   4.9564 C.ar           1 RES1               0.0000
     14 C14        -24.0040  30.2730   6.6027 C.ar           1 RES1               0.0000
     15 C15        -22.7401  26.2942   3.2049 C.2            1 RES1               0.0000
     16 C16        -23.8602  31.6054   6.2790 C.ar           1 RES1               0.0000
     17 O17        -22.0062  25.3103   3.2284 O.2            1 RES1               0.0000
     18 H18        -26.4599  29.2630   2.6938 H              1 RES1               0.0000
     19 H19        -25.2392  29.9443   1.6038 H              1 RES1               0.0000
     20 H20        -24.0988  31.3725   2.9231 H              1 RES1               0.0000
     21 H21        -24.2942  28.2852   5.8844 H              1 RES1               0.0000
     22 H22        -21.3814  27.4951   2.2658 H              1 RES1               0.0000
     23 H23        -24.3088  25.4233   4.1729 H              1 RES1               0.0000
     24 H24        -26.6278  28.2619   0.4385 H              1 RES1               0.0000
     25 H25        -24.9564  27.7120   0.5338 H              1 RES1               0.0000
     26 H26        -26.1699  27.0349   1.6174 H              1 RES1               0.0000
     27 H27        -23.7818  33.0399   4.6963 H              1 RES1               0.0000
     28 H28        -23.9760  29.9636   7.6423 H              1 RES1               0.0000
     29 H29        -23.7195  32.3447   7.0605 H              1 RES1               0.0000
@<TRIPOS>BOND
    1    1    2 1     
    2    1    3 1     
    3    1    4 1     
    4    1    5 1     
    5    2    6 ar    
    6    2    7 ar    
    7    3    8 1     
    8    3    9 2     
    9    4   10 1     
   10    4   11 2     
   11    5   12 1     
   12    5   18 1     
   13    5   19 1     
   14    6   13 ar    
   15    6   20 1     
   16    7   14 ar    
   17    7   21 1     
   18    8   15 1     
   19    8   22 1     
   20   10   15 1     
   21   10   23 1     
   22   12   24 1     
   23   12   25 1     
   24   12   26 1     
   25   13   16 ar    
   26   13   27 1     
   27   14   16 ar    
   28   14   28 1     
   29   15   17 2     
   30   16   29 1     
@<TRIPOS>SUBSTRUCTURE
      1 RES1           1
@<TRIPOS>SET
DONOR_HYDROGENS      STATIC     ATOMS    <user>   **** ""
2 22 23
ATOM$RED        STATIC     ATOMS    COLORGROUP SYSTEM
2 22 23
@<TRIPOS>COMMENT
> <Gold.Version>
2022.3.0

> <Gold.Id.Protein>
unknown|7ta6_clean|pdb

> <Gold.Protein.RotatedTorsions>
[ 6033 5966 5967 5968 ] final  130.31 input   72.04 | X-H torsion
[ 6208 6130 6131 6132 ] final   30.15 input   28.46 | X-H torsion
[ 12156 12099 12098 12096 ] final  -96.85 input   60.01 | X-H torsion
[ 12284 12244 12245 12246 ] final   86.08 input   50.53 | X-H torsion
[ 12404 12384 12385 12386 ] final   77.21 input   25.82 | X-H torsion
[ 12460 12440 12441 12442 ] final  -56.05 input   -3.82 | X-H torsion
[ 12540 12505 12506 12507 ] final  -42.47 input   74.25 | X-H torsion
[ 2786 2603 2604 2605 ] final  -79.25 input  117.54 | X-H torsion
[ 20622 20550 20554 20551 ] final    4.62 input   82.88 | X-H torsion
[ 17287 17198 17202 17199 ] final   75.24 input   60.02 | X-H torsion
[ 6320 6280 6281 6282 ] final -120.43 input   19.24 | X-H torsion
[ 17411 17334 17335 17336 ] final  118.88 input   65.80 | X-H torsion
[ 17508 17478 17479 17480 ] final  -79.55 input  127.72 | X-H torsion
[ 20694 2606 2605 2604 ] final -172.49 input   -0.00 | X-H torsion
[ 20697 5969 5968 5967 ] final  -97.79 input    0.00 | X-H torsion
[ 20703 12247 12246 12245 ] final   -0.28 input    0.00 | X-H torsion
[ 20706 12387 12386 12385 ] final   92.94 input   -0.00 | X-H torsion
[ 20709 12443 12442 12441 ] final  156.24 input    0.00 | X-H torsion
[ 20713 20017 20016 20015 ] final -103.29 input   -0.00 | X-H torsion
[ 20715 20461 20460 20459 ] final  -55.82 input   -0.00 | X-H torsion
[ 20718 12508 12507 12506 ] final   71.32 input   -0.00 | X-H torsion

> <Gold.Protein.ActiveResidues>
 TRP28   LEU57   ILE58   TYR59   SER60   LEU94   TYR119  LEU120  GLY121  GLY122 
 VAL123  PHE124  XCP1    LEU2    GLY3    TRP4    ILE6    ILE24   LEU25   CYS27  
 XCP29  

> <Gold.Protein.RotatedAtoms>
  -28.5319   34.7299   11.9004 H   0  0  0  0  0  0  0  0  0  0  0  0  # atno 2786 bound_to 2603
  -19.0982   25.9743    9.2624 H   0  0  0  0  0  0  0  0  0  0  0  0  # atno 6033 bound_to 5966
  -16.9296   29.8674   10.5307 H   0  0  0  0  0  0  0  0  0  0  0  0  # atno 6208 bound_to 6130
  -16.8929   32.9712    9.6768 H   0  0  0  0  0  0  0  0  0  0  0  0  # atno 6320 bound_to 6280
  -21.1890   32.9220    8.4716 H   0  0  0  0  0  0  0  0  0  0  0  0  # atno 12156 bound_to 12099
  -16.9099   35.5084    5.6654 H   0  0  0  0  0  0  0  0  0  0  0  0  # atno 12284 bound_to 12244
  -19.8374   32.7856    4.5010 H   0  0  0  0  0  0  0  0  0  0  0  0  # atno 12404 bound_to 12384
  -21.1050   29.2501    6.7355 H   0  0  0  0  0  0  0  0  0  0  0  0  # atno 12460 bound_to 12440
  -20.9225   25.7940    5.3931 H   0  0  0  0  0  0  0  0  0  0  0  0  # atno 12540 bound_to 12505
  -31.8826   26.7467    4.2324 H   0  0  0  0  0  0  0  0  0  0  0  0  # atno 17287 bound_to 17198
  -31.6908   25.1436    4.6090 H   0  0  0  0  0  0  0  0  0  0  0  0  # atno 17288 bound_to 17198
  -26.0274   38.9370    7.0670 H   0  0  0  0  0  0  0  0  0  0  0  0  # atno 17411 bound_to 17334
  -23.8931   38.4506    9.2592 H   0  0  0  0  0  0  0  0  0  0  0  0  # atno 17508 bound_to 17478
  -30.5945   33.6512   11.3080 H   0  0  0  0  0  0  0  0  0  0  0  0  # atno 20622 bound_to 20550
  -31.0109   32.6494    8.5880 LP  0  0  0  0  0  0  0  0  0  0  0  0  # atno 20694 bound_to 2606
  -29.2958   32.5438    8.3704 LP  0  0  0  0  0  0  0  0  0  0  0  0  # atno 20695 bound_to 2606
  -19.8946   27.3091   10.0700 LP  0  0  0  0  0  0  0  0  0  0  0  0  # atno 20696 bound_to 5966
  -18.4270   29.2775    7.1925 LP  0  0  0  0  0  0  0  0  0  0  0  0  # atno 20697 bound_to 5969
  -19.8204   29.1865    8.2173 LP  0  0  0  0  0  0  0  0  0  0  0  0  # atno 20698 bound_to 5969
  -17.9334   29.2863    9.2253 LP  0  0  0  0  0  0  0  0  0  0  0  0  # atno 20699 bound_to 6130
  -22.6777   33.5135    8.1846 LP  0  0  0  0  0  0  0  0  0  0  0  0  # atno 20700 bound_to 12099
  -21.8350   34.0141    9.4907 LP  0  0  0  0  0  0  0  0  0  0  0  0  # atno 20701 bound_to 12099
  -18.3766   35.8582    4.7747 LP  0  0  0  0  0  0  0  0  0  0  0  0  # atno 20702 bound_to 12244
  -17.3373   33.6652    7.0647 LP  0  0  0  0  0  0  0  0  0  0  0  0  # atno 20703 bound_to 12247
  -18.5257   32.4623    7.4398 LP  0  0  0  0  0  0  0  0  0  0  0  0  # atno 20704 bound_to 12247
  -18.3112   32.1853    5.1076 LP  0  0  0  0  0  0  0  0  0  0  0  0  # atno 20705 bound_to 12384
  -20.1410   29.9566    3.3021 LP  0  0  0  0  0  0  0  0  0  0  0  0  # atno 20706 bound_to 12387
  -21.7399   30.4715    3.7241 LP  0  0  0  0  0  0  0  0  0  0  0  0  # atno 20707 bound_to 12387
  -19.9047   29.4463    5.4828 LP  0  0  0  0  0  0  0  0  0  0  0  0  # atno 20708 bound_to 12440
  -20.7482   25.9783    7.9836 LP  0  0  0  0  0  0  0  0  0  0  0  0  # atno 20709 bound_to 12443
  -19.7239   27.2148    7.3341 LP  0  0  0  0  0  0  0  0  0  0  0  0  # atno 20710 bound_to 12443
  -22.6435   26.0317    5.6187 LP  0  0  0  0  0  0  0  0  0  0  0  0  # atno 20711 bound_to 12505
  -28.4457   33.2878   12.8888 LP  0  0  0  0  0  0  0  0  0  0  0  0  # atno 20712 bound_to 2603
  -27.6666   32.9554   14.0036 LP  0  0  0  0  0  0  0  0  0  0  0  0  # atno 20713 bound_to 20017
  -26.1172   32.4628   13.4064 LP  0  0  0  0  0  0  0  0  0  0  0  0  # atno 20714 bound_to 20017
  -30.2685   36.0039   11.1368 LP  0  0  0  0  0  0  0  0  0  0  0  0  # atno 20715 bound_to 20461
  -28.9346   35.5311   10.1383 LP  0  0  0  0  0  0  0  0  0  0  0  0  # atno 20716 bound_to 20461
  -30.3292   31.9338   11.1039 LP  0  0  0  0  0  0  0  0  0  0  0  0  # atno 20717 bound_to 20550
  -20.7911   23.7858    3.9205 LP  0  0  0  0  0  0  0  0  0  0  0  0  # atno 20718 bound_to 12508
  -21.5490   22.2482    4.1683 LP  0  0  0  0  0  0  0  0  0  0  0  0  # atno 20719 bound_to 12508
  -32.9002   26.0185    5.3014 LP  0  0  0  0  0  0  0  0  0  0  0  0  # atno 20720 bound_to 17198

> <Gold.Score>
     Fitness  S(hb_ext) S(vdw_ext)  S(hb_int)    S(int)      intcor
     27.24       0.00      21.12       0.00      -1.80      -0.76

> <Gold.Goldscore.Fitness>
27.2421

> <Gold.Goldscore.Internal.Vdw>
-2.1349

> <Gold.Goldscore.Internal.Torsion>
-0.4203

> <Gold.Goldscore.External.Vdw>
21.1192

> <Gold.Goldscore.Internal.HBond>
0.0000

> <Gold.Goldscore.External.HBond>
0.0000

> <Gold.Goldscore.Internal.Correction>
-0.7584

> <Gold.Goldscore.Internal.Vdw.Weighted>
-2.1349

> <Gold.Goldscore.Internal.Torsion.Weighted>
-0.4203

> <Gold.Goldscore.External.Vdw.Weighted>
29.0389

> <Gold.Goldscore.Internal.HBond.Weighted>
0.0000

> <Gold.Goldscore.External.HBond.Weighted>
0.0000

> <Gold.Goldscore.Internal.Correction.Weighted>
-0.7584

> <Gold.Rescore>
     Score     S(PLP)   S(hbond)     S(cho)   S(metal)  DE(clash)   DE(tors)     intcor
     29.37     -31.08       0.00       0.00       0.00       1.45       0.13       ----

> <Gold.PLP.Fitness>
29.3711

> <Gold.PLP.PLP>
-31.0815

> <Gold.PLP.part.hbond>
-0.3837

> <Gold.PLP.part.metal>
0.0000

> <Gold.PLP.part.buried>
-4.5100

> <Gold.PLP.part.nonpolar>
-27.4206

> <Gold.PLP.part.repulsive>
0.1302

> <Gold.PLP.ligand.clash>
1.4469

> <Gold.PLP.ligand.torsion>
0.1318

> <Gold.PLP.Chemscore.Hbond>
0.0000

> <Gold.PLP.Chemscore.CHOScore>
0.0000

> <Gold.PLP.Chemscore.Metal>
0.0000

> <Gold.PLP.Chemscore.Internal.Correction>
   9.000000E+99

