#       Name:                CT1002167954
#       Creating user name   hitesit
#       Creation time:       Sun Apr 16 02:24:10 2023


#       File generated by GOLD software.
#

@<TRIPOS>MOLECULE
CT1002167954|ligand_prepared|mol2|1|dock10
    29    30     1
SMALL
NO_CHARGES


@<TRIPOS>ATOM
      1 C1         -24.4653  31.3502   4.7709 C.3            1 RES1               0.0000
      2 C2         -23.6440  32.4303   4.0377 C.ar           1 RES1               0.0000
      3 C3         -25.0853  32.0345   5.9857 C.2            1 RES1               0.0000
      4 C4         -25.4839  30.8308   3.7623 C.2            1 RES1               0.0000
      5 C5         -23.6226  30.1495   5.2604 C.3            1 RES1               0.0000
      6 C6         -22.6409  32.0715   3.1423 C.ar           1 RES1               0.0000
      7 C7         -23.8793  33.7870   4.2439 C.ar           1 RES1               0.0000
      8 N8         -26.4211  32.3060   5.9446 N.am           1 RES1               0.0000
      9 O9         -24.4049  32.3665   6.9485 O.2            1 RES1               0.0000
     10 N10        -26.8107  31.0679   4.0094 N.am           1 RES1               0.0000
     11 O11        -25.1484  30.2328   2.7473 O.2            1 RES1               0.0000
     12 C12        -24.3770  29.2074   6.1853 C.3            1 RES1               0.0000
     13 C13        -21.9016  33.0340   2.4750 C.ar           1 RES1               0.0000
     14 C14        -23.1387  34.7480   3.5756 C.ar           1 RES1               0.0000
     15 C15        -27.3236  31.8087   5.0391 C.2            1 RES1               0.0000
     16 C16        -22.1503  34.3728   2.6908 C.ar           1 RES1               0.0000
     17 O17        -28.5259  32.0234   5.1641 O.2            1 RES1               0.0000
     18 H18        -23.2741  29.5835   4.3877 H              1 RES1               0.0000
     19 H19        -22.7392  30.5298   5.7880 H              1 RES1               0.0000
     20 H20        -22.4292  31.0229   2.9615 H              1 RES1               0.0000
     21 H21        -24.6512  34.1055   4.9363 H              1 RES1               0.0000
     22 H22        -26.7825  32.9373   6.6525 H              1 RES1               0.0000
     23 H23        -27.4778  30.6537   3.3662 H              1 RES1               0.0000
     24 H24        -23.7402  28.3830   6.4992 H              1 RES1               0.0000
     25 H25        -24.7166  29.7314   7.0763 H              1 RES1               0.0000
     26 H26        -25.2484  28.7908   5.6843 H              1 RES1               0.0000
     27 H27        -21.1239  32.7335   1.7806 H              1 RES1               0.0000
     28 H28        -23.3374  35.8005   3.7491 H              1 RES1               0.0000
     29 H29        -21.5713  35.1266   2.1676 H              1 RES1               0.0000
@<TRIPOS>BOND
    1    1    2 1     
    2    1    3 1     
    3    1    4 1     
    4    1    5 1     
    5    2    6 ar    
    6    2    7 ar    
    7    3    8 1     
    8    3    9 2     
    9    4   10 1     
   10    4   11 2     
   11    5   12 1     
   12    5   18 1     
   13    5   19 1     
   14    6   13 ar    
   15    6   20 1     
   16    7   14 ar    
   17    7   21 1     
   18    8   15 1     
   19    8   22 1     
   20   10   15 1     
   21   10   23 1     
   22   12   24 1     
   23   12   25 1     
   24   12   26 1     
   25   13   16 ar    
   26   13   27 1     
   27   14   16 ar    
   28   14   28 1     
   29   15   17 2     
   30   16   29 1     
@<TRIPOS>SUBSTRUCTURE
      1 RES1           1
@<TRIPOS>SET
DONOR_HYDROGENS      STATIC     ATOMS    <user>   **** ""
2 22 23
ATOM$RED        STATIC     ATOMS    COLORGROUP SYSTEM
2 22 23
@<TRIPOS>COMMENT
> <Gold.Version>
2022.3.0

> <Gold.Id.Protein>
unknown|7ta6_clean|pdb

> <Gold.Protein.RotatedTorsions>
[ 6033 5966 5967 5968 ] final   29.47 input   72.04 | X-H torsion
[ 6208 6130 6131 6132 ] final   83.55 input   28.46 | X-H torsion
[ 12156 12099 12098 12096 ] final  -62.23 input   60.01 | X-H torsion
[ 12284 12244 12245 12246 ] final   83.63 input   50.53 | X-H torsion
[ 12404 12384 12385 12386 ] final   83.88 input   25.82 | X-H torsion
[ 12460 12440 12441 12442 ] final  -23.54 input   -3.82 | X-H torsion
[ 12540 12505 12506 12507 ] final  117.41 input   74.25 | X-H torsion
[ 2786 2603 2604 2605 ] final   99.30 input  117.54 | X-H torsion
[ 20622 20550 20554 20551 ] final  -87.67 input   82.88 | X-H torsion
[ 17287 17198 17202 17199 ] final  120.70 input   60.02 | X-H torsion
[ 6320 6280 6281 6282 ] final  -22.24 input   19.24 | X-H torsion
[ 17411 17334 17335 17336 ] final  -76.59 input   65.80 | X-H torsion
[ 17508 17478 17479 17480 ] final   56.76 input  127.72 | X-H torsion
[ 20694 2606 2605 2604 ] final   41.60 input   -0.00 | X-H torsion
[ 20697 5969 5968 5967 ] final   76.31 input    0.00 | X-H torsion
[ 20703 12247 12246 12245 ] final   98.26 input    0.00 | X-H torsion
[ 20706 12387 12386 12385 ] final   91.45 input   -0.00 | X-H torsion
[ 20709 12443 12442 12441 ] final   14.50 input    0.00 | X-H torsion
[ 20713 20017 20016 20015 ] final   66.33 input   -0.00 | X-H torsion
[ 20715 20461 20460 20459 ] final  123.57 input   -0.00 | X-H torsion
[ 20718 12508 12507 12506 ] final  -18.88 input   -0.00 | X-H torsion

> <Gold.Protein.ActiveResidues>
 TRP28   LEU57   ILE58   TYR59   SER60   LEU94   TYR119  LEU120  GLY121  GLY122 
 VAL123  PHE124  XCP1    LEU2    GLY3    TRP4    ILE6    ILE24   LEU25   CYS27  
 XCP29  

> <Gold.Protein.RotatedAtoms>
  -28.4672   33.2532   12.8897 H   0  0  0  0  0  0  0  0  0  0  0  0  # atno 2786 bound_to 2603
  -19.7794   27.1336    8.9734 H   0  0  0  0  0  0  0  0  0  0  0  0  # atno 6033 bound_to 5966
  -17.7022   29.7827   10.6861 H   0  0  0  0  0  0  0  0  0  0  0  0  # atno 6208 bound_to 6130
  -17.3402   33.7057    8.6456 H   0  0  0  0  0  0  0  0  0  0  0  0  # atno 6320 bound_to 6280
  -21.0401   33.1844    8.9401 H   0  0  0  0  0  0  0  0  0  0  0  0  # atno 12156 bound_to 12099
  -16.9314   35.4978    5.6950 H   0  0  0  0  0  0  0  0  0  0  0  0  # atno 12284 bound_to 12244
  -19.8334   32.8551    4.5771 H   0  0  0  0  0  0  0  0  0  0  0  0  # atno 12404 bound_to 12384
  -20.7046   29.0055    6.8884 H   0  0  0  0  0  0  0  0  0  0  0  0  # atno 12460 bound_to 12440
  -22.6794   25.8516    5.3699 H   0  0  0  0  0  0  0  0  0  0  0  0  # atno 12540 bound_to 12505
  -31.4625   26.1545    4.0899 H   0  0  0  0  0  0  0  0  0  0  0  0  # atno 17287 bound_to 17198
  -32.2563   25.0904    5.0829 H   0  0  0  0  0  0  0  0  0  0  0  0  # atno 17288 bound_to 17198
  -26.2533   40.2604    8.4586 H   0  0  0  0  0  0  0  0  0  0  0  0  # atno 17411 bound_to 17334
  -23.8192   39.9158    8.5415 H   0  0  0  0  0  0  0  0  0  0  0  0  # atno 17508 bound_to 17478
  -30.2159   32.8820   10.3568 H   0  0  0  0  0  0  0  0  0  0  0  0  # atno 20622 bound_to 20550
  -29.4671   32.0701    8.4347 LP  0  0  0  0  0  0  0  0  0  0  0  0  # atno 20694 bound_to 2606
  -30.8395   33.1230    8.5237 LP  0  0  0  0  0  0  0  0  0  0  0  0  # atno 20695 bound_to 2606
  -19.2387   26.1928   10.3484 LP  0  0  0  0  0  0  0  0  0  0  0  0  # atno 20696 bound_to 5966
  -19.8192   29.0985    8.2033 LP  0  0  0  0  0  0  0  0  0  0  0  0  # atno 20697 bound_to 5969
  -18.4282   29.3655    7.2064 LP  0  0  0  0  0  0  0  0  0  0  0  0  # atno 20698 bound_to 5969
  -17.1761   29.3693    9.0730 LP  0  0  0  0  0  0  0  0  0  0  0  0  # atno 20699 bound_to 6130
  -22.3266   33.1479    7.9440 LP  0  0  0  0  0  0  0  0  0  0  0  0  # atno 20700 bound_to 12099
  -22.3361   34.1154    9.2595 LP  0  0  0  0  0  0  0  0  0  0  0  0  # atno 20701 bound_to 12099
  -18.3559   35.8683    4.7461 LP  0  0  0  0  0  0  0  0  0  0  0  0  # atno 20702 bound_to 12244
  -18.6046   33.5888    7.3980 LP  0  0  0  0  0  0  0  0  0  0  0  0  # atno 20703 bound_to 12247
  -17.2584   32.5386    7.1065 LP  0  0  0  0  0  0  0  0  0  0  0  0  # atno 20704 bound_to 12247
  -18.3150   32.1177    5.0335 LP  0  0  0  0  0  0  0  0  0  0  0  0  # atno 20705 bound_to 12384
  -20.1343   29.9782    3.3024 LP  0  0  0  0  0  0  0  0  0  0  0  0  # atno 20706 bound_to 12387
  -21.7466   30.4499    3.7238 LP  0  0  0  0  0  0  0  0  0  0  0  0  # atno 20707 bound_to 12387
  -20.2976   29.6863    5.3328 LP  0  0  0  0  0  0  0  0  0  0  0  0  # atno 20708 bound_to 12440
  -20.1688   27.4572    7.5898 LP  0  0  0  0  0  0  0  0  0  0  0  0  # atno 20709 bound_to 12443
  -20.3032   25.7359    7.7279 LP  0  0  0  0  0  0  0  0  0  0  0  0  # atno 20710 bound_to 12443
  -20.9531   25.9762    5.6410 LP  0  0  0  0  0  0  0  0  0  0  0  0  # atno 20711 bound_to 12505
  -28.5083   34.7173   11.9313 LP  0  0  0  0  0  0  0  0  0  0  0  0  # atno 20712 bound_to 2603
  -26.0708   32.6061   13.4497 LP  0  0  0  0  0  0  0  0  0  0  0  0  # atno 20713 bound_to 20017
  -27.7130   32.8122   13.9604 LP  0  0  0  0  0  0  0  0  0  0  0  0  # atno 20714 bound_to 20017
  -28.9302   35.5390   10.1404 LP  0  0  0  0  0  0  0  0  0  0  0  0  # atno 20715 bound_to 20461
  -30.2729   35.9960   11.1347 LP  0  0  0  0  0  0  0  0  0  0  0  0  # atno 20716 bound_to 20461
  -30.6967   32.6802   12.0270 LP  0  0  0  0  0  0  0  0  0  0  0  0  # atno 20717 bound_to 20550
  -21.9460   23.4007    4.0725 LP  0  0  0  0  0  0  0  0  0  0  0  0  # atno 20718 bound_to 12508
  -20.3942   22.6334    4.0163 LP  0  0  0  0  0  0  0  0  0  0  0  0  # atno 20719 bound_to 12508
  -32.7570   26.6540    4.9749 LP  0  0  0  0  0  0  0  0  0  0  0  0  # atno 20720 bound_to 17198

> <Gold.Score>
     Fitness  S(hb_ext) S(vdw_ext)  S(hb_int)    S(int)      intcor
     24.09       0.00      18.28       0.00      -1.05      -0.76

> <Gold.Goldscore.Fitness>
24.0863

> <Gold.Goldscore.Internal.Vdw>
-1.2812

> <Gold.Goldscore.Internal.Torsion>
-0.5306

> <Gold.Goldscore.External.Vdw>
18.2835

> <Gold.Goldscore.Internal.HBond>
0.0000

> <Gold.Goldscore.External.HBond>
0.0000

> <Gold.Goldscore.Internal.Correction>
-0.7584

> <Gold.Goldscore.Internal.Vdw.Weighted>
-1.2812

> <Gold.Goldscore.Internal.Torsion.Weighted>
-0.5306

> <Gold.Goldscore.External.Vdw.Weighted>
25.1398

> <Gold.Goldscore.Internal.HBond.Weighted>
0.0000

> <Gold.Goldscore.External.HBond.Weighted>
0.0000

> <Gold.Goldscore.Internal.Correction.Weighted>
-0.7584

> <Gold.Rescore>
     Score     S(PLP)   S(hbond)     S(cho)   S(metal)  DE(clash)   DE(tors)     intcor
     17.23     -18.87       0.00       0.00       0.00       0.02       0.81       ----

> <Gold.PLP.Fitness>
17.2321

> <Gold.PLP.PLP>
-18.8704

> <Gold.PLP.part.hbond>
-1.0000

> <Gold.PLP.part.metal>
0.0000

> <Gold.PLP.part.buried>
-1.8859

> <Gold.PLP.part.nonpolar>
-16.5870

> <Gold.PLP.part.repulsive>
0.1193

> <Gold.PLP.ligand.clash>
0.0197

> <Gold.PLP.ligand.torsion>
0.8093

> <Gold.PLP.Chemscore.Hbond>
0.0000

> <Gold.PLP.Chemscore.CHOScore>
0.0000

> <Gold.PLP.Chemscore.Metal>
0.0000

> <Gold.PLP.Chemscore.Internal.Correction>
   9.000000E+99

