#       Name:                CT1002167954
#       Creating user name   hitesit
#       Creation time:       Sun Apr 16 02:24:07 2023


#       File generated by GOLD software.
#

@<TRIPOS>MOLECULE
CT1002167954|ligand_prepared|mol2|1|dock4
    29    30     1
SMALL
NO_CHARGES


@<TRIPOS>ATOM
      1 C1         -25.0755  28.0959   3.2580 C.3            1 RES1               0.0000
      2 C2         -24.6394  29.1766   4.2683 C.ar           1 RES1               0.0000
      3 C3         -24.0185  26.9974   3.3227 C.2            1 RES1               0.0000
      4 C4         -26.4673  27.6462   3.6885 C.2            1 RES1               0.0000
      5 C5         -25.1672  28.6040   1.8003 C.3            1 RES1               0.0000
      6 C6         -24.5131  30.5053   3.8743 C.ar           1 RES1               0.0000
      7 C7         -24.3630  28.8611   5.5960 C.ar           1 RES1               0.0000
      8 N8         -24.3549  25.8328   3.9477 N.am           1 RES1               0.0000
      9 O9         -22.8939  27.1650   2.8672 O.2            1 RES1               0.0000
     10 N10        -26.6182  26.3571   4.1281 N.am           1 RES1               0.0000
     11 O11        -27.4313  28.4015   3.6668 O.2            1 RES1               0.0000
     12 C12        -25.5032  27.5166   0.7919 C.3            1 RES1               0.0000
     13 C13        -24.1274  31.4837   4.7755 C.ar           1 RES1               0.0000
     14 C14        -23.9772  29.8411   6.4956 C.ar           1 RES1               0.0000
     15 C15        -25.6192  25.4393   4.3062 C.2            1 RES1               0.0000
     16 C16        -23.8596  31.1524   6.0867 C.ar           1 RES1               0.0000
     17 O17        -25.8259  24.3166   4.7578 O.2            1 RES1               0.0000
     18 H18        -25.9355  29.3852   1.7463 H              1 RES1               0.0000
     19 H19        -24.2076  29.0578   1.5235 H              1 RES1               0.0000
     20 H20        -24.7172  30.7845   2.8460 H              1 RES1               0.0000
     21 H21        -24.4478  27.8358   5.9397 H              1 RES1               0.0000
     22 H22        -23.5964  25.1957   4.1691 H              1 RES1               0.0000
     23 H23        -27.5628  26.0536   4.3422 H              1 RES1               0.0000
     24 H24        -25.5553  27.9266  -0.2145 H              1 RES1               0.0000
     25 H25        -24.7463  26.7352   0.8007 H              1 RES1               0.0000
     26 H26        -26.4639  27.0606   1.0223 H              1 RES1               0.0000
     27 H27        -24.0350  32.5141   4.4484 H              1 RES1               0.0000
     28 H28        -23.7668  29.5757   7.5264 H              1 RES1               0.0000
     29 H29        -23.5578  31.9192   6.7926 H              1 RES1               0.0000
@<TRIPOS>BOND
    1    1    2 1     
    2    1    3 1     
    3    1    4 1     
    4    1    5 1     
    5    2    6 ar    
    6    2    7 ar    
    7    3    8 1     
    8    3    9 2     
    9    4   10 1     
   10    4   11 2     
   11    5   12 1     
   12    5   18 1     
   13    5   19 1     
   14    6   13 ar    
   15    6   20 1     
   16    7   14 ar    
   17    7   21 1     
   18    8   15 1     
   19    8   22 1     
   20   10   15 1     
   21   10   23 1     
   22   12   24 1     
   23   12   25 1     
   24   12   26 1     
   25   13   16 ar    
   26   13   27 1     
   27   14   16 ar    
   28   14   28 1     
   29   15   17 2     
   30   16   29 1     
@<TRIPOS>SUBSTRUCTURE
      1 RES1           1
@<TRIPOS>SET
DONOR_HYDROGENS      STATIC     ATOMS    <user>   **** ""
2 22 23
ATOM$RED        STATIC     ATOMS    COLORGROUP SYSTEM
2 22 23
@<TRIPOS>COMMENT
> <Gold.Version>
2022.3.0

> <Gold.Id.Protein>
unknown|7ta6_clean|pdb

> <Gold.Protein.RotatedTorsions>
[ 6033 5966 5967 5968 ] final   78.66 input   72.04 | X-H torsion
[ 6208 6130 6131 6132 ] final -163.96 input   28.46 | X-H torsion
[ 12156 12099 12098 12096 ] final   96.33 input   60.01 | X-H torsion
[ 12284 12244 12245 12246 ] final   89.28 input   50.53 | X-H torsion
[ 12404 12384 12385 12386 ] final    7.45 input   25.82 | X-H torsion
[ 12460 12440 12441 12442 ] final  -72.85 input   -3.82 | X-H torsion
[ 12540 12505 12506 12507 ] final  -58.84 input   74.25 | X-H torsion
[ 2786 2603 2604 2605 ] final -172.93 input  117.54 | X-H torsion
[ 20622 20550 20554 20551 ] final   97.60 input   82.88 | X-H torsion
[ 17287 17198 17202 17199 ] final  -88.29 input   60.02 | X-H torsion
[ 6320 6280 6281 6282 ] final   -1.09 input   19.24 | X-H torsion
[ 17411 17334 17335 17336 ] final  112.84 input   65.80 | X-H torsion
[ 17508 17478 17479 17480 ] final  138.62 input  127.72 | X-H torsion
[ 20694 2606 2605 2604 ] final  -64.44 input   -0.00 | X-H torsion
[ 20697 5969 5968 5967 ] final  -41.52 input    0.00 | X-H torsion
[ 20703 12247 12246 12245 ] final -152.79 input    0.00 | X-H torsion
[ 20706 12387 12386 12385 ] final   20.52 input   -0.00 | X-H torsion
[ 20709 12443 12442 12441 ] final  -82.50 input    0.00 | X-H torsion
[ 20713 20017 20016 20015 ] final  -64.12 input   -0.00 | X-H torsion
[ 20715 20461 20460 20459 ] final   74.99 input   -0.00 | X-H torsion
[ 20718 12508 12507 12506 ] final   21.78 input   -0.00 | X-H torsion

> <Gold.Protein.ActiveResidues>
 TRP28   LEU57   ILE58   TYR59   SER60   LEU94   TYR119  LEU120  GLY121  GLY122 
 VAL123  PHE124  XCP1    LEU2    GLY3    TRP4    ILE6    ILE24   LEU25   CYS27  
 XCP29  

> <Gold.Protein.RotatedAtoms>
  -27.5991   33.9717   12.3890 H   0  0  0  0  0  0  0  0  0  0  0  0  # atno 2786 bound_to 2603
  -19.4184   26.5089    8.7976 H   0  0  0  0  0  0  0  0  0  0  0  0  # atno 6033 bound_to 5966
  -18.1007   29.3006    9.3597 H   0  0  0  0  0  0  0  0  0  0  0  0  # atno 6208 bound_to 6130
  -17.2257   33.6541    8.3448 H   0  0  0  0  0  0  0  0  0  0  0  0  # atno 6320 bound_to 6280
  -22.6994   33.9631    8.7801 H   0  0  0  0  0  0  0  0  0  0  0  0  # atno 12156 bound_to 12099
  -16.8839   35.5226    5.6254 H   0  0  0  0  0  0  0  0  0  0  0  0  # atno 12284 bound_to 12244
  -19.3230   32.0070    4.1064 H   0  0  0  0  0  0  0  0  0  0  0  0  # atno 12404 bound_to 12384
  -21.2434   29.3942    6.5731 H   0  0  0  0  0  0  0  0  0  0  0  0  # atno 12460 bound_to 12440
  -20.9129   25.9229    5.6121 H   0  0  0  0  0  0  0  0  0  0  0  0  # atno 12540 bound_to 12505
  -32.6315   25.3673    5.2942 H   0  0  0  0  0  0  0  0  0  0  0  0  # atno 17287 bound_to 17198
  -32.4466   26.8804    4.6424 H   0  0  0  0  0  0  0  0  0  0  0  0  # atno 17288 bound_to 17198
  -25.9275   38.9568    7.0526 H   0  0  0  0  0  0  0  0  0  0  0  0  # atno 17411 bound_to 17334
  -23.4124   39.1190    7.8144 H   0  0  0  0  0  0  0  0  0  0  0  0  # atno 17508 bound_to 17478
  -30.7062   32.5955   12.0374 H   0  0  0  0  0  0  0  0  0  0  0  0  # atno 20622 bound_to 20550
  -29.8470   33.3990    8.3681 LP  0  0  0  0  0  0  0  0  0  0  0  0  # atno 20694 bound_to 2606
  -30.4597   31.7942    8.5903 LP  0  0  0  0  0  0  0  0  0  0  0  0  # atno 20695 bound_to 2606
  -19.5864   26.7944   10.5176 LP  0  0  0  0  0  0  0  0  0  0  0  0  # atno 20696 bound_to 5966
  -18.7570   28.5431    7.3295 LP  0  0  0  0  0  0  0  0  0  0  0  0  # atno 20697 bound_to 5969
  -19.4904   29.9209    8.0803 LP  0  0  0  0  0  0  0  0  0  0  0  0  # atno 20698 bound_to 5969
  -16.7855   29.8418   10.3731 LP  0  0  0  0  0  0  0  0  0  0  0  0  # atno 20699 bound_to 6130
  -21.2266   33.5947    9.3665 LP  0  0  0  0  0  0  0  0  0  0  0  0  # atno 20700 bound_to 12099
  -21.7649   32.8843    7.9982 LP  0  0  0  0  0  0  0  0  0  0  0  0  # atno 20701 bound_to 12099
  -18.4017   35.8445    4.8132 LP  0  0  0  0  0  0  0  0  0  0  0  0  # atno 20702 bound_to 12244
  -18.1857   32.2433    7.3636 LP  0  0  0  0  0  0  0  0  0  0  0  0  # atno 20703 bound_to 12247
  -17.6774   33.8841    7.1409 LP  0  0  0  0  0  0  0  0  0  0  0  0  # atno 20704 bound_to 12247
  -18.8121   32.9435    5.4919 LP  0  0  0  0  0  0  0  0  0  0  0  0  # atno 20705 bound_to 12384
  -20.4441   30.9215    3.4573 LP  0  0  0  0  0  0  0  0  0  0  0  0  # atno 20706 bound_to 12387
  -21.4368   29.5066    3.5689 LP  0  0  0  0  0  0  0  0  0  0  0  0  # atno 20707 bound_to 12387
  -19.7689   29.3049    5.6421 LP  0  0  0  0  0  0  0  0  0  0  0  0  # atno 20708 bound_to 12440
  -19.5078   26.3994    7.2335 LP  0  0  0  0  0  0  0  0  0  0  0  0  # atno 20709 bound_to 12443
  -20.9642   26.7937    8.0841 LP  0  0  0  0  0  0  0  0  0  0  0  0  # atno 20710 bound_to 12443
  -22.6528   25.9076    5.4080 LP  0  0  0  0  0  0  0  0  0  0  0  0  # atno 20711 bound_to 12505
  -29.3486   34.0218   12.4159 LP  0  0  0  0  0  0  0  0  0  0  0  0  # atno 20712 bound_to 2603
  -27.2855   33.3882   14.0709 LP  0  0  0  0  0  0  0  0  0  0  0  0  # atno 20713 bound_to 20017
  -26.4983   32.0300   13.3391 LP  0  0  0  0  0  0  0  0  0  0  0  0  # atno 20714 bound_to 20017
  -28.8563   36.1714   10.4602 LP  0  0  0  0  0  0  0  0  0  0  0  0  # atno 20715 bound_to 20461
  -30.3468   35.3636   10.8149 LP  0  0  0  0  0  0  0  0  0  0  0  0  # atno 20716 bound_to 20461
  -30.2208   32.9582   10.3960 LP  0  0  0  0  0  0  0  0  0  0  0  0  # atno 20717 bound_to 20550
  -21.5135   23.8098    3.9851 LP  0  0  0  0  0  0  0  0  0  0  0  0  # atno 20718 bound_to 12508
  -20.8266   22.2242    4.1037 LP  0  0  0  0  0  0  0  0  0  0  0  0  # atno 20719 bound_to 12508
  -31.4184   25.6663    4.2229 LP  0  0  0  0  0  0  0  0  0  0  0  0  # atno 20720 bound_to 17198

> <Gold.Score>
     Fitness  S(hb_ext) S(vdw_ext)  S(hb_int)    S(int)      intcor
     26.70       0.61      19.54       0.00      -0.78      -0.76

> <Gold.Goldscore.Fitness>
26.7007

> <Gold.Goldscore.Internal.Vdw>
-1.1412

> <Gold.Goldscore.Internal.Torsion>
-0.3952

> <Gold.Goldscore.External.Vdw>
19.5435

> <Gold.Goldscore.Internal.HBond>
0.0000

> <Gold.Goldscore.External.HBond>
0.6064

> <Gold.Goldscore.Internal.Correction>
-0.7584

> <Gold.Goldscore.Hbonds>
donor molecule, donor type, donor heavy atom, donor atom, acceptor molecule, acceptor atom, score
      P1  H 17606 17644       L1    17  0.17
      L1  H     8    22       P1 12508  0.13

> <Gold.Goldscore.Internal.Vdw.Weighted>
-1.1412

> <Gold.Goldscore.Internal.Torsion.Weighted>
-0.3952

> <Gold.Goldscore.External.Vdw.Weighted>
26.8723

> <Gold.Goldscore.Internal.HBond.Weighted>
0.0000

> <Gold.Goldscore.External.HBond.Weighted>
0.6064

> <Gold.Goldscore.Internal.Correction.Weighted>
-0.7584

> <Gold.Rescore>
     Score     S(PLP)   S(hbond)     S(cho)   S(metal)  DE(clash)   DE(tors)     intcor
     28.24     -25.70       1.00       0.00       0.00       0.00       0.23       ----

> <Gold.PLP.Fitness>
28.2355

> <Gold.PLP.PLP>
-25.7040

> <Gold.PLP.part.hbond>
-1.0140

> <Gold.PLP.part.metal>
0.0000

> <Gold.PLP.part.buried>
-2.7288

> <Gold.PLP.part.nonpolar>
-22.9887

> <Gold.PLP.part.repulsive>
0.1045

> <Gold.PLP.ligand.clash>
0.0000

> <Gold.PLP.ligand.torsion>
0.2343

> <Gold.PLP.Chemscore.Hbond>
1.0000

> <Gold.PLP.Chemscore.CHOScore>
0.0000

> <Gold.PLP.Chemscore.Metal>
0.0000

> <Gold.Chemscore.Hbonds>
donor molecule, donor type, donor heavy atom, donor atom, acceptor molecule, acceptor atom, score
      L1  H     8    22       P1 12505  0.14
      P1  H 17606 17644       L1    17  0.39

> <Gold.PLP.Chemscore.Internal.Correction>
   9.000000E+99

