#       Name:                GA Fitting Points
#       Creating user name   hitesit
#       Creation time:       Sun Apr 16 02:25:07 2023


#       Fitting Points Used by GA Software.
#

@<TRIPOS>MOLECULE
GA Fitting Points
  2792    0    0
SMALL
NO_CHARGES


@<TRIPOS>ATOM
      1 ****       103.0000 234.7500 353.2500 Du        
      2 ****       103.0000 234.7500 353.5000 Du        
      3 ****       103.0000 234.7500 353.7500 Du        
      4 ****       103.0000 235.0000 353.2500 Du        
      5 ****       103.0000 235.0000 353.5000 Du        
      6 ****       103.0000 235.0000 353.7500 Du        
      7 ****       103.0000 235.0000 354.0000 Du        
      8 ****       103.0000 235.2500 353.2500 Du        
      9 ****       103.0000 235.2500 353.5000 Du        
     10 ****       103.0000 235.2500 353.7500 Du        
     11 ****       103.0000 235.2500 354.0000 Du        
     12 ****       103.0000 235.2500 354.2500 Du        
     13 ****       103.2500 234.7500 353.2500 Du        
     14 ****       103.2500 234.7500 353.5000 Du        
     15 ****       103.2500 234.7500 353.7500 Du        
     16 ****       103.2500 235.0000 353.2500 Du        
     17 ****       103.2500 235.0000 353.5000 Du        
     18 ****       103.2500 235.0000 353.7500 Du        
     19 ****       103.2500 235.0000 354.0000 Du        
     20 ****       103.2500 235.2500 353.2500 Du        
     21 ****       103.2500 235.2500 353.5000 Du        
     22 ****       103.2500 235.2500 353.7500 Du        
     23 ****       103.2500 235.2500 354.0000 Du        
     24 ****       103.2500 235.2500 354.2500 Du        
     25 ****       103.2500 235.5000 353.2500 Du        
     26 ****       103.2500 235.5000 353.5000 Du        
     27 ****       103.2500 235.5000 353.7500 Du        
     28 ****       103.2500 235.5000 354.0000 Du        
     29 ****       103.2500 235.5000 354.2500 Du        
     30 ****       103.2500 235.5000 354.5000 Du        
     31 ****       103.2500 235.7500 353.2500 Du        
     32 ****       103.2500 235.7500 353.5000 Du        
     33 ****       103.2500 235.7500 353.7500 Du        
     34 ****       103.2500 235.7500 354.0000 Du        
     35 ****       103.2500 235.7500 354.2500 Du        
     36 ****       103.2500 235.7500 354.5000 Du        
     37 ****       103.2500 235.7500 354.7500 Du        
     38 ****       103.5000 234.5000 353.2500 Du        
     39 ****       103.5000 234.7500 353.2500 Du        
     40 ****       103.5000 234.7500 353.5000 Du        
     41 ****       103.5000 234.7500 353.7500 Du        
     42 ****       103.5000 235.0000 353.2500 Du        
     43 ****       103.5000 235.0000 353.5000 Du        
     44 ****       103.5000 235.0000 353.7500 Du        
     45 ****       103.5000 235.2500 353.2500 Du        
     46 ****       103.5000 235.2500 353.5000 Du        
     47 ****       103.5000 235.2500 353.7500 Du        
     48 ****       103.5000 235.2500 354.0000 Du        
     49 ****       103.5000 235.5000 353.2500 Du        
     50 ****       103.5000 235.5000 353.5000 Du        
     51 ****       103.5000 235.5000 353.7500 Du        
     52 ****       103.5000 235.5000 354.0000 Du        
     53 ****       103.5000 235.5000 354.2500 Du        
     54 ****       103.5000 235.7500 353.2500 Du        
     55 ****       103.5000 235.7500 353.5000 Du        
     56 ****       103.5000 235.7500 353.7500 Du        
     57 ****       103.5000 235.7500 354.0000 Du        
     58 ****       103.5000 235.7500 354.2500 Du        
     59 ****       103.5000 235.7500 354.5000 Du        
     60 ****       103.7500 234.7500 353.2500 Du        
     61 ****       103.7500 234.7500 353.5000 Du        
     62 ****       103.7500 235.0000 353.2500 Du        
     63 ****       103.7500 235.0000 353.5000 Du        
     64 ****       103.7500 235.2500 353.2500 Du        
     65 ****       103.7500 235.2500 353.5000 Du        
     66 ****       103.7500 235.5000 353.2500 Du        
     67 ****       103.7500 235.5000 353.5000 Du        
     68 ****       103.7500 235.5000 353.7500 Du        
     69 ****       103.7500 235.7500 353.2500 Du        
     70 ****       103.7500 235.7500 353.5000 Du        
     71 ****       103.7500 235.7500 353.7500 Du        
     72 ****       103.7500 235.7500 354.0000 Du        
     73 ****       103.7500 236.0000 353.2500 Du        
     74 ****       103.7500 236.0000 353.5000 Du        
     75 ****       103.7500 236.0000 353.7500 Du        
     76 ****       103.7500 236.0000 354.0000 Du        
     77 ****       103.7500 236.2500 353.2500 Du        
     78 ****       103.7500 236.2500 353.5000 Du        
     79 ****       103.7500 236.2500 353.7500 Du        
     80 ****       104.0000 236.0000 353.2500 Du        
     81 ****       104.0000 236.0000 353.5000 Du        
     82 ****       104.5000 233.0000 352.2500 Du        
     83 ****       104.5000 233.2500 352.5000 Du        
     84 ****       104.7500 232.5000 351.7500 Du        
     85 ****       104.7500 232.5000 352.0000 Du        
     86 ****       104.7500 232.5000 352.2500 Du        
     87 ****       104.7500 232.7500 351.5000 Du        
     88 ****       104.7500 232.7500 351.7500 Du        
     89 ****       104.7500 232.7500 352.0000 Du        
     90 ****       104.7500 232.7500 352.2500 Du        
     91 ****       104.7500 233.0000 351.5000 Du        
     92 ****       104.7500 233.0000 351.7500 Du        
     93 ****       104.7500 233.0000 352.0000 Du        
     94 ****       104.7500 233.0000 352.2500 Du        
     95 ****       104.7500 233.0000 352.5000 Du        
     96 ****       104.7500 233.2500 351.7500 Du        
     97 ****       104.7500 233.2500 352.0000 Du        
     98 ****       104.7500 233.2500 352.2500 Du        
     99 ****       104.7500 233.2500 352.5000 Du        
    100 ****       105.0000 232.5000 351.7500 Du        
    101 ****       105.0000 232.5000 352.0000 Du        
    102 ****       105.0000 232.5000 352.2500 Du        
    103 ****       105.0000 232.7500 351.5000 Du        
    104 ****       105.0000 232.7500 351.7500 Du        
    105 ****       105.0000 232.7500 352.0000 Du        
    106 ****       105.0000 232.7500 352.2500 Du        
    107 ****       105.0000 232.7500 352.5000 Du        
    108 ****       105.0000 233.0000 351.2500 Du        
    109 ****       105.0000 233.0000 351.5000 Du        
    110 ****       105.0000 233.0000 351.7500 Du        
    111 ****       105.0000 233.0000 352.0000 Du        
    112 ****       105.0000 233.0000 352.2500 Du        
    113 ****       105.0000 233.0000 352.5000 Du        
    114 ****       105.0000 233.2500 351.5000 Du        
    115 ****       105.0000 233.2500 351.7500 Du        
    116 ****       105.0000 233.2500 352.0000 Du        
    117 ****       105.0000 233.2500 352.2500 Du        
    118 ****       105.2500 227.2500 348.2500 Du        
    119 ****       105.2500 227.5000 348.2500 Du        
    120 ****       105.2500 227.7500 348.2500 Du        
    121 ****       105.2500 227.7500 348.5000 Du        
    122 ****       105.2500 227.7500 348.7500 Du        
    123 ****       105.2500 228.0000 347.7500 Du        
    124 ****       105.2500 228.0000 348.0000 Du        
    125 ****       105.2500 228.0000 348.2500 Du        
    126 ****       105.2500 232.5000 352.0000 Du        
    127 ****       105.2500 232.5000 352.2500 Du        
    128 ****       105.2500 232.7500 351.7500 Du        
    129 ****       105.2500 232.7500 352.0000 Du        
    130 ****       105.2500 232.7500 352.2500 Du        
    131 ****       105.2500 233.0000 351.5000 Du        
    132 ****       105.2500 233.0000 351.7500 Du        
    133 ****       105.2500 233.0000 352.0000 Du        
    134 ****       105.2500 233.0000 352.2500 Du        
    135 ****       105.2500 233.2500 351.7500 Du        
    136 ****       105.5000 227.2500 348.2500 Du        
    137 ****       105.5000 227.5000 348.2500 Du        
    138 ****       105.5000 227.5000 348.5000 Du        
    139 ****       105.5000 227.5000 348.7500 Du        
    140 ****       105.5000 227.7500 348.2500 Du        
    141 ****       105.5000 227.7500 348.5000 Du        
    142 ****       105.5000 227.7500 348.7500 Du        
    143 ****       105.5000 228.0000 347.7500 Du        
    144 ****       105.5000 228.0000 348.0000 Du        
    145 ****       105.5000 228.0000 348.2500 Du        
    146 ****       105.5000 228.0000 348.5000 Du        
    147 ****       105.5000 228.0000 348.7500 Du        
    148 ****       105.5000 228.2500 347.7500 Du        
    149 ****       105.5000 228.2500 348.0000 Du        
    150 ****       105.5000 228.2500 348.2500 Du        
    151 ****       105.5000 232.7500 352.0000 Du        
    152 ****       105.5000 233.0000 351.7500 Du        
    153 ****       105.5000 233.7500 347.7500 Du        
    154 ****       105.5000 233.7500 348.0000 Du        
    155 ****       105.5000 234.0000 348.2500 Du        
    156 ****       105.5000 234.2500 348.2500 Du        
    157 ****       105.5000 234.5000 348.2500 Du        
    158 ****       105.7500 227.5000 347.7500 Du        
    159 ****       105.7500 227.5000 348.0000 Du        
    160 ****       105.7500 227.5000 348.2500 Du        
    161 ****       105.7500 227.5000 348.5000 Du        
    162 ****       105.7500 227.5000 348.7500 Du        
    163 ****       105.7500 227.7500 347.7500 Du        
    164 ****       105.7500 227.7500 348.0000 Du        
    165 ****       105.7500 227.7500 348.2500 Du        
    166 ****       105.7500 227.7500 348.5000 Du        
    167 ****       105.7500 227.7500 348.7500 Du        
    168 ****       105.7500 228.0000 347.7500 Du        
    169 ****       105.7500 228.0000 348.0000 Du        
    170 ****       105.7500 228.0000 348.2500 Du        
    171 ****       105.7500 228.0000 348.5000 Du        
    172 ****       105.7500 228.0000 348.7500 Du        
    173 ****       105.7500 228.2500 347.7500 Du        
    174 ****       105.7500 228.2500 348.0000 Du        
    175 ****       105.7500 228.2500 348.2500 Du        
    176 ****       105.7500 228.5000 347.2500 Du        
    177 ****       105.7500 228.5000 347.5000 Du        
    178 ****       105.7500 233.7500 347.7500 Du        
    179 ****       105.7500 233.7500 348.0000 Du        
    180 ****       105.7500 233.7500 348.2500 Du        
    181 ****       105.7500 234.0000 347.7500 Du        
    182 ****       105.7500 234.0000 348.0000 Du        
    183 ****       105.7500 234.0000 348.2500 Du        
    184 ****       105.7500 234.0000 348.5000 Du        
    185 ****       105.7500 234.0000 348.7500 Du        
    186 ****       105.7500 234.2500 347.7500 Du        
    187 ****       105.7500 234.2500 348.0000 Du        
    188 ****       105.7500 234.2500 348.2500 Du        
    189 ****       105.7500 234.2500 348.5000 Du        
    190 ****       105.7500 234.2500 348.7500 Du        
    191 ****       105.7500 234.5000 347.7500 Du        
    192 ****       105.7500 234.5000 348.0000 Du        
    193 ****       105.7500 234.5000 348.2500 Du        
    194 ****       105.7500 234.5000 348.5000 Du        
    195 ****       105.7500 234.7500 347.7500 Du        
    196 ****       105.7500 234.7500 348.0000 Du        
    197 ****       105.7500 234.7500 348.2500 Du        
    198 ****       106.0000 227.5000 348.2500 Du        
    199 ****       106.0000 227.5000 348.5000 Du        
    200 ****       106.0000 227.7500 348.0000 Du        
    201 ****       106.0000 227.7500 348.2500 Du        
    202 ****       106.0000 227.7500 348.5000 Du        
    203 ****       106.0000 227.7500 348.7500 Du        
    204 ****       106.0000 228.0000 347.7500 Du        
    205 ****       106.0000 228.0000 348.0000 Du        
    206 ****       106.0000 228.0000 348.2500 Du        
    207 ****       106.0000 228.0000 348.5000 Du        
    208 ****       106.0000 228.2500 347.7500 Du        
    209 ****       106.0000 228.2500 348.0000 Du        
    210 ****       106.0000 228.7500 354.2500 Du        
    211 ****       106.0000 229.0000 354.0000 Du        
    212 ****       106.0000 229.0000 354.2500 Du        
    213 ****       106.0000 229.2500 354.0000 Du        
    214 ****       106.0000 229.2500 354.2500 Du        
    215 ****       106.0000 229.5000 353.7500 Du        
    216 ****       106.0000 229.5000 354.0000 Du        
    217 ****       106.0000 229.5000 354.2500 Du        
    218 ****       106.0000 229.7500 353.7500 Du        
    219 ****       106.0000 229.7500 354.0000 Du        
    220 ****       106.0000 229.7500 354.2500 Du        
    221 ****       106.0000 230.0000 353.5000 Du        
    222 ****       106.0000 230.0000 353.7500 Du        
    223 ****       106.0000 230.0000 354.0000 Du        
    224 ****       106.0000 230.5000 353.7500 Du        
    225 ****       106.0000 230.5000 354.0000 Du        
    226 ****       106.0000 230.7500 353.5000 Du        
    227 ****       106.0000 230.7500 353.7500 Du        
    228 ****       106.0000 230.7500 354.0000 Du        
    229 ****       106.0000 231.0000 353.7500 Du        
    230 ****       106.0000 231.0000 354.0000 Du        
    231 ****       106.0000 233.7500 347.7500 Du        
    232 ****       106.0000 233.7500 348.0000 Du        
    233 ****       106.0000 234.0000 347.7500 Du        
    234 ****       106.0000 234.0000 348.0000 Du        
    235 ****       106.0000 234.0000 348.2500 Du        
    236 ****       106.0000 234.0000 348.5000 Du        
    237 ****       106.0000 234.0000 348.7500 Du        
    238 ****       106.0000 234.2500 347.7500 Du        
    239 ****       106.0000 234.2500 348.0000 Du        
    240 ****       106.0000 234.2500 348.2500 Du        
    241 ****       106.0000 234.2500 348.5000 Du        
    242 ****       106.0000 234.2500 348.7500 Du        
    243 ****       106.0000 234.2500 349.0000 Du        
    244 ****       106.0000 234.5000 347.7500 Du        
    245 ****       106.0000 234.5000 348.0000 Du        
    246 ****       106.0000 234.5000 348.2500 Du        
    247 ****       106.0000 234.5000 348.5000 Du        
    248 ****       106.0000 234.5000 348.7500 Du        
    249 ****       106.0000 234.5000 349.0000 Du        
    250 ****       106.0000 234.7500 347.7500 Du        
    251 ****       106.0000 234.7500 348.0000 Du        
    252 ****       106.0000 234.7500 348.2500 Du        
    253 ****       106.0000 234.7500 348.5000 Du        
    254 ****       106.0000 234.7500 348.7500 Du        
    255 ****       106.0000 235.0000 348.2500 Du        
    256 ****       106.0000 235.0000 348.5000 Du        
    257 ****       106.2500 229.0000 354.0000 Du        
    258 ****       106.2500 229.0000 354.2500 Du        
    259 ****       106.2500 229.0000 354.5000 Du        
    260 ****       106.2500 229.0000 354.7500 Du        
    261 ****       106.2500 229.2500 354.0000 Du        
    262 ****       106.2500 229.2500 354.2500 Du        
    263 ****       106.2500 229.2500 354.5000 Du        
    264 ****       106.2500 229.5000 354.0000 Du        
    265 ****       106.2500 229.5000 354.2500 Du        
    266 ****       106.2500 229.7500 353.7500 Du        
    267 ****       106.2500 229.7500 354.0000 Du        
    268 ****       106.2500 229.7500 354.2500 Du        
    269 ****       106.2500 230.0000 353.7500 Du        
    270 ****       106.2500 230.0000 354.0000 Du        
    271 ****       106.2500 230.0000 354.2500 Du        
    272 ****       106.2500 230.2500 354.0000 Du        
    273 ****       106.2500 230.2500 354.2500 Du        
    274 ****       106.2500 230.5000 353.7500 Du        
    275 ****       106.2500 230.5000 354.0000 Du        
    276 ****       106.2500 230.5000 354.2500 Du        
    277 ****       106.2500 230.7500 353.7500 Du        
    278 ****       106.2500 230.7500 354.0000 Du        
    279 ****       106.2500 230.7500 354.2500 Du        
    280 ****       106.2500 231.0000 354.0000 Du        
    281 ****       106.2500 231.0000 354.2500 Du        
    282 ****       106.2500 233.5000 347.2500 Du        
    283 ****       106.2500 233.5000 347.5000 Du        
    284 ****       106.2500 233.7500 347.2500 Du        
    285 ****       106.2500 233.7500 347.5000 Du        
    286 ****       106.2500 233.7500 347.7500 Du        
    287 ****       106.2500 234.0000 347.2500 Du        
    288 ****       106.2500 234.0000 347.5000 Du        
    289 ****       106.2500 234.0000 347.7500 Du        
    290 ****       106.2500 234.0000 348.0000 Du        
    291 ****       106.2500 234.0000 348.2500 Du        
    292 ****       106.2500 234.2500 347.2500 Du        
    293 ****       106.2500 234.2500 347.5000 Du        
    294 ****       106.2500 234.2500 347.7500 Du        
    295 ****       106.2500 234.2500 348.0000 Du        
    296 ****       106.2500 234.2500 348.2500 Du        
    297 ****       106.2500 234.2500 348.5000 Du        
    298 ****       106.2500 234.2500 348.7500 Du        
    299 ****       106.2500 234.2500 349.0000 Du        
    300 ****       106.2500 234.5000 347.7500 Du        
    301 ****       106.2500 234.5000 348.0000 Du        
    302 ****       106.2500 234.5000 348.2500 Du        
    303 ****       106.2500 234.5000 348.5000 Du        
    304 ****       106.2500 234.5000 348.7500 Du        
    305 ****       106.2500 234.5000 349.0000 Du        
    306 ****       106.2500 234.5000 349.2500 Du        
    307 ****       106.2500 234.7500 347.7500 Du        
    308 ****       106.2500 234.7500 348.0000 Du        
    309 ****       106.2500 234.7500 348.2500 Du        
    310 ****       106.2500 234.7500 348.5000 Du        
    311 ****       106.2500 234.7500 348.7500 Du        
    312 ****       106.2500 234.7500 349.0000 Du        
    313 ****       106.2500 235.0000 347.7500 Du        
    314 ****       106.2500 235.0000 348.0000 Du        
    315 ****       106.2500 235.0000 348.2500 Du        
    316 ****       106.2500 235.0000 348.5000 Du        
    317 ****       106.2500 235.0000 348.7500 Du        
    318 ****       106.2500 235.2500 347.7500 Du        
    319 ****       106.2500 235.2500 348.0000 Du        
    320 ****       106.2500 235.2500 348.2500 Du        
    321 ****       106.5000 228.7500 354.2500 Du        
    322 ****       106.5000 228.7500 354.5000 Du        
    323 ****       106.5000 228.7500 354.7500 Du        
    324 ****       106.5000 228.7500 355.0000 Du        
    325 ****       106.5000 229.0000 354.2500 Du        
    326 ****       106.5000 229.0000 354.5000 Du        
    327 ****       106.5000 229.0000 354.7500 Du        
    328 ****       106.5000 229.0000 355.0000 Du        
    329 ****       106.5000 229.0000 355.2500 Du        
    330 ****       106.5000 229.2500 354.0000 Du        
    331 ****       106.5000 229.2500 354.2500 Du        
    332 ****       106.5000 229.2500 354.5000 Du        
    333 ****       106.5000 229.2500 354.7500 Du        
    334 ****       106.5000 229.2500 355.0000 Du        
    335 ****       106.5000 229.2500 355.2500 Du        
    336 ****       106.5000 229.5000 354.0000 Du        
    337 ****       106.5000 229.5000 354.2500 Du        
    338 ****       106.5000 229.5000 354.5000 Du        
    339 ****       106.5000 229.5000 354.7500 Du        
    340 ****       106.5000 229.5000 355.0000 Du        
    341 ****       106.5000 229.5000 355.2500 Du        
    342 ****       106.5000 229.7500 353.7500 Du        
    343 ****       106.5000 229.7500 354.0000 Du        
    344 ****       106.5000 229.7500 354.2500 Du        
    345 ****       106.5000 229.7500 354.5000 Du        
    346 ****       106.5000 229.7500 354.7500 Du        
    347 ****       106.5000 229.7500 355.0000 Du        
    348 ****       106.5000 230.0000 353.7500 Du        
    349 ****       106.5000 230.0000 354.0000 Du        
    350 ****       106.5000 230.0000 354.2500 Du        
    351 ****       106.5000 230.0000 354.5000 Du        
    352 ****       106.5000 230.0000 354.7500 Du        
    353 ****       106.5000 230.0000 355.0000 Du        
    354 ****       106.5000 230.2500 353.7500 Du        
    355 ****       106.5000 230.2500 354.0000 Du        
    356 ****       106.5000 230.2500 354.2500 Du        
    357 ****       106.5000 230.2500 354.5000 Du        
    358 ****       106.5000 230.2500 354.7500 Du        
    359 ****       106.5000 230.2500 355.0000 Du        
    360 ****       106.5000 230.5000 353.7500 Du        
    361 ****       106.5000 230.5000 354.0000 Du        
    362 ****       106.5000 230.5000 354.2500 Du        
    363 ****       106.5000 230.5000 354.5000 Du        
    364 ****       106.5000 230.5000 354.7500 Du        
    365 ****       106.5000 230.5000 355.0000 Du        
    366 ****       106.5000 230.7500 353.7500 Du        
    367 ****       106.5000 230.7500 354.0000 Du        
    368 ****       106.5000 230.7500 354.2500 Du        
    369 ****       106.5000 230.7500 354.5000 Du        
    370 ****       106.5000 230.7500 354.7500 Du        
    371 ****       106.5000 230.7500 355.0000 Du        
    372 ****       106.5000 231.0000 354.0000 Du        
    373 ****       106.5000 231.0000 354.2500 Du        
    374 ****       106.5000 231.0000 354.5000 Du        
    375 ****       106.5000 231.0000 354.7500 Du        
    376 ****       106.5000 233.5000 347.2500 Du        
    377 ****       106.5000 233.7500 347.2500 Du        
    378 ****       106.5000 233.7500 347.5000 Du        
    379 ****       106.5000 234.0000 347.2500 Du        
    380 ****       106.5000 234.0000 347.5000 Du        
    381 ****       106.5000 234.0000 347.7500 Du        
    382 ****       106.5000 234.0000 348.0000 Du        
    383 ****       106.5000 234.2500 347.2500 Du        
    384 ****       106.5000 234.2500 347.5000 Du        
    385 ****       106.5000 234.2500 347.7500 Du        
    386 ****       106.5000 234.2500 348.0000 Du        
    387 ****       106.5000 234.2500 348.2500 Du        
    388 ****       106.5000 234.5000 347.7500 Du        
    389 ****       106.5000 234.5000 348.0000 Du        
    390 ****       106.5000 234.5000 348.2500 Du        
    391 ****       106.5000 234.5000 348.5000 Du        
    392 ****       106.5000 234.5000 348.7500 Du        
    393 ****       106.5000 234.7500 347.7500 Du        
    394 ****       106.5000 234.7500 348.0000 Du        
    395 ****       106.5000 234.7500 348.2500 Du        
    396 ****       106.5000 234.7500 348.5000 Du        
    397 ****       106.5000 235.0000 347.7500 Du        
    398 ****       106.5000 235.0000 348.0000 Du        
    399 ****       106.5000 235.0000 348.2500 Du        
    400 ****       106.5000 235.0000 348.5000 Du        
    401 ****       106.5000 235.2500 347.7500 Du        
    402 ****       106.5000 235.2500 348.0000 Du        
    403 ****       106.5000 235.2500 348.2500 Du        
    404 ****       106.7500 228.7500 354.5000 Du        
    405 ****       106.7500 228.7500 354.7500 Du        
    406 ****       106.7500 228.7500 355.0000 Du        
    407 ****       106.7500 228.7500 355.2500 Du        
    408 ****       106.7500 229.0000 354.2500 Du        
    409 ****       106.7500 229.0000 354.5000 Du        
    410 ****       106.7500 229.0000 354.7500 Du        
    411 ****       106.7500 229.0000 355.0000 Du        
    412 ****       106.7500 229.0000 355.2500 Du        
    413 ****       106.7500 229.2500 354.2500 Du        
    414 ****       106.7500 229.2500 354.5000 Du        
    415 ****       106.7500 229.2500 354.7500 Du        
    416 ****       106.7500 229.2500 355.0000 Du        
    417 ****       106.7500 229.2500 355.2500 Du        
    418 ****       106.7500 229.5000 354.0000 Du        
    419 ****       106.7500 229.5000 354.2500 Du        
    420 ****       106.7500 229.5000 354.5000 Du        
    421 ****       106.7500 229.5000 354.7500 Du        
    422 ****       106.7500 229.5000 355.0000 Du        
    423 ****       106.7500 229.5000 355.2500 Du        
    424 ****       106.7500 229.7500 354.0000 Du        
    425 ****       106.7500 229.7500 354.2500 Du        
    426 ****       106.7500 229.7500 354.5000 Du        
    427 ****       106.7500 229.7500 354.7500 Du        
    428 ****       106.7500 229.7500 355.0000 Du        
    429 ****       106.7500 229.7500 355.2500 Du        
    430 ****       106.7500 230.0000 354.0000 Du        
    431 ****       106.7500 230.0000 354.2500 Du        
    432 ****       106.7500 230.0000 354.5000 Du        
    433 ****       106.7500 230.0000 354.7500 Du        
    434 ****       106.7500 230.0000 355.0000 Du        
    435 ****       106.7500 230.0000 355.2500 Du        
    436 ****       106.7500 230.2500 353.7500 Du        
    437 ****       106.7500 230.2500 354.0000 Du        
    438 ****       106.7500 230.2500 354.2500 Du        
    439 ****       106.7500 230.2500 354.5000 Du        
    440 ****       106.7500 230.2500 354.7500 Du        
    441 ****       106.7500 230.2500 355.0000 Du        
    442 ****       106.7500 230.2500 355.2500 Du        
    443 ****       106.7500 230.5000 353.7500 Du        
    444 ****       106.7500 230.5000 354.0000 Du        
    445 ****       106.7500 230.5000 354.2500 Du        
    446 ****       106.7500 230.5000 354.5000 Du        
    447 ****       106.7500 230.5000 354.7500 Du        
    448 ****       106.7500 230.5000 355.0000 Du        
    449 ****       106.7500 230.5000 355.2500 Du        
    450 ****       106.7500 230.7500 354.0000 Du        
    451 ****       106.7500 230.7500 354.2500 Du        
    452 ****       106.7500 230.7500 354.5000 Du        
    453 ****       106.7500 230.7500 354.7500 Du        
    454 ****       106.7500 230.7500 355.0000 Du        
    455 ****       106.7500 230.7500 355.2500 Du        
    456 ****       106.7500 231.0000 354.2500 Du        
    457 ****       106.7500 231.0000 354.5000 Du        
    458 ****       106.7500 231.0000 354.7500 Du        
    459 ****       106.7500 231.0000 355.0000 Du        
    460 ****       106.7500 231.0000 355.2500 Du        
    461 ****       106.7500 233.7500 347.2500 Du        
    462 ****       106.7500 234.0000 347.2500 Du        
    463 ****       106.7500 234.2500 347.2500 Du        
    464 ****       106.7500 235.0000 347.7500 Du        
    465 ****       106.7500 235.2500 347.7500 Du        
    466 ****       106.7500 235.2500 348.0000 Du        
    467 ****       107.0000 228.7500 354.5000 Du        
    468 ****       107.0000 228.7500 354.7500 Du        
    469 ****       107.0000 228.7500 355.0000 Du        
    470 ****       107.0000 228.7500 355.2500 Du        
    471 ****       107.0000 229.0000 354.5000 Du        
    472 ****       107.0000 229.0000 354.7500 Du        
    473 ****       107.0000 229.0000 355.0000 Du        
    474 ****       107.0000 229.0000 355.2500 Du        
    475 ****       107.0000 229.2500 354.2500 Du        
    476 ****       107.0000 229.2500 354.5000 Du        
    477 ****       107.0000 229.2500 354.7500 Du        
    478 ****       107.0000 229.2500 355.0000 Du        
    479 ****       107.0000 229.2500 355.2500 Du        
    480 ****       107.0000 229.2500 355.5000 Du        
    481 ****       107.0000 229.5000 354.2500 Du        
    482 ****       107.0000 229.5000 354.5000 Du        
    483 ****       107.0000 229.5000 354.7500 Du        
    484 ****       107.0000 229.5000 355.0000 Du        
    485 ****       107.0000 229.5000 355.2500 Du        
    486 ****       107.0000 229.5000 355.5000 Du        
    487 ****       107.0000 229.5000 355.7500 Du        
    488 ****       107.0000 229.7500 354.0000 Du        
    489 ****       107.0000 229.7500 354.2500 Du        
    490 ****       107.0000 229.7500 354.5000 Du        
    491 ****       107.0000 229.7500 354.7500 Du        
    492 ****       107.0000 229.7500 355.0000 Du        
    493 ****       107.0000 229.7500 355.2500 Du        
    494 ****       107.0000 229.7500 355.5000 Du        
    495 ****       107.0000 229.7500 355.7500 Du        
    496 ****       107.0000 230.0000 354.0000 Du        
    497 ****       107.0000 230.0000 354.2500 Du        
    498 ****       107.0000 230.0000 354.5000 Du        
    499 ****       107.0000 230.0000 354.7500 Du        
    500 ****       107.0000 230.0000 355.0000 Du        
    501 ****       107.0000 230.0000 355.2500 Du        
    502 ****       107.0000 230.0000 355.5000 Du        
    503 ****       107.0000 230.2500 354.0000 Du        
    504 ****       107.0000 230.2500 354.2500 Du        
    505 ****       107.0000 230.2500 354.5000 Du        
    506 ****       107.0000 230.2500 354.7500 Du        
    507 ****       107.0000 230.2500 355.0000 Du        
    508 ****       107.0000 230.2500 355.2500 Du        
    509 ****       107.0000 230.5000 354.0000 Du        
    510 ****       107.0000 230.5000 354.2500 Du        
    511 ****       107.0000 230.5000 354.5000 Du        
    512 ****       107.0000 230.5000 354.7500 Du        
    513 ****       107.0000 230.5000 355.0000 Du        
    514 ****       107.0000 230.5000 355.2500 Du        
    515 ****       107.0000 230.7500 354.0000 Du        
    516 ****       107.0000 230.7500 354.2500 Du        
    517 ****       107.0000 230.7500 354.5000 Du        
    518 ****       107.0000 230.7500 354.7500 Du        
    519 ****       107.0000 230.7500 355.0000 Du        
    520 ****       107.0000 230.7500 355.2500 Du        
    521 ****       107.0000 231.0000 354.2500 Du        
    522 ****       107.0000 231.0000 354.5000 Du        
    523 ****       107.0000 231.0000 354.7500 Du        
    524 ****       107.0000 231.0000 355.0000 Du        
    525 ****       107.0000 231.0000 355.2500 Du        
    526 ****       107.0000 231.2500 355.0000 Du        
    527 ****       107.0000 231.2500 355.2500 Du        
    528 ****       107.2500 228.7500 354.7500 Du        
    529 ****       107.2500 228.7500 355.0000 Du        
    530 ****       107.2500 228.7500 355.2500 Du        
    531 ****       107.2500 229.0000 354.5000 Du        
    532 ****       107.2500 229.0000 354.7500 Du        
    533 ****       107.2500 229.0000 355.0000 Du        
    534 ****       107.2500 229.0000 355.2500 Du        
    535 ****       107.2500 229.0000 355.5000 Du        
    536 ****       107.2500 229.0000 355.7500 Du        
    537 ****       107.2500 229.2500 354.2500 Du        
    538 ****       107.2500 229.2500 354.5000 Du        
    539 ****       107.2500 229.2500 354.7500 Du        
    540 ****       107.2500 229.2500 355.0000 Du        
    541 ****       107.2500 229.2500 355.2500 Du        
    542 ****       107.2500 229.2500 355.5000 Du        
    543 ****       107.2500 229.2500 355.7500 Du        
    544 ****       107.2500 229.5000 354.2500 Du        
    545 ****       107.2500 229.5000 354.5000 Du        
    546 ****       107.2500 229.5000 354.7500 Du        
    547 ****       107.2500 229.5000 355.0000 Du        
    548 ****       107.2500 229.5000 355.2500 Du        
    549 ****       107.2500 229.5000 355.5000 Du        
    550 ****       107.2500 229.5000 355.7500 Du        
    551 ****       107.2500 229.7500 354.2500 Du        
    552 ****       107.2500 229.7500 354.5000 Du        
    553 ****       107.2500 229.7500 354.7500 Du        
    554 ****       107.2500 229.7500 355.0000 Du        
    555 ****       107.2500 229.7500 355.2500 Du        
    556 ****       107.2500 229.7500 355.5000 Du        
    557 ****       107.2500 229.7500 355.7500 Du        
    558 ****       107.2500 230.0000 354.0000 Du        
    559 ****       107.2500 230.0000 354.2500 Du        
    560 ****       107.2500 230.0000 354.5000 Du        
    561 ****       107.2500 230.0000 354.7500 Du        
    562 ****       107.2500 230.0000 355.0000 Du        
    563 ****       107.2500 230.0000 355.2500 Du        
    564 ****       107.2500 230.0000 355.5000 Du        
    565 ****       107.2500 230.0000 355.7500 Du        
    566 ****       107.2500 230.2500 354.0000 Du        
    567 ****       107.2500 230.2500 354.2500 Du        
    568 ****       107.2500 230.2500 354.5000 Du        
    569 ****       107.2500 230.2500 354.7500 Du        
    570 ****       107.2500 230.2500 355.0000 Du        
    571 ****       107.2500 230.2500 355.2500 Du        
    572 ****       107.2500 230.2500 355.5000 Du        
    573 ****       107.2500 230.2500 355.7500 Du        
    574 ****       107.2500 230.5000 354.2500 Du        
    575 ****       107.2500 230.5000 354.5000 Du        
    576 ****       107.2500 230.5000 354.7500 Du        
    577 ****       107.2500 230.5000 355.0000 Du        
    578 ****       107.2500 230.5000 355.2500 Du        
    579 ****       107.2500 230.7500 354.2500 Du        
    580 ****       107.2500 230.7500 354.5000 Du        
    581 ****       107.2500 230.7500 354.7500 Du        
    582 ****       107.2500 230.7500 355.0000 Du        
    583 ****       107.2500 230.7500 355.2500 Du        
    584 ****       107.2500 230.7500 355.5000 Du        
    585 ****       107.2500 231.0000 354.5000 Du        
    586 ****       107.2500 231.0000 354.7500 Du        
    587 ****       107.2500 231.0000 355.0000 Du        
    588 ****       107.2500 231.0000 355.2500 Du        
    589 ****       107.2500 231.2500 355.0000 Du        
    590 ****       107.2500 231.2500 355.2500 Du        
    591 ****       107.5000 228.7500 355.0000 Du        
    592 ****       107.5000 228.7500 355.2500 Du        
    593 ****       107.5000 229.0000 354.5000 Du        
    594 ****       107.5000 229.0000 354.7500 Du        
    595 ****       107.5000 229.0000 355.0000 Du        
    596 ****       107.5000 229.0000 355.2500 Du        
    597 ****       107.5000 229.0000 355.5000 Du        
    598 ****       107.5000 229.0000 355.7500 Du        
    599 ****       107.5000 229.0000 356.0000 Du        
    600 ****       107.5000 229.2500 354.5000 Du        
    601 ****       107.5000 229.2500 354.7500 Du        
    602 ****       107.5000 229.2500 355.0000 Du        
    603 ****       107.5000 229.2500 355.2500 Du        
    604 ****       107.5000 229.2500 355.5000 Du        
    605 ****       107.5000 229.2500 355.7500 Du        
    606 ****       107.5000 229.2500 356.0000 Du        
    607 ****       107.5000 229.5000 354.2500 Du        
    608 ****       107.5000 229.5000 354.5000 Du        
    609 ****       107.5000 229.5000 354.7500 Du        
    610 ****       107.5000 229.5000 355.0000 Du        
    611 ****       107.5000 229.5000 355.2500 Du        
    612 ****       107.5000 229.5000 355.5000 Du        
    613 ****       107.5000 229.5000 355.7500 Du        
    614 ****       107.5000 229.5000 356.0000 Du        
    615 ****       107.5000 229.5000 356.2500 Du        
    616 ****       107.5000 229.7500 354.2500 Du        
    617 ****       107.5000 229.7500 354.5000 Du        
    618 ****       107.5000 229.7500 354.7500 Du        
    619 ****       107.5000 229.7500 355.0000 Du        
    620 ****       107.5000 229.7500 355.2500 Du        
    621 ****       107.5000 229.7500 355.5000 Du        
    622 ****       107.5000 229.7500 355.7500 Du        
    623 ****       107.5000 229.7500 356.0000 Du        
    624 ****       107.5000 229.7500 356.2500 Du        
    625 ****       107.5000 230.0000 354.2500 Du        
    626 ****       107.5000 230.0000 354.5000 Du        
    627 ****       107.5000 230.0000 354.7500 Du        
    628 ****       107.5000 230.0000 355.0000 Du        
    629 ****       107.5000 230.0000 355.2500 Du        
    630 ****       107.5000 230.0000 355.5000 Du        
    631 ****       107.5000 230.0000 355.7500 Du        
    632 ****       107.5000 230.0000 356.0000 Du        
    633 ****       107.5000 230.0000 356.2500 Du        
    634 ****       107.5000 230.2500 354.2500 Du        
    635 ****       107.5000 230.2500 354.5000 Du        
    636 ****       107.5000 230.2500 354.7500 Du        
    637 ****       107.5000 230.2500 355.0000 Du        
    638 ****       107.5000 230.2500 355.2500 Du        
    639 ****       107.5000 230.2500 355.5000 Du        
    640 ****       107.5000 230.2500 355.7500 Du        
    641 ****       107.5000 230.2500 356.0000 Du        
    642 ****       107.5000 230.5000 354.2500 Du        
    643 ****       107.5000 230.5000 354.5000 Du        
    644 ****       107.5000 230.5000 354.7500 Du        
    645 ****       107.5000 230.5000 355.0000 Du        
    646 ****       107.5000 230.5000 355.2500 Du        
    647 ****       107.5000 230.5000 355.5000 Du        
    648 ****       107.5000 230.5000 355.7500 Du        
    649 ****       107.5000 230.5000 356.0000 Du        
    650 ****       107.5000 230.7500 354.5000 Du        
    651 ****       107.5000 230.7500 354.7500 Du        
    652 ****       107.5000 230.7500 355.0000 Du        
    653 ****       107.5000 230.7500 355.2500 Du        
    654 ****       107.5000 230.7500 355.5000 Du        
    655 ****       107.5000 230.7500 355.7500 Du        
    656 ****       107.5000 230.7500 356.0000 Du        
    657 ****       107.5000 231.0000 354.5000 Du        
    658 ****       107.5000 231.0000 354.7500 Du        
    659 ****       107.5000 231.0000 355.0000 Du        
    660 ****       107.5000 231.0000 355.2500 Du        
    661 ****       107.5000 231.0000 355.5000 Du        
    662 ****       107.5000 231.0000 355.7500 Du        
    663 ****       107.5000 231.0000 356.0000 Du        
    664 ****       107.5000 231.2500 355.0000 Du        
    665 ****       107.5000 231.2500 355.2500 Du        
    666 ****       107.5000 231.2500 355.5000 Du        
    667 ****       107.5000 231.2500 355.7500 Du        
    668 ****       107.7500 228.7500 355.2500 Du        
    669 ****       107.7500 229.0000 354.5000 Du        
    670 ****       107.7500 229.0000 354.7500 Du        
    671 ****       107.7500 229.0000 355.0000 Du        
    672 ****       107.7500 229.0000 355.2500 Du        
    673 ****       107.7500 229.0000 355.5000 Du        
    674 ****       107.7500 229.0000 355.7500 Du        
    675 ****       107.7500 229.0000 356.0000 Du        
    676 ****       107.7500 229.2500 354.5000 Du        
    677 ****       107.7500 229.2500 354.7500 Du        
    678 ****       107.7500 229.2500 355.0000 Du        
    679 ****       107.7500 229.2500 355.2500 Du        
    680 ****       107.7500 229.2500 355.5000 Du        
    681 ****       107.7500 229.2500 355.7500 Du        
    682 ****       107.7500 229.2500 356.0000 Du        
    683 ****       107.7500 229.2500 356.2500 Du        
    684 ****       107.7500 229.5000 354.5000 Du        
    685 ****       107.7500 229.5000 354.7500 Du        
    686 ****       107.7500 229.5000 355.0000 Du        
    687 ****       107.7500 229.5000 355.2500 Du        
    688 ****       107.7500 229.5000 355.5000 Du        
    689 ****       107.7500 229.5000 355.7500 Du        
    690 ****       107.7500 229.5000 356.0000 Du        
    691 ****       107.7500 229.5000 356.2500 Du        
    692 ****       107.7500 229.7500 354.2500 Du        
    693 ****       107.7500 229.7500 354.5000 Du        
    694 ****       107.7500 229.7500 354.7500 Du        
    695 ****       107.7500 229.7500 355.0000 Du        
    696 ****       107.7500 229.7500 355.2500 Du        
    697 ****       107.7500 229.7500 355.5000 Du        
    698 ****       107.7500 229.7500 355.7500 Du        
    699 ****       107.7500 229.7500 356.0000 Du        
    700 ****       107.7500 229.7500 356.2500 Du        
    701 ****       107.7500 230.0000 354.2500 Du        
    702 ****       107.7500 230.0000 354.5000 Du        
    703 ****       107.7500 230.0000 354.7500 Du        
    704 ****       107.7500 230.0000 355.0000 Du        
    705 ****       107.7500 230.0000 355.2500 Du        
    706 ****       107.7500 230.0000 355.5000 Du        
    707 ****       107.7500 230.0000 355.7500 Du        
    708 ****       107.7500 230.0000 356.0000 Du        
    709 ****       107.7500 230.0000 356.2500 Du        
    710 ****       107.7500 230.2500 354.2500 Du        
    711 ****       107.7500 230.2500 354.5000 Du        
    712 ****       107.7500 230.2500 354.7500 Du        
    713 ****       107.7500 230.2500 355.0000 Du        
    714 ****       107.7500 230.2500 355.2500 Du        
    715 ****       107.7500 230.2500 355.5000 Du        
    716 ****       107.7500 230.2500 355.7500 Du        
    717 ****       107.7500 230.2500 356.0000 Du        
    718 ****       107.7500 230.2500 356.2500 Du        
    719 ****       107.7500 230.5000 354.5000 Du        
    720 ****       107.7500 230.5000 354.7500 Du        
    721 ****       107.7500 230.5000 355.0000 Du        
    722 ****       107.7500 230.5000 355.2500 Du        
    723 ****       107.7500 230.5000 355.5000 Du        
    724 ****       107.7500 230.5000 355.7500 Du        
    725 ****       107.7500 230.5000 356.0000 Du        
    726 ****       107.7500 230.5000 356.2500 Du        
    727 ****       107.7500 230.7500 354.5000 Du        
    728 ****       107.7500 230.7500 354.7500 Du        
    729 ****       107.7500 230.7500 355.0000 Du        
    730 ****       107.7500 230.7500 355.2500 Du        
    731 ****       107.7500 230.7500 355.5000 Du        
    732 ****       107.7500 230.7500 355.7500 Du        
    733 ****       107.7500 230.7500 356.0000 Du        
    734 ****       107.7500 231.0000 354.7500 Du        
    735 ****       107.7500 231.0000 355.0000 Du        
    736 ****       107.7500 231.0000 355.2500 Du        
    737 ****       107.7500 231.0000 355.5000 Du        
    738 ****       107.7500 231.0000 355.7500 Du        
    739 ****       107.7500 231.0000 356.0000 Du        
    740 ****       107.7500 231.2500 355.0000 Du        
    741 ****       107.7500 231.2500 355.2500 Du        
    742 ****       107.7500 231.2500 355.5000 Du        
    743 ****       107.7500 231.2500 355.7500 Du        
    744 ****       107.7500 231.2500 356.0000 Du        
    745 ****       108.0000 229.0000 354.7500 Du        
    746 ****       108.0000 229.0000 355.0000 Du        
    747 ****       108.0000 229.0000 355.2500 Du        
    748 ****       108.0000 229.0000 355.5000 Du        
    749 ****       108.0000 229.0000 355.7500 Du        
    750 ****       108.0000 229.0000 356.0000 Du        
    751 ****       108.0000 229.0000 356.2500 Du        
    752 ****       108.0000 229.2500 354.5000 Du        
    753 ****       108.0000 229.2500 354.7500 Du        
    754 ****       108.0000 229.2500 355.0000 Du        
    755 ****       108.0000 229.2500 355.2500 Du        
    756 ****       108.0000 229.2500 355.5000 Du        
    757 ****       108.0000 229.2500 355.7500 Du        
    758 ****       108.0000 229.2500 356.0000 Du        
    759 ****       108.0000 229.2500 356.2500 Du        
    760 ****       108.0000 229.5000 354.5000 Du        
    761 ****       108.0000 229.5000 354.7500 Du        
    762 ****       108.0000 229.5000 355.0000 Du        
    763 ****       108.0000 229.5000 355.2500 Du        
    764 ****       108.0000 229.5000 355.5000 Du        
    765 ****       108.0000 229.5000 355.7500 Du        
    766 ****       108.0000 229.5000 356.0000 Du        
    767 ****       108.0000 229.5000 356.2500 Du        
    768 ****       108.0000 229.7500 354.5000 Du        
    769 ****       108.0000 229.7500 354.7500 Du        
    770 ****       108.0000 229.7500 355.0000 Du        
    771 ****       108.0000 229.7500 355.2500 Du        
    772 ****       108.0000 229.7500 355.5000 Du        
    773 ****       108.0000 229.7500 355.7500 Du        
    774 ****       108.0000 229.7500 356.0000 Du        
    775 ****       108.0000 229.7500 356.2500 Du        
    776 ****       108.0000 229.7500 356.5000 Du        
    777 ****       108.0000 230.0000 354.2500 Du        
    778 ****       108.0000 230.0000 354.5000 Du        
    779 ****       108.0000 230.0000 354.7500 Du        
    780 ****       108.0000 230.0000 355.0000 Du        
    781 ****       108.0000 230.0000 355.2500 Du        
    782 ****       108.0000 230.0000 355.5000 Du        
    783 ****       108.0000 230.0000 355.7500 Du        
    784 ****       108.0000 230.0000 356.0000 Du        
    785 ****       108.0000 230.0000 356.2500 Du        
    786 ****       108.0000 230.0000 356.5000 Du        
    787 ****       108.0000 230.2500 354.5000 Du        
    788 ****       108.0000 230.2500 354.7500 Du        
    789 ****       108.0000 230.2500 355.0000 Du        
    790 ****       108.0000 230.2500 355.2500 Du        
    791 ****       108.0000 230.2500 355.5000 Du        
    792 ****       108.0000 230.2500 355.7500 Du        
    793 ****       108.0000 230.2500 356.0000 Du        
    794 ****       108.0000 230.2500 356.2500 Du        
    795 ****       108.0000 230.5000 354.5000 Du        
    796 ****       108.0000 230.5000 354.7500 Du        
    797 ****       108.0000 230.5000 355.0000 Du        
    798 ****       108.0000 230.5000 355.2500 Du        
    799 ****       108.0000 230.5000 355.5000 Du        
    800 ****       108.0000 230.5000 355.7500 Du        
    801 ****       108.0000 230.5000 356.0000 Du        
    802 ****       108.0000 230.5000 356.2500 Du        
    803 ****       108.0000 230.7500 354.7500 Du        
    804 ****       108.0000 230.7500 355.0000 Du        
    805 ****       108.0000 230.7500 355.2500 Du        
    806 ****       108.0000 230.7500 355.5000 Du        
    807 ****       108.0000 230.7500 355.7500 Du        
    808 ****       108.0000 230.7500 356.0000 Du        
    809 ****       108.0000 230.7500 356.2500 Du        
    810 ****       108.0000 231.0000 354.7500 Du        
    811 ****       108.0000 231.0000 355.0000 Du        
    812 ****       108.0000 231.0000 355.2500 Du        
    813 ****       108.0000 231.0000 355.5000 Du        
    814 ****       108.0000 231.0000 355.7500 Du        
    815 ****       108.0000 231.0000 356.0000 Du        
    816 ****       108.0000 231.0000 356.2500 Du        
    817 ****       108.0000 231.2500 355.0000 Du        
    818 ****       108.0000 231.2500 355.2500 Du        
    819 ****       108.0000 231.2500 355.5000 Du        
    820 ****       108.0000 231.2500 355.7500 Du        
    821 ****       108.0000 231.2500 356.0000 Du        
    822 ****       108.0000 231.2500 356.2500 Du        
    823 ****       108.0000 231.5000 355.7500 Du        
    824 ****       108.0000 231.5000 356.0000 Du        
    825 ****       108.0000 231.5000 356.2500 Du        
    826 ****       108.0000 231.7500 356.0000 Du        
    827 ****       108.0000 231.7500 356.2500 Du        
    828 ****       108.0000 232.0000 356.2500 Du        
    829 ****       108.2500 229.0000 354.7500 Du        
    830 ****       108.2500 229.0000 355.0000 Du        
    831 ****       108.2500 229.0000 355.2500 Du        
    832 ****       108.2500 229.0000 355.5000 Du        
    833 ****       108.2500 229.0000 355.7500 Du        
    834 ****       108.2500 229.0000 356.0000 Du        
    835 ****       108.2500 229.0000 356.2500 Du        
    836 ****       108.2500 229.2500 354.7500 Du        
    837 ****       108.2500 229.2500 355.0000 Du        
    838 ****       108.2500 229.2500 355.2500 Du        
    839 ****       108.2500 229.2500 355.5000 Du        
    840 ****       108.2500 229.2500 355.7500 Du        
    841 ****       108.2500 229.2500 356.0000 Du        
    842 ****       108.2500 229.2500 356.2500 Du        
    843 ****       108.2500 229.2500 356.5000 Du        
    844 ****       108.2500 229.5000 354.5000 Du        
    845 ****       108.2500 229.5000 354.7500 Du        
    846 ****       108.2500 229.5000 355.0000 Du        
    847 ****       108.2500 229.5000 355.2500 Du        
    848 ****       108.2500 229.5000 355.5000 Du        
    849 ****       108.2500 229.5000 355.7500 Du        
    850 ****       108.2500 229.5000 356.0000 Du        
    851 ****       108.2500 229.5000 356.2500 Du        
    852 ****       108.2500 229.5000 356.5000 Du        
    853 ****       108.2500 229.7500 354.5000 Du        
    854 ****       108.2500 229.7500 354.7500 Du        
    855 ****       108.2500 229.7500 355.0000 Du        
    856 ****       108.2500 229.7500 355.2500 Du        
    857 ****       108.2500 229.7500 355.5000 Du        
    858 ****       108.2500 229.7500 355.7500 Du        
    859 ****       108.2500 229.7500 356.0000 Du        
    860 ****       108.2500 229.7500 356.2500 Du        
    861 ****       108.2500 229.7500 356.5000 Du        
    862 ****       108.2500 229.7500 356.7500 Du        
    863 ****       108.2500 230.0000 354.5000 Du        
    864 ****       108.2500 230.0000 354.7500 Du        
    865 ****       108.2500 230.0000 355.0000 Du        
    866 ****       108.2500 230.0000 355.2500 Du        
    867 ****       108.2500 230.0000 355.5000 Du        
    868 ****       108.2500 230.0000 355.7500 Du        
    869 ****       108.2500 230.0000 356.0000 Du        
    870 ****       108.2500 230.0000 356.2500 Du        
    871 ****       108.2500 230.0000 356.5000 Du        
    872 ****       108.2500 230.0000 356.7500 Du        
    873 ****       108.2500 230.2500 354.5000 Du        
    874 ****       108.2500 230.2500 354.7500 Du        
    875 ****       108.2500 230.2500 355.0000 Du        
    876 ****       108.2500 230.2500 355.2500 Du        
    877 ****       108.2500 230.2500 355.5000 Du        
    878 ****       108.2500 230.2500 355.7500 Du        
    879 ****       108.2500 230.2500 356.0000 Du        
    880 ****       108.2500 230.2500 356.2500 Du        
    881 ****       108.2500 230.2500 356.5000 Du        
    882 ****       108.2500 230.5000 354.7500 Du        
    883 ****       108.2500 230.5000 355.0000 Du        
    884 ****       108.2500 230.5000 355.2500 Du        
    885 ****       108.2500 230.5000 355.5000 Du        
    886 ****       108.2500 230.5000 355.7500 Du        
    887 ****       108.2500 230.5000 356.0000 Du        
    888 ****       108.2500 230.5000 356.2500 Du        
    889 ****       108.2500 230.7500 354.7500 Du        
    890 ****       108.2500 230.7500 355.0000 Du        
    891 ****       108.2500 230.7500 355.2500 Du        
    892 ****       108.2500 230.7500 355.5000 Du        
    893 ****       108.2500 230.7500 355.7500 Du        
    894 ****       108.2500 230.7500 356.0000 Du        
    895 ****       108.2500 230.7500 356.2500 Du        
    896 ****       108.2500 231.0000 354.7500 Du        
    897 ****       108.2500 231.0000 355.0000 Du        
    898 ****       108.2500 231.0000 355.2500 Du        
    899 ****       108.2500 231.0000 355.5000 Du        
    900 ****       108.2500 231.0000 355.7500 Du        
    901 ****       108.2500 231.0000 356.0000 Du        
    902 ****       108.2500 231.0000 356.2500 Du        
    903 ****       108.2500 231.2500 355.0000 Du        
    904 ****       108.2500 231.2500 355.2500 Du        
    905 ****       108.2500 231.2500 355.5000 Du        
    906 ****       108.2500 231.2500 355.7500 Du        
    907 ****       108.2500 231.2500 356.0000 Du        
    908 ****       108.2500 231.2500 356.2500 Du        
    909 ****       108.2500 231.5000 355.5000 Du        
    910 ****       108.2500 231.5000 355.7500 Du        
    911 ****       108.2500 231.5000 356.0000 Du        
    912 ****       108.2500 231.5000 356.2500 Du        
    913 ****       108.2500 231.7500 355.7500 Du        
    914 ****       108.2500 231.7500 356.0000 Du        
    915 ****       108.2500 231.7500 356.2500 Du        
    916 ****       108.2500 232.0000 356.0000 Du        
    917 ****       108.2500 232.0000 356.2500 Du        
    918 ****       108.2500 232.2500 356.2500 Du        
    919 ****       108.2500 232.5000 356.7500 Du        
    920 ****       108.2500 232.5000 357.0000 Du        
    921 ****       108.2500 232.7500 356.7500 Du        
    922 ****       108.2500 232.7500 357.0000 Du        
    923 ****       108.2500 232.7500 357.2500 Du        
    924 ****       108.2500 233.0000 357.0000 Du        
    925 ****       108.2500 233.0000 357.2500 Du        
    926 ****       108.2500 236.0000 360.5000 Du        
    927 ****       108.2500 236.2500 360.0000 Du        
    928 ****       108.2500 236.2500 360.5000 Du        
    929 ****       108.5000 229.0000 355.0000 Du        
    930 ****       108.5000 229.0000 355.2500 Du        
    931 ****       108.5000 229.0000 355.5000 Du        
    932 ****       108.5000 229.0000 355.7500 Du        
    933 ****       108.5000 229.0000 356.0000 Du        
    934 ****       108.5000 229.0000 356.2500 Du        
    935 ****       108.5000 229.2500 354.7500 Du        
    936 ****       108.5000 229.2500 355.0000 Du        
    937 ****       108.5000 229.2500 355.2500 Du        
    938 ****       108.5000 229.2500 355.5000 Du        
    939 ****       108.5000 229.2500 355.7500 Du        
    940 ****       108.5000 229.2500 356.0000 Du        
    941 ****       108.5000 229.2500 356.2500 Du        
    942 ****       108.5000 229.2500 356.5000 Du        
    943 ****       108.5000 229.2500 356.7500 Du        
    944 ****       108.5000 229.2500 357.0000 Du        
    945 ****       108.5000 229.5000 354.7500 Du        
    946 ****       108.5000 229.5000 355.0000 Du        
    947 ****       108.5000 229.5000 355.2500 Du        
    948 ****       108.5000 229.5000 355.5000 Du        
    949 ****       108.5000 229.5000 355.7500 Du        
    950 ****       108.5000 229.5000 356.0000 Du        
    951 ****       108.5000 229.5000 356.2500 Du        
    952 ****       108.5000 229.5000 356.5000 Du        
    953 ****       108.5000 229.5000 356.7500 Du        
    954 ****       108.5000 229.7500 354.5000 Du        
    955 ****       108.5000 229.7500 354.7500 Du        
    956 ****       108.5000 229.7500 355.0000 Du        
    957 ****       108.5000 229.7500 355.2500 Du        
    958 ****       108.5000 229.7500 355.5000 Du        
    959 ****       108.5000 229.7500 355.7500 Du        
    960 ****       108.5000 229.7500 356.0000 Du        
    961 ****       108.5000 229.7500 356.2500 Du        
    962 ****       108.5000 229.7500 356.5000 Du        
    963 ****       108.5000 229.7500 356.7500 Du        
    964 ****       108.5000 229.7500 357.0000 Du        
    965 ****       108.5000 230.0000 354.5000 Du        
    966 ****       108.5000 230.0000 354.7500 Du        
    967 ****       108.5000 230.0000 355.0000 Du        
    968 ****       108.5000 230.0000 355.2500 Du        
    969 ****       108.5000 230.0000 355.5000 Du        
    970 ****       108.5000 230.0000 355.7500 Du        
    971 ****       108.5000 230.0000 356.0000 Du        
    972 ****       108.5000 230.0000 356.2500 Du        
    973 ****       108.5000 230.0000 356.5000 Du        
    974 ****       108.5000 230.0000 356.7500 Du        
    975 ****       108.5000 230.0000 357.0000 Du        
    976 ****       108.5000 230.2500 354.7500 Du        
    977 ****       108.5000 230.2500 355.0000 Du        
    978 ****       108.5000 230.2500 355.2500 Du        
    979 ****       108.5000 230.2500 355.5000 Du        
    980 ****       108.5000 230.2500 355.7500 Du        
    981 ****       108.5000 230.2500 356.0000 Du        
    982 ****       108.5000 230.2500 356.2500 Du        
    983 ****       108.5000 230.2500 356.5000 Du        
    984 ****       108.5000 230.2500 356.7500 Du        
    985 ****       108.5000 230.5000 354.7500 Du        
    986 ****       108.5000 230.5000 355.0000 Du        
    987 ****       108.5000 230.5000 355.2500 Du        
    988 ****       108.5000 230.5000 355.5000 Du        
    989 ****       108.5000 230.5000 355.7500 Du        
    990 ****       108.5000 230.5000 356.0000 Du        
    991 ****       108.5000 230.5000 356.2500 Du        
    992 ****       108.5000 230.7500 354.7500 Du        
    993 ****       108.5000 230.7500 355.0000 Du        
    994 ****       108.5000 230.7500 355.2500 Du        
    995 ****       108.5000 230.7500 355.5000 Du        
    996 ****       108.5000 230.7500 355.7500 Du        
    997 ****       108.5000 230.7500 356.0000 Du        
    998 ****       108.5000 230.7500 356.2500 Du        
    999 ****       108.5000 230.7500 356.5000 Du        
   1000 ****       108.5000 231.0000 355.0000 Du        
   1001 ****       108.5000 231.0000 355.2500 Du        
   1002 ****       108.5000 231.0000 355.5000 Du        
   1003 ****       108.5000 231.0000 355.7500 Du        
   1004 ****       108.5000 231.0000 356.0000 Du        
   1005 ****       108.5000 231.0000 356.2500 Du        
   1006 ****       108.5000 231.0000 356.5000 Du        
   1007 ****       108.5000 231.0000 356.7500 Du        
   1008 ****       108.5000 231.2500 355.0000 Du        
   1009 ****       108.5000 231.2500 355.2500 Du        
   1010 ****       108.5000 231.2500 355.5000 Du        
   1011 ****       108.5000 231.2500 355.7500 Du        
   1012 ****       108.5000 231.2500 356.0000 Du        
   1013 ****       108.5000 231.2500 356.2500 Du        
   1014 ****       108.5000 231.2500 356.5000 Du        
   1015 ****       108.5000 231.5000 355.5000 Du        
   1016 ****       108.5000 231.5000 355.7500 Du        
   1017 ****       108.5000 231.5000 356.0000 Du        
   1018 ****       108.5000 231.5000 356.2500 Du        
   1019 ****       108.5000 231.5000 356.5000 Du        
   1020 ****       108.5000 231.5000 356.7500 Du        
   1021 ****       108.5000 231.7500 355.7500 Du        
   1022 ****       108.5000 231.7500 356.0000 Du        
   1023 ****       108.5000 231.7500 356.2500 Du        
   1024 ****       108.5000 231.7500 356.5000 Du        
   1025 ****       108.5000 231.7500 356.7500 Du        
   1026 ****       108.5000 231.7500 357.0000 Du        
   1027 ****       108.5000 232.0000 356.0000 Du        
   1028 ****       108.5000 232.0000 356.2500 Du        
   1029 ****       108.5000 232.0000 356.5000 Du        
   1030 ****       108.5000 232.0000 356.7500 Du        
   1031 ****       108.5000 232.0000 357.0000 Du        
   1032 ****       108.5000 232.0000 357.2500 Du        
   1033 ****       108.5000 232.2500 356.2500 Du        
   1034 ****       108.5000 232.2500 356.5000 Du        
   1035 ****       108.5000 232.2500 356.7500 Du        
   1036 ****       108.5000 232.2500 357.0000 Du        
   1037 ****       108.5000 232.2500 357.2500 Du        
   1038 ****       108.5000 232.5000 356.2500 Du        
   1039 ****       108.5000 232.5000 356.5000 Du        
   1040 ****       108.5000 232.5000 356.7500 Du        
   1041 ****       108.5000 232.5000 357.0000 Du        
   1042 ****       108.5000 232.5000 357.2500 Du        
   1043 ****       108.5000 232.7500 356.5000 Du        
   1044 ****       108.5000 232.7500 356.7500 Du        
   1045 ****       108.5000 232.7500 357.0000 Du        
   1046 ****       108.5000 232.7500 357.2500 Du        
   1047 ****       108.5000 232.7500 357.5000 Du        
   1048 ****       108.5000 233.0000 356.7500 Du        
   1049 ****       108.5000 233.0000 357.0000 Du        
   1050 ****       108.5000 233.0000 357.2500 Du        
   1051 ****       108.5000 233.0000 357.5000 Du        
   1052 ****       108.5000 233.2500 357.0000 Du        
   1053 ****       108.5000 233.2500 357.2500 Du        
   1054 ****       108.5000 233.2500 357.5000 Du        
   1055 ****       108.5000 235.5000 360.2500 Du        
   1056 ****       108.5000 235.5000 360.5000 Du        
   1057 ****       108.5000 235.7500 360.0000 Du        
   1058 ****       108.5000 235.7500 360.2500 Du        
   1059 ****       108.5000 235.7500 360.5000 Du        
   1060 ****       108.5000 236.0000 360.0000 Du        
   1061 ****       108.5000 236.0000 360.2500 Du        
   1062 ****       108.5000 236.0000 360.5000 Du        
   1063 ****       108.5000 236.2500 360.2500 Du        
   1064 ****       108.5000 236.2500 360.5000 Du        
   1065 ****       108.7500 229.0000 355.2500 Du        
   1066 ****       108.7500 229.0000 355.5000 Du        
   1067 ****       108.7500 229.0000 355.7500 Du        
   1068 ****       108.7500 229.0000 356.0000 Du        
   1069 ****       108.7500 229.0000 356.2500 Du        
   1070 ****       108.7500 229.2500 355.0000 Du        
   1071 ****       108.7500 229.2500 355.2500 Du        
   1072 ****       108.7500 229.2500 355.5000 Du        
   1073 ****       108.7500 229.2500 355.7500 Du        
   1074 ****       108.7500 229.2500 356.0000 Du        
   1075 ****       108.7500 229.2500 356.2500 Du        
   1076 ****       108.7500 229.2500 356.5000 Du        
   1077 ****       108.7500 229.2500 356.7500 Du        
   1078 ****       108.7500 229.2500 357.0000 Du        
   1079 ****       108.7500 229.5000 354.7500 Du        
   1080 ****       108.7500 229.5000 355.0000 Du        
   1081 ****       108.7500 229.5000 355.2500 Du        
   1082 ****       108.7500 229.5000 355.5000 Du        
   1083 ****       108.7500 229.5000 355.7500 Du        
   1084 ****       108.7500 229.5000 356.0000 Du        
   1085 ****       108.7500 229.5000 356.2500 Du        
   1086 ****       108.7500 229.5000 356.5000 Du        
   1087 ****       108.7500 229.5000 356.7500 Du        
   1088 ****       108.7500 229.5000 357.0000 Du        
   1089 ****       108.7500 229.7500 354.7500 Du        
   1090 ****       108.7500 229.7500 355.0000 Du        
   1091 ****       108.7500 229.7500 355.2500 Du        
   1092 ****       108.7500 229.7500 355.5000 Du        
   1093 ****       108.7500 229.7500 355.7500 Du        
   1094 ****       108.7500 229.7500 356.0000 Du        
   1095 ****       108.7500 229.7500 356.2500 Du        
   1096 ****       108.7500 229.7500 356.5000 Du        
   1097 ****       108.7500 229.7500 356.7500 Du        
   1098 ****       108.7500 229.7500 357.0000 Du        
   1099 ****       108.7500 230.0000 354.7500 Du        
   1100 ****       108.7500 230.0000 355.0000 Du        
   1101 ****       108.7500 230.0000 355.2500 Du        
   1102 ****       108.7500 230.0000 355.5000 Du        
   1103 ****       108.7500 230.0000 355.7500 Du        
   1104 ****       108.7500 230.0000 356.0000 Du        
   1105 ****       108.7500 230.0000 356.2500 Du        
   1106 ****       108.7500 230.0000 356.5000 Du        
   1107 ****       108.7500 230.0000 356.7500 Du        
   1108 ****       108.7500 230.0000 357.0000 Du        
   1109 ****       108.7500 230.2500 354.7500 Du        
   1110 ****       108.7500 230.2500 355.0000 Du        
   1111 ****       108.7500 230.2500 355.2500 Du        
   1112 ****       108.7500 230.2500 355.5000 Du        
   1113 ****       108.7500 230.2500 355.7500 Du        
   1114 ****       108.7500 230.2500 356.0000 Du        
   1115 ****       108.7500 230.2500 356.2500 Du        
   1116 ****       108.7500 230.2500 356.5000 Du        
   1117 ****       108.7500 230.2500 356.7500 Du        
   1118 ****       108.7500 230.2500 357.0000 Du        
   1119 ****       108.7500 230.5000 354.7500 Du        
   1120 ****       108.7500 230.5000 355.0000 Du        
   1121 ****       108.7500 230.5000 355.2500 Du        
   1122 ****       108.7500 230.5000 355.5000 Du        
   1123 ****       108.7500 230.5000 355.7500 Du        
   1124 ****       108.7500 230.5000 356.0000 Du        
   1125 ****       108.7500 230.5000 356.2500 Du        
   1126 ****       108.7500 230.5000 356.5000 Du        
   1127 ****       108.7500 230.5000 356.7500 Du        
   1128 ****       108.7500 230.7500 355.0000 Du        
   1129 ****       108.7500 230.7500 355.2500 Du        
   1130 ****       108.7500 230.7500 355.5000 Du        
   1131 ****       108.7500 230.7500 355.7500 Du        
   1132 ****       108.7500 230.7500 356.0000 Du        
   1133 ****       108.7500 230.7500 356.2500 Du        
   1134 ****       108.7500 230.7500 356.5000 Du        
   1135 ****       108.7500 230.7500 356.7500 Du        
   1136 ****       108.7500 231.0000 355.0000 Du        
   1137 ****       108.7500 231.0000 355.2500 Du        
   1138 ****       108.7500 231.0000 355.5000 Du        
   1139 ****       108.7500 231.0000 355.7500 Du        
   1140 ****       108.7500 231.0000 356.0000 Du        
   1141 ****       108.7500 231.0000 356.2500 Du        
   1142 ****       108.7500 231.0000 356.5000 Du        
   1143 ****       108.7500 231.0000 356.7500 Du        
   1144 ****       108.7500 231.0000 357.0000 Du        
   1145 ****       108.7500 231.2500 355.2500 Du        
   1146 ****       108.7500 231.2500 355.5000 Du        
   1147 ****       108.7500 231.2500 355.7500 Du        
   1148 ****       108.7500 231.2500 356.0000 Du        
   1149 ****       108.7500 231.2500 356.2500 Du        
   1150 ****       108.7500 231.2500 356.5000 Du        
   1151 ****       108.7500 231.2500 356.7500 Du        
   1152 ****       108.7500 231.5000 355.5000 Du        
   1153 ****       108.7500 231.5000 355.7500 Du        
   1154 ****       108.7500 231.5000 356.0000 Du        
   1155 ****       108.7500 231.5000 356.2500 Du        
   1156 ****       108.7500 231.5000 356.5000 Du        
   1157 ****       108.7500 231.5000 356.7500 Du        
   1158 ****       108.7500 231.5000 357.0000 Du        
   1159 ****       108.7500 231.5000 357.2500 Du        
   1160 ****       108.7500 231.7500 355.7500 Du        
   1161 ****       108.7500 231.7500 356.0000 Du        
   1162 ****       108.7500 231.7500 356.2500 Du        
   1163 ****       108.7500 231.7500 356.5000 Du        
   1164 ****       108.7500 231.7500 356.7500 Du        
   1165 ****       108.7500 231.7500 357.0000 Du        
   1166 ****       108.7500 231.7500 357.2500 Du        
   1167 ****       108.7500 232.0000 355.7500 Du        
   1168 ****       108.7500 232.0000 356.0000 Du        
   1169 ****       108.7500 232.0000 356.2500 Du        
   1170 ****       108.7500 232.0000 356.5000 Du        
   1171 ****       108.7500 232.0000 356.7500 Du        
   1172 ****       108.7500 232.0000 357.0000 Du        
   1173 ****       108.7500 232.0000 357.2500 Du        
   1174 ****       108.7500 232.2500 356.0000 Du        
   1175 ****       108.7500 232.2500 356.2500 Du        
   1176 ****       108.7500 232.2500 356.5000 Du        
   1177 ****       108.7500 232.2500 356.7500 Du        
   1178 ****       108.7500 232.2500 357.0000 Du        
   1179 ****       108.7500 232.2500 357.2500 Du        
   1180 ****       108.7500 232.2500 357.5000 Du        
   1181 ****       108.7500 232.5000 356.2500 Du        
   1182 ****       108.7500 232.5000 356.5000 Du        
   1183 ****       108.7500 232.5000 356.7500 Du        
   1184 ****       108.7500 232.5000 357.0000 Du        
   1185 ****       108.7500 232.5000 357.2500 Du        
   1186 ****       108.7500 232.5000 357.5000 Du        
   1187 ****       108.7500 232.5000 357.7500 Du        
   1188 ****       108.7500 232.7500 356.5000 Du        
   1189 ****       108.7500 232.7500 356.7500 Du        
   1190 ****       108.7500 232.7500 357.0000 Du        
   1191 ****       108.7500 232.7500 357.2500 Du        
   1192 ****       108.7500 232.7500 357.5000 Du        
   1193 ****       108.7500 232.7500 357.7500 Du        
   1194 ****       108.7500 233.0000 356.7500 Du        
   1195 ****       108.7500 233.0000 357.0000 Du        
   1196 ****       108.7500 233.0000 357.2500 Du        
   1197 ****       108.7500 233.0000 357.5000 Du        
   1198 ****       108.7500 233.0000 357.7500 Du        
   1199 ****       108.7500 233.2500 357.0000 Du        
   1200 ****       108.7500 233.2500 357.2500 Du        
   1201 ****       108.7500 233.2500 357.5000 Du        
   1202 ****       108.7500 233.2500 357.7500 Du        
   1203 ****       108.7500 234.7500 360.0000 Du        
   1204 ****       108.7500 235.0000 360.0000 Du        
   1205 ****       108.7500 235.0000 360.2500 Du        
   1206 ****       108.7500 235.0000 360.5000 Du        
   1207 ****       108.7500 235.0000 360.7500 Du        
   1208 ****       108.7500 235.2500 360.0000 Du        
   1209 ****       108.7500 235.2500 360.2500 Du        
   1210 ****       108.7500 235.2500 360.5000 Du        
   1211 ****       108.7500 235.2500 360.7500 Du        
   1212 ****       108.7500 235.2500 361.0000 Du        
   1213 ****       108.7500 235.2500 361.2500 Du        
   1214 ****       108.7500 235.5000 360.0000 Du        
   1215 ****       108.7500 235.5000 360.2500 Du        
   1216 ****       108.7500 235.5000 360.5000 Du        
   1217 ****       108.7500 235.7500 360.2500 Du        
   1218 ****       108.7500 235.7500 360.5000 Du        
   1219 ****       108.7500 236.0000 360.2500 Du        
   1220 ****       108.7500 236.0000 360.5000 Du        
   1221 ****       108.7500 236.2500 360.2500 Du        
   1222 ****       108.7500 236.2500 360.5000 Du        
   1223 ****       109.0000 229.0000 355.7500 Du        
   1224 ****       109.0000 229.0000 356.0000 Du        
   1225 ****       109.0000 229.0000 356.2500 Du        
   1226 ****       109.0000 229.2500 355.2500 Du        
   1227 ****       109.0000 229.2500 355.5000 Du        
   1228 ****       109.0000 229.2500 355.7500 Du        
   1229 ****       109.0000 229.2500 356.0000 Du        
   1230 ****       109.0000 229.2500 356.2500 Du        
   1231 ****       109.0000 229.2500 356.5000 Du        
   1232 ****       109.0000 229.2500 356.7500 Du        
   1233 ****       109.0000 229.2500 357.0000 Du        
   1234 ****       109.0000 229.5000 355.0000 Du        
   1235 ****       109.0000 229.5000 355.2500 Du        
   1236 ****       109.0000 229.5000 355.5000 Du        
   1237 ****       109.0000 229.5000 355.7500 Du        
   1238 ****       109.0000 229.5000 356.0000 Du        
   1239 ****       109.0000 229.5000 356.2500 Du        
   1240 ****       109.0000 229.5000 356.5000 Du        
   1241 ****       109.0000 229.5000 356.7500 Du        
   1242 ****       109.0000 229.5000 357.0000 Du        
   1243 ****       109.0000 229.7500 355.0000 Du        
   1244 ****       109.0000 229.7500 355.2500 Du        
   1245 ****       109.0000 229.7500 355.5000 Du        
   1246 ****       109.0000 229.7500 355.7500 Du        
   1247 ****       109.0000 229.7500 356.0000 Du        
   1248 ****       109.0000 229.7500 356.2500 Du        
   1249 ****       109.0000 229.7500 356.5000 Du        
   1250 ****       109.0000 229.7500 356.7500 Du        
   1251 ****       109.0000 229.7500 357.0000 Du        
   1252 ****       109.0000 230.0000 355.0000 Du        
   1253 ****       109.0000 230.0000 355.2500 Du        
   1254 ****       109.0000 230.0000 355.5000 Du        
   1255 ****       109.0000 230.0000 355.7500 Du        
   1256 ****       109.0000 230.0000 356.0000 Du        
   1257 ****       109.0000 230.0000 356.2500 Du        
   1258 ****       109.0000 230.0000 356.5000 Du        
   1259 ****       109.0000 230.0000 356.7500 Du        
   1260 ****       109.0000 230.0000 357.0000 Du        
   1261 ****       109.0000 230.2500 355.0000 Du        
   1262 ****       109.0000 230.2500 355.2500 Du        
   1263 ****       109.0000 230.2500 355.5000 Du        
   1264 ****       109.0000 230.2500 355.7500 Du        
   1265 ****       109.0000 230.2500 356.0000 Du        
   1266 ****       109.0000 230.2500 356.2500 Du        
   1267 ****       109.0000 230.2500 356.5000 Du        
   1268 ****       109.0000 230.2500 356.7500 Du        
   1269 ****       109.0000 230.2500 357.0000 Du        
   1270 ****       109.0000 230.5000 355.0000 Du        
   1271 ****       109.0000 230.5000 355.2500 Du        
   1272 ****       109.0000 230.5000 355.5000 Du        
   1273 ****       109.0000 230.5000 355.7500 Du        
   1274 ****       109.0000 230.5000 356.0000 Du        
   1275 ****       109.0000 230.5000 356.2500 Du        
   1276 ****       109.0000 230.5000 356.5000 Du        
   1277 ****       109.0000 230.5000 356.7500 Du        
   1278 ****       109.0000 230.5000 357.0000 Du        
   1279 ****       109.0000 230.7500 355.0000 Du        
   1280 ****       109.0000 230.7500 355.2500 Du        
   1281 ****       109.0000 230.7500 355.5000 Du        
   1282 ****       109.0000 230.7500 355.7500 Du        
   1283 ****       109.0000 230.7500 356.0000 Du        
   1284 ****       109.0000 230.7500 356.2500 Du        
   1285 ****       109.0000 230.7500 356.5000 Du        
   1286 ****       109.0000 230.7500 356.7500 Du        
   1287 ****       109.0000 230.7500 357.0000 Du        
   1288 ****       109.0000 231.0000 355.2500 Du        
   1289 ****       109.0000 231.0000 355.5000 Du        
   1290 ****       109.0000 231.0000 355.7500 Du        
   1291 ****       109.0000 231.0000 356.0000 Du        
   1292 ****       109.0000 231.0000 356.2500 Du        
   1293 ****       109.0000 231.0000 356.5000 Du        
   1294 ****       109.0000 231.0000 356.7500 Du        
   1295 ****       109.0000 231.0000 357.0000 Du        
   1296 ****       109.0000 231.0000 357.2500 Du        
   1297 ****       109.0000 231.2500 355.2500 Du        
   1298 ****       109.0000 231.2500 355.5000 Du        
   1299 ****       109.0000 231.2500 355.7500 Du        
   1300 ****       109.0000 231.2500 356.0000 Du        
   1301 ****       109.0000 231.2500 356.2500 Du        
   1302 ****       109.0000 231.2500 356.5000 Du        
   1303 ****       109.0000 231.2500 356.7500 Du        
   1304 ****       109.0000 231.2500 357.0000 Du        
   1305 ****       109.0000 231.2500 357.2500 Du        
   1306 ****       109.0000 231.5000 355.5000 Du        
   1307 ****       109.0000 231.5000 355.7500 Du        
   1308 ****       109.0000 231.5000 356.0000 Du        
   1309 ****       109.0000 231.5000 356.2500 Du        
   1310 ****       109.0000 231.5000 356.5000 Du        
   1311 ****       109.0000 231.5000 356.7500 Du        
   1312 ****       109.0000 231.5000 357.0000 Du        
   1313 ****       109.0000 231.5000 357.2500 Du        
   1314 ****       109.0000 231.7500 355.7500 Du        
   1315 ****       109.0000 231.7500 356.0000 Du        
   1316 ****       109.0000 231.7500 356.2500 Du        
   1317 ****       109.0000 231.7500 356.5000 Du        
   1318 ****       109.0000 231.7500 356.7500 Du        
   1319 ****       109.0000 231.7500 357.0000 Du        
   1320 ****       109.0000 231.7500 357.2500 Du        
   1321 ****       109.0000 232.0000 355.7500 Du        
   1322 ****       109.0000 232.0000 356.0000 Du        
   1323 ****       109.0000 232.0000 356.2500 Du        
   1324 ****       109.0000 232.0000 356.5000 Du        
   1325 ****       109.0000 232.0000 356.7500 Du        
   1326 ****       109.0000 232.0000 357.0000 Du        
   1327 ****       109.0000 232.0000 357.2500 Du        
   1328 ****       109.0000 232.0000 357.5000 Du        
   1329 ****       109.0000 232.0000 357.7500 Du        
   1330 ****       109.0000 232.2500 356.0000 Du        
   1331 ****       109.0000 232.2500 356.2500 Du        
   1332 ****       109.0000 232.2500 356.5000 Du        
   1333 ****       109.0000 232.2500 356.7500 Du        
   1334 ****       109.0000 232.2500 357.0000 Du        
   1335 ****       109.0000 232.2500 357.2500 Du        
   1336 ****       109.0000 232.2500 357.5000 Du        
   1337 ****       109.0000 232.2500 357.7500 Du        
   1338 ****       109.0000 232.5000 356.2500 Du        
   1339 ****       109.0000 232.5000 356.5000 Du        
   1340 ****       109.0000 232.5000 356.7500 Du        
   1341 ****       109.0000 232.5000 357.0000 Du        
   1342 ****       109.0000 232.5000 357.2500 Du        
   1343 ****       109.0000 232.5000 357.5000 Du        
   1344 ****       109.0000 232.5000 357.7500 Du        
   1345 ****       109.0000 232.7500 356.2500 Du        
   1346 ****       109.0000 232.7500 356.5000 Du        
   1347 ****       109.0000 232.7500 356.7500 Du        
   1348 ****       109.0000 232.7500 357.0000 Du        
   1349 ****       109.0000 232.7500 357.2500 Du        
   1350 ****       109.0000 232.7500 357.5000 Du        
   1351 ****       109.0000 232.7500 357.7500 Du        
   1352 ****       109.0000 232.7500 358.0000 Du        
   1353 ****       109.0000 233.0000 356.5000 Du        
   1354 ****       109.0000 233.0000 356.7500 Du        
   1355 ****       109.0000 233.0000 357.0000 Du        
   1356 ****       109.0000 233.0000 357.2500 Du        
   1357 ****       109.0000 233.0000 357.5000 Du        
   1358 ****       109.0000 233.0000 357.7500 Du        
   1359 ****       109.0000 233.0000 358.0000 Du        
   1360 ****       109.0000 233.2500 357.0000 Du        
   1361 ****       109.0000 233.2500 357.2500 Du        
   1362 ****       109.0000 233.2500 357.5000 Du        
   1363 ****       109.0000 233.2500 357.7500 Du        
   1364 ****       109.0000 233.2500 358.0000 Du        
   1365 ****       109.0000 234.5000 360.0000 Du        
   1366 ****       109.0000 234.7500 360.0000 Du        
   1367 ****       109.0000 234.7500 360.2500 Du        
   1368 ****       109.0000 234.7500 360.7500 Du        
   1369 ****       109.0000 235.0000 360.0000 Du        
   1370 ****       109.0000 235.0000 360.2500 Du        
   1371 ****       109.0000 235.0000 360.5000 Du        
   1372 ****       109.0000 235.0000 360.7500 Du        
   1373 ****       109.0000 235.0000 361.0000 Du        
   1374 ****       109.0000 235.2500 360.0000 Du        
   1375 ****       109.0000 235.2500 360.2500 Du        
   1376 ****       109.0000 235.2500 360.5000 Du        
   1377 ****       109.0000 235.2500 360.7500 Du        
   1378 ****       109.0000 235.2500 361.0000 Du        
   1379 ****       109.0000 235.2500 361.2500 Du        
   1380 ****       109.0000 235.5000 360.2500 Du        
   1381 ****       109.0000 235.5000 360.5000 Du        
   1382 ****       109.0000 235.7500 360.2500 Du        
   1383 ****       109.0000 235.7500 360.5000 Du        
   1384 ****       109.0000 236.0000 360.5000 Du        
   1385 ****       109.0000 236.2500 360.5000 Du        
   1386 ****       109.2500 229.0000 356.2500 Du        
   1387 ****       109.2500 229.2500 355.7500 Du        
   1388 ****       109.2500 229.2500 356.0000 Du        
   1389 ****       109.2500 229.2500 356.2500 Du        
   1390 ****       109.2500 229.2500 356.5000 Du        
   1391 ****       109.2500 229.2500 356.7500 Du        
   1392 ****       109.2500 229.5000 355.5000 Du        
   1393 ****       109.2500 229.5000 355.7500 Du        
   1394 ****       109.2500 229.5000 356.0000 Du        
   1395 ****       109.2500 229.5000 356.2500 Du        
   1396 ****       109.2500 229.5000 356.5000 Du        
   1397 ****       109.2500 229.5000 356.7500 Du        
   1398 ****       109.2500 229.7500 355.5000 Du        
   1399 ****       109.2500 229.7500 355.7500 Du        
   1400 ****       109.2500 229.7500 356.0000 Du        
   1401 ****       109.2500 229.7500 356.2500 Du        
   1402 ****       109.2500 229.7500 356.5000 Du        
   1403 ****       109.2500 229.7500 356.7500 Du        
   1404 ****       109.2500 229.7500 357.0000 Du        
   1405 ****       109.2500 230.0000 355.5000 Du        
   1406 ****       109.2500 230.0000 355.7500 Du        
   1407 ****       109.2500 230.0000 356.0000 Du        
   1408 ****       109.2500 230.0000 356.2500 Du        
   1409 ****       109.2500 230.0000 356.5000 Du        
   1410 ****       109.2500 230.0000 356.7500 Du        
   1411 ****       109.2500 230.0000 357.0000 Du        
   1412 ****       109.2500 230.2500 355.5000 Du        
   1413 ****       109.2500 230.2500 355.7500 Du        
   1414 ****       109.2500 230.2500 356.0000 Du        
   1415 ****       109.2500 230.2500 356.2500 Du        
   1416 ****       109.2500 230.2500 356.5000 Du        
   1417 ****       109.2500 230.2500 356.7500 Du        
   1418 ****       109.2500 230.2500 357.0000 Du        
   1419 ****       109.2500 230.5000 355.5000 Du        
   1420 ****       109.2500 230.5000 355.7500 Du        
   1421 ****       109.2500 230.5000 356.0000 Du        
   1422 ****       109.2500 230.5000 356.2500 Du        
   1423 ****       109.2500 230.5000 356.5000 Du        
   1424 ****       109.2500 230.5000 356.7500 Du        
   1425 ****       109.2500 230.5000 357.0000 Du        
   1426 ****       109.2500 230.7500 355.5000 Du        
   1427 ****       109.2500 230.7500 355.7500 Du        
   1428 ****       109.2500 230.7500 356.0000 Du        
   1429 ****       109.2500 230.7500 356.2500 Du        
   1430 ****       109.2500 230.7500 356.5000 Du        
   1431 ****       109.2500 230.7500 356.7500 Du        
   1432 ****       109.2500 230.7500 357.0000 Du        
   1433 ****       109.2500 230.7500 357.2500 Du        
   1434 ****       109.2500 231.0000 355.5000 Du        
   1435 ****       109.2500 231.0000 355.7500 Du        
   1436 ****       109.2500 231.0000 356.0000 Du        
   1437 ****       109.2500 231.0000 356.2500 Du        
   1438 ****       109.2500 231.0000 356.5000 Du        
   1439 ****       109.2500 231.0000 356.7500 Du        
   1440 ****       109.2500 231.0000 357.0000 Du        
   1441 ****       109.2500 231.0000 357.2500 Du        
   1442 ****       109.2500 231.2500 355.7500 Du        
   1443 ****       109.2500 231.2500 356.0000 Du        
   1444 ****       109.2500 231.2500 356.2500 Du        
   1445 ****       109.2500 231.2500 356.5000 Du        
   1446 ****       109.2500 231.2500 356.7500 Du        
   1447 ****       109.2500 231.2500 357.0000 Du        
   1448 ****       109.2500 231.2500 357.2500 Du        
   1449 ****       109.2500 231.5000 355.7500 Du        
   1450 ****       109.2500 231.5000 356.0000 Du        
   1451 ****       109.2500 231.5000 356.2500 Du        
   1452 ****       109.2500 231.5000 356.5000 Du        
   1453 ****       109.2500 231.5000 356.7500 Du        
   1454 ****       109.2500 231.5000 357.0000 Du        
   1455 ****       109.2500 231.5000 357.2500 Du        
   1456 ****       109.2500 231.7500 355.7500 Du        
   1457 ****       109.2500 231.7500 356.0000 Du        
   1458 ****       109.2500 231.7500 356.2500 Du        
   1459 ****       109.2500 231.7500 356.5000 Du        
   1460 ****       109.2500 231.7500 356.7500 Du        
   1461 ****       109.2500 231.7500 357.0000 Du        
   1462 ****       109.2500 231.7500 357.2500 Du        
   1463 ****       109.2500 231.7500 357.5000 Du        
   1464 ****       109.2500 231.7500 357.7500 Du        
   1465 ****       109.2500 232.0000 356.0000 Du        
   1466 ****       109.2500 232.0000 356.2500 Du        
   1467 ****       109.2500 232.0000 356.5000 Du        
   1468 ****       109.2500 232.0000 356.7500 Du        
   1469 ****       109.2500 232.0000 357.0000 Du        
   1470 ****       109.2500 232.0000 357.2500 Du        
   1471 ****       109.2500 232.0000 357.5000 Du        
   1472 ****       109.2500 232.0000 357.7500 Du        
   1473 ****       109.2500 232.2500 356.0000 Du        
   1474 ****       109.2500 232.2500 356.2500 Du        
   1475 ****       109.2500 232.2500 356.5000 Du        
   1476 ****       109.2500 232.2500 356.7500 Du        
   1477 ****       109.2500 232.2500 357.0000 Du        
   1478 ****       109.2500 232.2500 357.2500 Du        
   1479 ****       109.2500 232.2500 357.5000 Du        
   1480 ****       109.2500 232.2500 357.7500 Du        
   1481 ****       109.2500 232.2500 358.0000 Du        
   1482 ****       109.2500 232.5000 356.2500 Du        
   1483 ****       109.2500 232.5000 356.5000 Du        
   1484 ****       109.2500 232.5000 356.7500 Du        
   1485 ****       109.2500 232.5000 357.0000 Du        
   1486 ****       109.2500 232.5000 357.2500 Du        
   1487 ****       109.2500 232.5000 357.5000 Du        
   1488 ****       109.2500 232.5000 357.7500 Du        
   1489 ****       109.2500 232.5000 358.0000 Du        
   1490 ****       109.2500 232.7500 356.2500 Du        
   1491 ****       109.2500 232.7500 356.5000 Du        
   1492 ****       109.2500 232.7500 356.7500 Du        
   1493 ****       109.2500 232.7500 357.0000 Du        
   1494 ****       109.2500 232.7500 357.2500 Du        
   1495 ****       109.2500 232.7500 357.5000 Du        
   1496 ****       109.2500 232.7500 357.7500 Du        
   1497 ****       109.2500 232.7500 358.0000 Du        
   1498 ****       109.2500 232.7500 358.2500 Du        
   1499 ****       109.2500 233.0000 356.5000 Du        
   1500 ****       109.2500 233.0000 356.7500 Du        
   1501 ****       109.2500 233.0000 357.0000 Du        
   1502 ****       109.2500 233.0000 357.2500 Du        
   1503 ****       109.2500 233.0000 357.5000 Du        
   1504 ****       109.2500 233.0000 357.7500 Du        
   1505 ****       109.2500 233.0000 358.0000 Du        
   1506 ****       109.2500 233.0000 358.2500 Du        
   1507 ****       109.2500 233.2500 357.0000 Du        
   1508 ****       109.2500 233.2500 357.2500 Du        
   1509 ****       109.2500 233.2500 357.5000 Du        
   1510 ****       109.2500 233.2500 357.7500 Du        
   1511 ****       109.2500 233.2500 358.0000 Du        
   1512 ****       109.2500 234.7500 360.7500 Du        
   1513 ****       109.2500 235.0000 360.2500 Du        
   1514 ****       109.2500 235.0000 360.5000 Du        
   1515 ****       109.2500 235.0000 360.7500 Du        
   1516 ****       109.2500 235.0000 361.0000 Du        
   1517 ****       109.2500 235.2500 360.2500 Du        
   1518 ****       109.2500 235.2500 360.5000 Du        
   1519 ****       109.2500 235.2500 360.7500 Du        
   1520 ****       109.2500 235.2500 361.0000 Du        
   1521 ****       109.2500 235.5000 360.5000 Du        
   1522 ****       109.2500 235.7500 360.5000 Du        
   1523 ****       109.5000 229.7500 356.2500 Du        
   1524 ****       109.5000 230.0000 356.2500 Du        
   1525 ****       109.5000 230.0000 356.5000 Du        
   1526 ****       109.5000 230.0000 356.7500 Du        
   1527 ****       109.5000 230.2500 356.0000 Du        
   1528 ****       109.5000 230.2500 356.2500 Du        
   1529 ****       109.5000 230.2500 356.5000 Du        
   1530 ****       109.5000 230.2500 356.7500 Du        
   1531 ****       109.5000 230.5000 356.0000 Du        
   1532 ****       109.5000 230.5000 356.2500 Du        
   1533 ****       109.5000 230.5000 356.5000 Du        
   1534 ****       109.5000 230.5000 356.7500 Du        
   1535 ****       109.5000 230.7500 356.0000 Du        
   1536 ****       109.5000 230.7500 356.2500 Du        
   1537 ****       109.5000 230.7500 356.5000 Du        
   1538 ****       109.5000 230.7500 356.7500 Du        
   1539 ****       109.5000 230.7500 357.0000 Du        
   1540 ****       109.5000 230.7500 357.2500 Du        
   1541 ****       109.5000 231.0000 356.0000 Du        
   1542 ****       109.5000 231.0000 356.2500 Du        
   1543 ****       109.5000 231.0000 356.5000 Du        
   1544 ****       109.5000 231.0000 356.7500 Du        
   1545 ****       109.5000 231.0000 357.0000 Du        
   1546 ****       109.5000 231.0000 357.2500 Du        
   1547 ****       109.5000 231.2500 356.0000 Du        
   1548 ****       109.5000 231.2500 356.2500 Du        
   1549 ****       109.5000 231.2500 356.5000 Du        
   1550 ****       109.5000 231.2500 356.7500 Du        
   1551 ****       109.5000 231.2500 357.0000 Du        
   1552 ****       109.5000 231.2500 357.2500 Du        
   1553 ****       109.5000 231.2500 357.5000 Du        
   1554 ****       109.5000 231.5000 356.0000 Du        
   1555 ****       109.5000 231.5000 356.2500 Du        
   1556 ****       109.5000 231.5000 356.5000 Du        
   1557 ****       109.5000 231.5000 356.7500 Du        
   1558 ****       109.5000 231.5000 357.0000 Du        
   1559 ****       109.5000 231.5000 357.2500 Du        
   1560 ****       109.5000 231.5000 357.5000 Du        
   1561 ****       109.5000 231.5000 357.7500 Du        
   1562 ****       109.5000 231.5000 358.0000 Du        
   1563 ****       109.5000 231.7500 356.0000 Du        
   1564 ****       109.5000 231.7500 356.2500 Du        
   1565 ****       109.5000 231.7500 356.5000 Du        
   1566 ****       109.5000 231.7500 356.7500 Du        
   1567 ****       109.5000 231.7500 357.0000 Du        
   1568 ****       109.5000 231.7500 357.2500 Du        
   1569 ****       109.5000 231.7500 357.5000 Du        
   1570 ****       109.5000 231.7500 357.7500 Du        
   1571 ****       109.5000 231.7500 358.0000 Du        
   1572 ****       109.5000 232.0000 356.0000 Du        
   1573 ****       109.5000 232.0000 356.2500 Du        
   1574 ****       109.5000 232.0000 356.5000 Du        
   1575 ****       109.5000 232.0000 356.7500 Du        
   1576 ****       109.5000 232.0000 357.0000 Du        
   1577 ****       109.5000 232.0000 357.2500 Du        
   1578 ****       109.5000 232.0000 357.5000 Du        
   1579 ****       109.5000 232.0000 357.7500 Du        
   1580 ****       109.5000 232.0000 358.0000 Du        
   1581 ****       109.5000 232.0000 358.2500 Du        
   1582 ****       109.5000 232.2500 356.0000 Du        
   1583 ****       109.5000 232.2500 356.2500 Du        
   1584 ****       109.5000 232.2500 356.5000 Du        
   1585 ****       109.5000 232.2500 356.7500 Du        
   1586 ****       109.5000 232.2500 357.0000 Du        
   1587 ****       109.5000 232.2500 357.2500 Du        
   1588 ****       109.5000 232.2500 357.5000 Du        
   1589 ****       109.5000 232.2500 357.7500 Du        
   1590 ****       109.5000 232.2500 358.0000 Du        
   1591 ****       109.5000 232.2500 358.2500 Du        
   1592 ****       109.5000 232.5000 356.2500 Du        
   1593 ****       109.5000 232.5000 356.5000 Du        
   1594 ****       109.5000 232.5000 356.7500 Du        
   1595 ****       109.5000 232.5000 357.0000 Du        
   1596 ****       109.5000 232.5000 357.2500 Du        
   1597 ****       109.5000 232.5000 357.5000 Du        
   1598 ****       109.5000 232.5000 357.7500 Du        
   1599 ****       109.5000 232.5000 358.0000 Du        
   1600 ****       109.5000 232.5000 358.2500 Du        
   1601 ****       109.5000 232.5000 358.5000 Du        
   1602 ****       109.5000 232.7500 356.2500 Du        
   1603 ****       109.5000 232.7500 356.5000 Du        
   1604 ****       109.5000 232.7500 356.7500 Du        
   1605 ****       109.5000 232.7500 357.0000 Du        
   1606 ****       109.5000 232.7500 357.2500 Du        
   1607 ****       109.5000 232.7500 357.5000 Du        
   1608 ****       109.5000 232.7500 357.7500 Du        
   1609 ****       109.5000 232.7500 358.0000 Du        
   1610 ****       109.5000 232.7500 358.2500 Du        
   1611 ****       109.5000 232.7500 358.5000 Du        
   1612 ****       109.5000 233.0000 356.5000 Du        
   1613 ****       109.5000 233.0000 356.7500 Du        
   1614 ****       109.5000 233.0000 357.0000 Du        
   1615 ****       109.5000 233.0000 357.2500 Du        
   1616 ****       109.5000 233.0000 357.5000 Du        
   1617 ****       109.5000 233.0000 357.7500 Du        
   1618 ****       109.5000 233.0000 358.0000 Du        
   1619 ****       109.5000 233.0000 358.2500 Du        
   1620 ****       109.5000 233.0000 358.5000 Du        
   1621 ****       109.5000 233.2500 357.2500 Du        
   1622 ****       109.5000 234.7500 360.7500 Du        
   1623 ****       109.5000 235.0000 360.7500 Du        
   1624 ****       109.5000 235.0000 361.0000 Du        
   1625 ****       109.5000 235.2500 360.7500 Du        
   1626 ****       109.5000 235.2500 361.0000 Du        
   1627 ****       109.7500 230.7500 356.7500 Du        
   1628 ****       109.7500 231.0000 356.2500 Du        
   1629 ****       109.7500 231.0000 356.5000 Du        
   1630 ****       109.7500 231.0000 356.7500 Du        
   1631 ****       109.7500 231.0000 357.0000 Du        
   1632 ****       109.7500 231.0000 357.2500 Du        
   1633 ****       109.7500 231.2500 356.2500 Du        
   1634 ****       109.7500 231.2500 356.5000 Du        
   1635 ****       109.7500 231.2500 356.7500 Du        
   1636 ****       109.7500 231.2500 357.0000 Du        
   1637 ****       109.7500 231.2500 357.2500 Du        
   1638 ****       109.7500 231.5000 356.2500 Du        
   1639 ****       109.7500 231.5000 356.5000 Du        
   1640 ****       109.7500 231.5000 356.7500 Du        
   1641 ****       109.7500 231.5000 357.0000 Du        
   1642 ****       109.7500 231.5000 357.2500 Du        
   1643 ****       109.7500 231.5000 357.5000 Du        
   1644 ****       109.7500 231.5000 357.7500 Du        
   1645 ****       109.7500 231.7500 356.2500 Du        
   1646 ****       109.7500 231.7500 356.5000 Du        
   1647 ****       109.7500 231.7500 356.7500 Du        
   1648 ****       109.7500 231.7500 357.0000 Du        
   1649 ****       109.7500 231.7500 357.2500 Du        
   1650 ****       109.7500 231.7500 357.5000 Du        
   1651 ****       109.7500 231.7500 357.7500 Du        
   1652 ****       109.7500 231.7500 358.0000 Du        
   1653 ****       109.7500 231.7500 358.2500 Du        
   1654 ****       109.7500 232.0000 356.2500 Du        
   1655 ****       109.7500 232.0000 356.5000 Du        
   1656 ****       109.7500 232.0000 356.7500 Du        
   1657 ****       109.7500 232.0000 357.0000 Du        
   1658 ****       109.7500 232.0000 357.2500 Du        
   1659 ****       109.7500 232.0000 357.5000 Du        
   1660 ****       109.7500 232.0000 357.7500 Du        
   1661 ****       109.7500 232.0000 358.0000 Du        
   1662 ****       109.7500 232.0000 358.2500 Du        
   1663 ****       109.7500 232.2500 356.2500 Du        
   1664 ****       109.7500 232.2500 356.5000 Du        
   1665 ****       109.7500 232.2500 356.7500 Du        
   1666 ****       109.7500 232.2500 357.0000 Du        
   1667 ****       109.7500 232.2500 357.2500 Du        
   1668 ****       109.7500 232.2500 357.5000 Du        
   1669 ****       109.7500 232.2500 357.7500 Du        
   1670 ****       109.7500 232.2500 358.0000 Du        
   1671 ****       109.7500 232.2500 358.2500 Du        
   1672 ****       109.7500 232.5000 356.2500 Du        
   1673 ****       109.7500 232.5000 356.5000 Du        
   1674 ****       109.7500 232.5000 356.7500 Du        
   1675 ****       109.7500 232.5000 357.0000 Du        
   1676 ****       109.7500 232.5000 357.2500 Du        
   1677 ****       109.7500 232.5000 357.5000 Du        
   1678 ****       109.7500 232.5000 357.7500 Du        
   1679 ****       109.7500 232.5000 358.0000 Du        
   1680 ****       109.7500 232.5000 358.2500 Du        
   1681 ****       109.7500 232.5000 358.5000 Du        
   1682 ****       109.7500 232.5000 358.7500 Du        
   1683 ****       109.7500 232.7500 356.5000 Du        
   1684 ****       109.7500 232.7500 356.7500 Du        
   1685 ****       109.7500 232.7500 357.0000 Du        
   1686 ****       109.7500 232.7500 357.2500 Du        
   1687 ****       109.7500 232.7500 357.5000 Du        
   1688 ****       109.7500 232.7500 357.7500 Du        
   1689 ****       109.7500 232.7500 358.0000 Du        
   1690 ****       109.7500 232.7500 358.2500 Du        
   1691 ****       109.7500 232.7500 358.5000 Du        
   1692 ****       109.7500 232.7500 358.7500 Du        
   1693 ****       109.7500 233.0000 356.7500 Du        
   1694 ****       109.7500 233.0000 357.0000 Du        
   1695 ****       109.7500 233.0000 357.2500 Du        
   1696 ****       109.7500 233.0000 357.5000 Du        
   1697 ****       109.7500 233.0000 357.7500 Du        
   1698 ****       109.7500 233.0000 358.0000 Du        
   1699 ****       109.7500 233.0000 358.2500 Du        
   1700 ****       110.0000 231.2500 356.7500 Du        
   1701 ****       110.0000 231.2500 357.0000 Du        
   1702 ****       110.0000 231.5000 356.2500 Du        
   1703 ****       110.0000 231.5000 356.5000 Du        
   1704 ****       110.0000 231.5000 356.7500 Du        
   1705 ****       110.0000 231.5000 357.0000 Du        
   1706 ****       110.0000 231.5000 357.2500 Du        
   1707 ****       110.0000 231.5000 357.5000 Du        
   1708 ****       110.0000 231.7500 356.2500 Du        
   1709 ****       110.0000 231.7500 356.5000 Du        
   1710 ****       110.0000 231.7500 356.7500 Du        
   1711 ****       110.0000 231.7500 357.0000 Du        
   1712 ****       110.0000 231.7500 357.2500 Du        
   1713 ****       110.0000 231.7500 357.5000 Du        
   1714 ****       110.0000 231.7500 357.7500 Du        
   1715 ****       110.0000 231.7500 358.0000 Du        
   1716 ****       110.0000 232.0000 356.2500 Du        
   1717 ****       110.0000 232.0000 356.5000 Du        
   1718 ****       110.0000 232.0000 356.7500 Du        
   1719 ****       110.0000 232.0000 357.0000 Du        
   1720 ****       110.0000 232.0000 357.2500 Du        
   1721 ****       110.0000 232.0000 357.5000 Du        
   1722 ****       110.0000 232.0000 357.7500 Du        
   1723 ****       110.0000 232.0000 358.0000 Du        
   1724 ****       110.0000 232.0000 358.2500 Du        
   1725 ****       110.0000 232.2500 356.2500 Du        
   1726 ****       110.0000 232.2500 356.5000 Du        
   1727 ****       110.0000 232.2500 356.7500 Du        
   1728 ****       110.0000 232.2500 357.0000 Du        
   1729 ****       110.0000 232.2500 357.2500 Du        
   1730 ****       110.0000 232.2500 357.5000 Du        
   1731 ****       110.0000 232.2500 357.7500 Du        
   1732 ****       110.0000 232.2500 358.0000 Du        
   1733 ****       110.0000 232.2500 358.2500 Du        
   1734 ****       110.0000 232.5000 356.5000 Du        
   1735 ****       110.0000 232.5000 356.7500 Du        
   1736 ****       110.0000 232.5000 357.0000 Du        
   1737 ****       110.0000 232.5000 357.2500 Du        
   1738 ****       110.0000 232.5000 357.5000 Du        
   1739 ****       110.0000 232.5000 357.7500 Du        
   1740 ****       110.0000 232.5000 358.0000 Du        
   1741 ****       110.0000 232.5000 358.2500 Du        
   1742 ****       110.0000 232.5000 358.5000 Du        
   1743 ****       110.0000 232.7500 356.5000 Du        
   1744 ****       110.0000 232.7500 356.7500 Du        
   1745 ****       110.0000 232.7500 357.0000 Du        
   1746 ****       110.0000 232.7500 357.2500 Du        
   1747 ****       110.0000 232.7500 357.5000 Du        
   1748 ****       110.0000 232.7500 357.7500 Du        
   1749 ****       110.0000 232.7500 358.0000 Du        
   1750 ****       110.0000 232.7500 358.2500 Du        
   1751 ****       110.0000 233.0000 357.2500 Du        
   1752 ****       110.2500 231.5000 356.7500 Du        
   1753 ****       110.2500 231.5000 357.0000 Du        
   1754 ****       110.2500 231.7500 356.5000 Du        
   1755 ****       110.2500 231.7500 356.7500 Du        
   1756 ****       110.2500 231.7500 357.0000 Du        
   1757 ****       110.2500 231.7500 357.2500 Du        
   1758 ****       110.2500 231.7500 357.5000 Du        
   1759 ****       110.2500 232.0000 356.5000 Du        
   1760 ****       110.2500 232.0000 356.7500 Du        
   1761 ****       110.2500 232.0000 357.0000 Du        
   1762 ****       110.2500 232.0000 357.2500 Du        
   1763 ****       110.2500 232.0000 357.5000 Du        
   1764 ****       110.2500 232.0000 357.7500 Du        
   1765 ****       110.2500 232.0000 358.0000 Du        
   1766 ****       110.2500 232.0000 358.2500 Du        
   1767 ****       110.2500 232.2500 356.5000 Du        
   1768 ****       110.2500 232.2500 356.7500 Du        
   1769 ****       110.2500 232.2500 357.0000 Du        
   1770 ****       110.2500 232.2500 357.2500 Du        
   1771 ****       110.2500 232.2500 357.5000 Du        
   1772 ****       110.2500 232.2500 357.7500 Du        
   1773 ****       110.2500 232.2500 358.0000 Du        
   1774 ****       110.2500 232.2500 358.2500 Du        
   1775 ****       110.2500 232.5000 356.5000 Du        
   1776 ****       110.2500 232.5000 356.7500 Du        
   1777 ****       110.2500 232.5000 357.0000 Du        
   1778 ****       110.2500 232.5000 357.2500 Du        
   1779 ****       110.2500 232.5000 357.5000 Du        
   1780 ****       110.2500 232.5000 357.7500 Du        
   1781 ****       110.2500 232.5000 358.0000 Du        
   1782 ****       110.2500 232.5000 358.2500 Du        
   1783 ****       110.2500 232.7500 357.0000 Du        
   1784 ****       110.2500 232.7500 357.2500 Du        
   1785 ****       110.2500 232.7500 357.5000 Du        
   1786 ****       110.2500 232.7500 357.7500 Du        
   1787 ****       110.5000 231.5000 361.5000 Du        
   1788 ****       110.5000 231.5000 361.7500 Du        
   1789 ****       110.5000 231.7500 356.7500 Du        
   1790 ****       110.5000 231.7500 357.0000 Du        
   1791 ****       110.5000 231.7500 357.2500 Du        
   1792 ****       110.5000 231.7500 361.2500 Du        
   1793 ****       110.5000 232.0000 356.5000 Du        
   1794 ****       110.5000 232.0000 356.7500 Du        
   1795 ****       110.5000 232.0000 357.0000 Du        
   1796 ****       110.5000 232.0000 357.2500 Du        
   1797 ****       110.5000 232.0000 357.5000 Du        
   1798 ****       110.5000 232.0000 357.7500 Du        
   1799 ****       110.5000 232.2500 356.7500 Du        
   1800 ****       110.5000 232.2500 357.0000 Du        
   1801 ****       110.5000 232.2500 357.2500 Du        
   1802 ****       110.5000 232.2500 357.5000 Du        
   1803 ****       110.5000 232.2500 357.7500 Du        
   1804 ****       110.5000 232.2500 358.0000 Du        
   1805 ****       110.5000 232.5000 356.7500 Du        
   1806 ****       110.5000 232.5000 357.0000 Du        
   1807 ****       110.5000 232.5000 357.2500 Du        
   1808 ****       110.5000 232.5000 357.5000 Du        
   1809 ****       110.5000 232.5000 357.7500 Du        
   1810 ****       110.7500 230.2500 362.7500 Du        
   1811 ****       110.7500 230.5000 362.2500 Du        
   1812 ****       110.7500 230.5000 362.5000 Du        
   1813 ****       110.7500 230.5000 362.7500 Du        
   1814 ****       110.7500 230.7500 362.2500 Du        
   1815 ****       110.7500 230.7500 362.5000 Du        
   1816 ****       110.7500 230.7500 362.7500 Du        
   1817 ****       110.7500 231.0000 362.0000 Du        
   1818 ****       110.7500 231.0000 362.2500 Du        
   1819 ****       110.7500 231.0000 362.5000 Du        
   1820 ****       110.7500 231.0000 362.7500 Du        
   1821 ****       110.7500 231.2500 361.7500 Du        
   1822 ****       110.7500 231.2500 362.0000 Du        
   1823 ****       110.7500 231.2500 362.2500 Du        
   1824 ****       110.7500 231.2500 362.5000 Du        
   1825 ****       110.7500 231.2500 362.7500 Du        
   1826 ****       110.7500 231.5000 361.2500 Du        
   1827 ****       110.7500 231.5000 361.5000 Du        
   1828 ****       110.7500 231.5000 361.7500 Du        
   1829 ****       110.7500 231.5000 362.0000 Du        
   1830 ****       110.7500 231.5000 362.2500 Du        
   1831 ****       110.7500 231.5000 362.5000 Du        
   1832 ****       110.7500 231.5000 362.7500 Du        
   1833 ****       110.7500 231.7500 361.2500 Du        
   1834 ****       110.7500 231.7500 361.5000 Du        
   1835 ****       110.7500 231.7500 361.7500 Du        
   1836 ****       110.7500 231.7500 362.0000 Du        
   1837 ****       110.7500 232.0000 356.7500 Du        
   1838 ****       110.7500 232.0000 357.0000 Du        
   1839 ****       110.7500 232.0000 357.2500 Du        
   1840 ****       110.7500 232.2500 356.7500 Du        
   1841 ****       110.7500 232.2500 357.0000 Du        
   1842 ****       110.7500 232.2500 357.2500 Du        
   1843 ****       110.7500 232.2500 357.5000 Du        
   1844 ****       110.7500 232.2500 357.7500 Du        
   1845 ****       110.7500 232.5000 357.2500 Du        
   1846 ****       111.0000 229.7500 362.7500 Du        
   1847 ****       111.0000 230.0000 362.7500 Du        
   1848 ****       111.0000 230.2500 362.2500 Du        
   1849 ****       111.0000 230.2500 362.5000 Du        
   1850 ****       111.0000 230.2500 362.7500 Du        
   1851 ****       111.0000 230.5000 362.2500 Du        
   1852 ****       111.0000 230.5000 362.5000 Du        
   1853 ****       111.0000 230.5000 362.7500 Du        
   1854 ****       111.0000 230.7500 362.0000 Du        
   1855 ****       111.0000 230.7500 362.2500 Du        
   1856 ****       111.0000 230.7500 362.5000 Du        
   1857 ****       111.0000 230.7500 362.7500 Du        
   1858 ****       111.0000 231.0000 361.7500 Du        
   1859 ****       111.0000 231.0000 362.0000 Du        
   1860 ****       111.0000 231.0000 362.2500 Du        
   1861 ****       111.0000 231.0000 362.5000 Du        
   1862 ****       111.0000 231.0000 362.7500 Du        
   1863 ****       111.0000 231.2500 361.2500 Du        
   1864 ****       111.0000 231.2500 361.5000 Du        
   1865 ****       111.0000 231.2500 361.7500 Du        
   1866 ****       111.0000 231.2500 362.0000 Du        
   1867 ****       111.0000 231.2500 362.2500 Du        
   1868 ****       111.0000 231.2500 362.5000 Du        
   1869 ****       111.0000 231.2500 362.7500 Du        
   1870 ****       111.0000 231.5000 361.2500 Du        
   1871 ****       111.0000 231.5000 361.5000 Du        
   1872 ****       111.0000 231.5000 361.7500 Du        
   1873 ****       111.0000 231.5000 362.0000 Du        
   1874 ****       111.0000 231.5000 362.2500 Du        
   1875 ****       111.0000 231.5000 362.5000 Du        
   1876 ****       111.2500 229.5000 362.7500 Du        
   1877 ****       111.2500 229.7500 362.7500 Du        
   1878 ****       111.2500 230.0000 362.5000 Du        
   1879 ****       111.2500 230.0000 362.7500 Du        
   1880 ****       111.2500 230.2500 362.2500 Du        
   1881 ****       111.2500 230.2500 362.5000 Du        
   1882 ****       111.2500 230.2500 362.7500 Du        
   1883 ****       111.2500 230.5000 362.2500 Du        
   1884 ****       111.2500 230.5000 362.5000 Du        
   1885 ****       111.2500 230.5000 362.7500 Du        
   1886 ****       111.2500 230.7500 362.0000 Du        
   1887 ****       111.2500 230.7500 362.2500 Du        
   1888 ****       111.2500 230.7500 362.5000 Du        
   1889 ****       111.2500 230.7500 362.7500 Du        
   1890 ****       111.2500 231.0000 361.7500 Du        
   1891 ****       111.2500 231.0000 362.0000 Du        
   1892 ****       111.2500 231.0000 362.2500 Du        
   1893 ****       111.2500 231.0000 362.5000 Du        
   1894 ****       111.2500 231.0000 362.7500 Du        
   1895 ****       111.2500 231.2500 361.5000 Du        
   1896 ****       111.2500 231.2500 361.7500 Du        
   1897 ****       111.2500 231.2500 362.0000 Du        
   1898 ****       111.2500 231.2500 362.2500 Du        
   1899 ****       111.2500 231.2500 362.5000 Du        
   1900 ****       111.2500 231.2500 362.7500 Du        
   1901 ****       111.2500 231.5000 361.5000 Du        
   1902 ****       111.2500 231.5000 361.7500 Du        
   1903 ****       111.2500 231.5000 362.0000 Du        
   1904 ****       111.2500 231.5000 362.2500 Du        
   1905 ****       111.5000 229.5000 362.7500 Du        
   1906 ****       111.5000 229.7500 362.7500 Du        
   1907 ****       111.5000 230.0000 362.5000 Du        
   1908 ****       111.5000 230.0000 362.7500 Du        
   1909 ****       111.5000 230.2500 362.5000 Du        
   1910 ****       111.5000 230.2500 362.7500 Du        
   1911 ****       111.5000 230.5000 362.2500 Du        
   1912 ****       111.5000 230.5000 362.5000 Du        
   1913 ****       111.5000 230.5000 362.7500 Du        
   1914 ****       111.5000 230.7500 362.0000 Du        
   1915 ****       111.5000 230.7500 362.2500 Du        
   1916 ****       111.5000 230.7500 362.5000 Du        
   1917 ****       111.5000 230.7500 362.7500 Du        
   1918 ****       111.5000 231.0000 361.7500 Du        
   1919 ****       111.5000 231.0000 362.0000 Du        
   1920 ****       111.5000 231.0000 362.2500 Du        
   1921 ****       111.5000 231.0000 362.5000 Du        
   1922 ****       111.5000 231.0000 362.7500 Du        
   1923 ****       111.5000 231.2500 361.5000 Du        
   1924 ****       111.5000 231.2500 361.7500 Du        
   1925 ****       111.5000 231.2500 362.0000 Du        
   1926 ****       111.5000 231.2500 362.2500 Du        
   1927 ****       111.5000 231.2500 362.5000 Du        
   1928 ****       111.5000 231.2500 362.7500 Du        
   1929 ****       111.5000 231.5000 361.5000 Du        
   1930 ****       111.5000 231.5000 361.7500 Du        
   1931 ****       111.5000 231.5000 362.0000 Du        
   1932 ****       111.5000 231.5000 362.2500 Du        
   1933 ****       111.5000 231.5000 362.5000 Du        
   1934 ****       111.7500 229.7500 362.7500 Du        
   1935 ****       111.7500 230.0000 362.7500 Du        
   1936 ****       111.7500 230.2500 362.5000 Du        
   1937 ****       111.7500 230.2500 362.7500 Du        
   1938 ****       111.7500 230.5000 362.2500 Du        
   1939 ****       111.7500 230.5000 362.5000 Du        
   1940 ****       111.7500 230.5000 362.7500 Du        
   1941 ****       111.7500 230.7500 362.0000 Du        
   1942 ****       111.7500 230.7500 362.2500 Du        
   1943 ****       111.7500 230.7500 362.5000 Du        
   1944 ****       111.7500 230.7500 362.7500 Du        
   1945 ****       111.7500 231.0000 361.7500 Du        
   1946 ****       111.7500 231.0000 362.0000 Du        
   1947 ****       111.7500 231.0000 362.2500 Du        
   1948 ****       111.7500 231.0000 362.5000 Du        
   1949 ****       111.7500 231.0000 362.7500 Du        
   1950 ****       111.7500 231.2500 361.7500 Du        
   1951 ****       111.7500 231.2500 362.0000 Du        
   1952 ****       111.7500 231.2500 362.2500 Du        
   1953 ****       111.7500 231.2500 362.5000 Du        
   1954 ****       111.7500 231.2500 362.7500 Du        
   1955 ****       111.7500 231.5000 362.0000 Du        
   1956 ****       112.0000 230.0000 362.7500 Du        
   1957 ****       112.0000 230.2500 362.5000 Du        
   1958 ****       112.0000 230.2500 362.7500 Du        
   1959 ****       112.0000 230.5000 362.5000 Du        
   1960 ****       112.0000 230.5000 362.7500 Du        
   1961 ****       112.0000 230.7500 362.2500 Du        
   1962 ****       112.0000 230.7500 362.5000 Du        
   1963 ****       112.0000 230.7500 362.7500 Du        
   1964 ****       112.0000 231.0000 362.0000 Du        
   1965 ****       112.0000 231.0000 362.2500 Du        
   1966 ****       112.0000 231.0000 362.5000 Du        
   1967 ****       112.0000 231.0000 362.7500 Du        
   1968 ****       112.0000 231.2500 362.0000 Du        
   1969 ****       112.0000 231.2500 362.2500 Du        
   1970 ****       112.0000 231.2500 362.5000 Du        
   1971 ****       112.0000 231.2500 362.7500 Du        
   1972 ****       112.2500 230.2500 362.7500 Du        
   1973 ****       112.2500 230.5000 362.5000 Du        
   1974 ****       112.2500 230.5000 362.7500 Du        
   1975 ****       112.2500 230.7500 362.5000 Du        
   1976 ****       112.2500 230.7500 362.7500 Du        
   1977 ****       112.2500 231.0000 362.2500 Du        
   1978 ****       112.2500 231.0000 362.5000 Du        
   1979 ****       112.2500 231.0000 362.7500 Du        
   1980 ****       112.2500 231.2500 362.5000 Du        
   1981 ****       112.5000 230.5000 362.7500 Du        
   1982 ****       112.5000 230.7500 362.5000 Du        
   1983 ****       112.5000 230.7500 362.7500 Du        
   1984 ****       112.5000 231.0000 362.2500 Du        
   1985 ****       112.5000 231.0000 362.5000 Du        
   1986 ****       112.5000 231.0000 362.7500 Du        
   1987 ****       112.7500 230.7500 362.7500 Du        
   1988 ****       112.7500 231.0000 362.7500 Du        
   1989 ****       113.2500 224.0000 354.2500 Du        
   1990 ****       113.2500 224.0000 354.5000 Du        
   1991 ****       113.2500 224.0000 354.7500 Du        
   1992 ****       113.2500 224.0000 355.0000 Du        
   1993 ****       113.2500 224.0000 355.7500 Du        
   1994 ****       113.2500 224.0000 356.0000 Du        
   1995 ****       113.2500 224.0000 356.2500 Du        
   1996 ****       113.2500 224.2500 354.2500 Du        
   1997 ****       113.2500 224.2500 354.5000 Du        
   1998 ****       113.2500 224.2500 354.7500 Du        
   1999 ****       113.2500 224.2500 355.0000 Du        
   2000 ****       113.2500 224.2500 355.2500 Du        
   2001 ****       113.2500 224.2500 355.5000 Du        
   2002 ****       113.2500 224.2500 355.7500 Du        
   2003 ****       113.2500 224.2500 356.0000 Du        
   2004 ****       113.2500 224.2500 356.2500 Du        
   2005 ****       113.2500 224.5000 354.2500 Du        
   2006 ****       113.2500 224.5000 354.5000 Du        
   2007 ****       113.2500 224.5000 354.7500 Du        
   2008 ****       113.2500 224.5000 355.0000 Du        
   2009 ****       113.2500 224.5000 355.2500 Du        
   2010 ****       113.2500 224.5000 355.5000 Du        
   2011 ****       113.2500 224.5000 355.7500 Du        
   2012 ****       113.2500 224.5000 356.0000 Du        
   2013 ****       113.2500 224.5000 356.2500 Du        
   2014 ****       113.2500 224.5000 356.5000 Du        
   2015 ****       113.2500 224.7500 354.5000 Du        
   2016 ****       113.2500 224.7500 354.7500 Du        
   2017 ****       113.2500 224.7500 355.0000 Du        
   2018 ****       113.2500 224.7500 355.2500 Du        
   2019 ****       113.2500 224.7500 355.5000 Du        
   2020 ****       113.2500 224.7500 355.7500 Du        
   2021 ****       113.2500 224.7500 356.0000 Du        
   2022 ****       113.2500 224.7500 356.2500 Du        
   2023 ****       113.2500 224.7500 356.5000 Du        
   2024 ****       113.2500 224.7500 356.7500 Du        
   2025 ****       113.2500 225.0000 355.0000 Du        
   2026 ****       113.2500 225.0000 355.2500 Du        
   2027 ****       113.2500 225.0000 355.5000 Du        
   2028 ****       113.2500 225.0000 355.7500 Du        
   2029 ****       113.2500 225.0000 356.0000 Du        
   2030 ****       113.2500 225.0000 356.2500 Du        
   2031 ****       113.5000 224.0000 354.2500 Du        
   2032 ****       113.5000 224.0000 354.5000 Du        
   2033 ****       113.5000 224.0000 354.7500 Du        
   2034 ****       113.5000 224.0000 355.0000 Du        
   2035 ****       113.5000 224.0000 355.2500 Du        
   2036 ****       113.5000 224.0000 355.5000 Du        
   2037 ****       113.5000 224.0000 355.7500 Du        
   2038 ****       113.5000 224.0000 356.0000 Du        
   2039 ****       113.5000 224.2500 354.2500 Du        
   2040 ****       113.5000 224.2500 354.5000 Du        
   2041 ****       113.5000 224.2500 354.7500 Du        
   2042 ****       113.5000 224.2500 355.0000 Du        
   2043 ****       113.5000 224.2500 355.2500 Du        
   2044 ****       113.5000 224.2500 355.5000 Du        
   2045 ****       113.5000 224.2500 355.7500 Du        
   2046 ****       113.5000 224.2500 356.0000 Du        
   2047 ****       113.5000 224.2500 356.2500 Du        
   2048 ****       113.5000 224.2500 358.0000 Du        
   2049 ****       113.5000 224.5000 354.2500 Du        
   2050 ****       113.5000 224.5000 354.5000 Du        
   2051 ****       113.5000 224.5000 354.7500 Du        
   2052 ****       113.5000 224.5000 355.0000 Du        
   2053 ****       113.5000 224.5000 355.2500 Du        
   2054 ****       113.5000 224.5000 355.5000 Du        
   2055 ****       113.5000 224.5000 355.7500 Du        
   2056 ****       113.5000 224.5000 356.0000 Du        
   2057 ****       113.5000 224.5000 356.2500 Du        
   2058 ****       113.5000 224.5000 356.5000 Du        
   2059 ****       113.5000 224.5000 356.7500 Du        
   2060 ****       113.5000 224.5000 357.0000 Du        
   2061 ****       113.5000 224.7500 354.5000 Du        
   2062 ****       113.5000 224.7500 354.7500 Du        
   2063 ****       113.5000 224.7500 355.0000 Du        
   2064 ****       113.5000 224.7500 355.2500 Du        
   2065 ****       113.5000 224.7500 355.5000 Du        
   2066 ****       113.5000 224.7500 355.7500 Du        
   2067 ****       113.5000 224.7500 356.0000 Du        
   2068 ****       113.5000 224.7500 356.2500 Du        
   2069 ****       113.5000 224.7500 356.5000 Du        
   2070 ****       113.5000 224.7500 356.7500 Du        
   2071 ****       113.5000 225.0000 355.0000 Du        
   2072 ****       113.5000 225.0000 355.2500 Du        
   2073 ****       113.5000 225.0000 355.5000 Du        
   2074 ****       113.5000 225.0000 355.7500 Du        
   2075 ****       113.5000 225.0000 356.0000 Du        
   2076 ****       113.5000 225.0000 356.2500 Du        
   2077 ****       113.7500 224.0000 354.2500 Du        
   2078 ****       113.7500 224.0000 354.5000 Du        
   2079 ****       113.7500 224.0000 354.7500 Du        
   2080 ****       113.7500 224.0000 355.0000 Du        
   2081 ****       113.7500 224.0000 355.2500 Du        
   2082 ****       113.7500 224.0000 355.5000 Du        
   2083 ****       113.7500 224.0000 355.7500 Du        
   2084 ****       113.7500 224.0000 356.0000 Du        
   2085 ****       113.7500 224.0000 356.2500 Du        
   2086 ****       113.7500 224.0000 358.0000 Du        
   2087 ****       113.7500 224.2500 354.2500 Du        
   2088 ****       113.7500 224.2500 354.5000 Du        
   2089 ****       113.7500 224.2500 354.7500 Du        
   2090 ****       113.7500 224.2500 355.0000 Du        
   2091 ****       113.7500 224.2500 355.2500 Du        
   2092 ****       113.7500 224.2500 355.5000 Du        
   2093 ****       113.7500 224.2500 355.7500 Du        
   2094 ****       113.7500 224.2500 356.0000 Du        
   2095 ****       113.7500 224.2500 356.2500 Du        
   2096 ****       113.7500 224.2500 358.0000 Du        
   2097 ****       113.7500 224.5000 354.2500 Du        
   2098 ****       113.7500 224.5000 354.5000 Du        
   2099 ****       113.7500 224.5000 354.7500 Du        
   2100 ****       113.7500 224.5000 355.0000 Du        
   2101 ****       113.7500 224.5000 355.2500 Du        
   2102 ****       113.7500 224.5000 355.5000 Du        
   2103 ****       113.7500 224.5000 355.7500 Du        
   2104 ****       113.7500 224.5000 356.0000 Du        
   2105 ****       113.7500 224.5000 356.2500 Du        
   2106 ****       113.7500 224.5000 356.5000 Du        
   2107 ****       113.7500 224.5000 356.7500 Du        
   2108 ****       113.7500 224.7500 354.2500 Du        
   2109 ****       113.7500 224.7500 354.5000 Du        
   2110 ****       113.7500 224.7500 354.7500 Du        
   2111 ****       113.7500 224.7500 355.0000 Du        
   2112 ****       113.7500 224.7500 355.2500 Du        
   2113 ****       113.7500 224.7500 355.5000 Du        
   2114 ****       113.7500 224.7500 355.7500 Du        
   2115 ****       113.7500 224.7500 356.0000 Du        
   2116 ****       113.7500 224.7500 356.2500 Du        
   2117 ****       113.7500 224.7500 356.5000 Du        
   2118 ****       113.7500 225.0000 354.7500 Du        
   2119 ****       113.7500 225.0000 355.0000 Du        
   2120 ****       113.7500 225.0000 355.2500 Du        
   2121 ****       113.7500 225.0000 355.5000 Du        
   2122 ****       113.7500 225.0000 355.7500 Du        
   2123 ****       113.7500 225.0000 356.0000 Du        
   2124 ****       113.7500 225.0000 356.2500 Du        
   2125 ****       113.7500 225.2500 355.7500 Du        
   2126 ****       114.0000 224.0000 354.0000 Du        
   2127 ****       114.0000 224.0000 354.2500 Du        
   2128 ****       114.0000 224.0000 354.5000 Du        
   2129 ****       114.0000 224.0000 354.7500 Du        
   2130 ****       114.0000 224.0000 355.0000 Du        
   2131 ****       114.0000 224.0000 355.2500 Du        
   2132 ****       114.0000 224.0000 355.5000 Du        
   2133 ****       114.0000 224.0000 355.7500 Du        
   2134 ****       114.0000 224.0000 356.0000 Du        
   2135 ****       114.0000 224.0000 356.2500 Du        
   2136 ****       114.0000 224.0000 358.0000 Du        
   2137 ****       114.0000 224.2500 354.2500 Du        
   2138 ****       114.0000 224.2500 354.5000 Du        
   2139 ****       114.0000 224.2500 354.7500 Du        
   2140 ****       114.0000 224.2500 355.0000 Du        
   2141 ****       114.0000 224.2500 355.2500 Du        
   2142 ****       114.0000 224.2500 355.5000 Du        
   2143 ****       114.0000 224.2500 355.7500 Du        
   2144 ****       114.0000 224.2500 356.0000 Du        
   2145 ****       114.0000 224.2500 356.2500 Du        
   2146 ****       114.0000 224.2500 358.0000 Du        
   2147 ****       114.0000 224.5000 354.2500 Du        
   2148 ****       114.0000 224.5000 354.5000 Du        
   2149 ****       114.0000 224.5000 354.7500 Du        
   2150 ****       114.0000 224.5000 355.0000 Du        
   2151 ****       114.0000 224.5000 355.2500 Du        
   2152 ****       114.0000 224.5000 355.5000 Du        
   2153 ****       114.0000 224.5000 355.7500 Du        
   2154 ****       114.0000 224.5000 356.0000 Du        
   2155 ****       114.0000 224.5000 356.2500 Du        
   2156 ****       114.0000 224.5000 356.5000 Du        
   2157 ****       114.0000 224.5000 356.7500 Du        
   2158 ****       114.0000 224.7500 354.2500 Du        
   2159 ****       114.0000 224.7500 354.5000 Du        
   2160 ****       114.0000 224.7500 354.7500 Du        
   2161 ****       114.0000 224.7500 355.0000 Du        
   2162 ****       114.0000 224.7500 355.2500 Du        
   2163 ****       114.0000 224.7500 355.5000 Du        
   2164 ****       114.0000 224.7500 355.7500 Du        
   2165 ****       114.0000 224.7500 356.0000 Du        
   2166 ****       114.0000 224.7500 356.2500 Du        
   2167 ****       114.0000 224.7500 356.5000 Du        
   2168 ****       114.0000 225.0000 354.2500 Du        
   2169 ****       114.0000 225.0000 354.5000 Du        
   2170 ****       114.0000 225.0000 354.7500 Du        
   2171 ****       114.0000 225.0000 355.0000 Du        
   2172 ****       114.0000 225.0000 355.2500 Du        
   2173 ****       114.0000 225.0000 355.5000 Du        
   2174 ****       114.0000 225.0000 355.7500 Du        
   2175 ****       114.0000 225.0000 356.0000 Du        
   2176 ****       114.0000 225.0000 356.2500 Du        
   2177 ****       114.0000 225.2500 355.0000 Du        
   2178 ****       114.0000 225.2500 355.2500 Du        
   2179 ****       114.0000 225.2500 355.5000 Du        
   2180 ****       114.0000 225.2500 355.7500 Du        
   2181 ****       114.0000 225.2500 356.0000 Du        
   2182 ****       114.2500 224.0000 354.0000 Du        
   2183 ****       114.2500 224.0000 354.2500 Du        
   2184 ****       114.2500 224.0000 354.5000 Du        
   2185 ****       114.2500 224.0000 354.7500 Du        
   2186 ****       114.2500 224.0000 355.0000 Du        
   2187 ****       114.2500 224.0000 355.2500 Du        
   2188 ****       114.2500 224.0000 355.5000 Du        
   2189 ****       114.2500 224.0000 355.7500 Du        
   2190 ****       114.2500 224.0000 356.0000 Du        
   2191 ****       114.2500 224.2500 354.2500 Du        
   2192 ****       114.2500 224.2500 354.5000 Du        
   2193 ****       114.2500 224.2500 354.7500 Du        
   2194 ****       114.2500 224.2500 355.0000 Du        
   2195 ****       114.2500 224.2500 355.2500 Du        
   2196 ****       114.2500 224.2500 355.5000 Du        
   2197 ****       114.2500 224.2500 355.7500 Du        
   2198 ****       114.2500 224.2500 356.0000 Du        
   2199 ****       114.2500 224.2500 356.2500 Du        
   2200 ****       114.2500 224.5000 354.2500 Du        
   2201 ****       114.2500 224.5000 354.5000 Du        
   2202 ****       114.2500 224.5000 354.7500 Du        
   2203 ****       114.2500 224.5000 355.0000 Du        
   2204 ****       114.2500 224.5000 355.2500 Du        
   2205 ****       114.2500 224.5000 355.5000 Du        
   2206 ****       114.2500 224.5000 355.7500 Du        
   2207 ****       114.2500 224.5000 356.0000 Du        
   2208 ****       114.2500 224.5000 356.2500 Du        
   2209 ****       114.2500 224.7500 354.2500 Du        
   2210 ****       114.2500 224.7500 354.5000 Du        
   2211 ****       114.2500 224.7500 354.7500 Du        
   2212 ****       114.2500 224.7500 355.0000 Du        
   2213 ****       114.2500 224.7500 355.2500 Du        
   2214 ****       114.2500 224.7500 355.5000 Du        
   2215 ****       114.2500 224.7500 355.7500 Du        
   2216 ****       114.2500 224.7500 356.0000 Du        
   2217 ****       114.2500 224.7500 356.2500 Du        
   2218 ****       114.2500 224.7500 356.5000 Du        
   2219 ****       114.2500 225.0000 354.2500 Du        
   2220 ****       114.2500 225.0000 354.5000 Du        
   2221 ****       114.2500 225.0000 354.7500 Du        
   2222 ****       114.2500 225.0000 355.0000 Du        
   2223 ****       114.2500 225.0000 355.2500 Du        
   2224 ****       114.2500 225.0000 355.5000 Du        
   2225 ****       114.2500 225.0000 355.7500 Du        
   2226 ****       114.2500 225.0000 356.0000 Du        
   2227 ****       114.2500 225.0000 356.2500 Du        
   2228 ****       114.2500 225.2500 354.7500 Du        
   2229 ****       114.2500 225.2500 355.0000 Du        
   2230 ****       114.2500 225.2500 355.2500 Du        
   2231 ****       114.2500 225.2500 355.5000 Du        
   2232 ****       114.2500 225.2500 355.7500 Du        
   2233 ****       114.2500 225.2500 356.0000 Du        
   2234 ****       114.2500 225.5000 355.5000 Du        
   2235 ****       114.5000 224.0000 354.2500 Du        
   2236 ****       114.5000 224.0000 354.5000 Du        
   2237 ****       114.5000 224.0000 354.7500 Du        
   2238 ****       114.5000 224.0000 355.0000 Du        
   2239 ****       114.5000 224.0000 355.2500 Du        
   2240 ****       114.5000 224.0000 355.5000 Du        
   2241 ****       114.5000 224.0000 355.7500 Du        
   2242 ****       114.5000 224.2500 354.2500 Du        
   2243 ****       114.5000 224.2500 354.5000 Du        
   2244 ****       114.5000 224.2500 354.7500 Du        
   2245 ****       114.5000 224.2500 355.0000 Du        
   2246 ****       114.5000 224.2500 355.2500 Du        
   2247 ****       114.5000 224.2500 355.5000 Du        
   2248 ****       114.5000 224.2500 355.7500 Du        
   2249 ****       114.5000 224.2500 356.0000 Du        
   2250 ****       114.5000 224.5000 354.2500 Du        
   2251 ****       114.5000 224.5000 354.5000 Du        
   2252 ****       114.5000 224.5000 354.7500 Du        
   2253 ****       114.5000 224.5000 355.0000 Du        
   2254 ****       114.5000 224.5000 355.2500 Du        
   2255 ****       114.5000 224.5000 355.5000 Du        
   2256 ****       114.5000 224.5000 355.7500 Du        
   2257 ****       114.5000 224.5000 356.0000 Du        
   2258 ****       114.5000 224.7500 354.2500 Du        
   2259 ****       114.5000 224.7500 354.5000 Du        
   2260 ****       114.5000 224.7500 354.7500 Du        
   2261 ****       114.5000 224.7500 355.0000 Du        
   2262 ****       114.5000 224.7500 355.2500 Du        
   2263 ****       114.5000 224.7500 355.5000 Du        
   2264 ****       114.5000 224.7500 355.7500 Du        
   2265 ****       114.5000 224.7500 356.0000 Du        
   2266 ****       114.5000 224.7500 356.2500 Du        
   2267 ****       114.5000 225.0000 354.2500 Du        
   2268 ****       114.5000 225.0000 354.5000 Du        
   2269 ****       114.5000 225.0000 354.7500 Du        
   2270 ****       114.5000 225.0000 355.0000 Du        
   2271 ****       114.5000 225.0000 355.2500 Du        
   2272 ****       114.5000 225.0000 355.5000 Du        
   2273 ****       114.5000 225.0000 355.7500 Du        
   2274 ****       114.5000 225.0000 356.0000 Du        
   2275 ****       114.5000 225.0000 356.2500 Du        
   2276 ****       114.5000 225.2500 354.5000 Du        
   2277 ****       114.5000 225.2500 354.7500 Du        
   2278 ****       114.5000 225.2500 355.0000 Du        
   2279 ****       114.5000 225.2500 355.2500 Du        
   2280 ****       114.5000 225.2500 355.5000 Du        
   2281 ****       114.5000 225.2500 355.7500 Du        
   2282 ****       114.5000 225.2500 356.0000 Du        
   2283 ****       114.5000 225.5000 354.7500 Du        
   2284 ****       114.5000 225.5000 355.0000 Du        
   2285 ****       114.5000 225.5000 355.2500 Du        
   2286 ****       114.5000 225.5000 355.5000 Du        
   2287 ****       114.5000 225.5000 355.7500 Du        
   2288 ****       114.7500 224.0000 354.0000 Du        
   2289 ****       114.7500 224.0000 354.2500 Du        
   2290 ****       114.7500 224.0000 354.5000 Du        
   2291 ****       114.7500 224.0000 354.7500 Du        
   2292 ****       114.7500 224.0000 355.0000 Du        
   2293 ****       114.7500 224.0000 355.2500 Du        
   2294 ****       114.7500 224.2500 354.0000 Du        
   2295 ****       114.7500 224.2500 354.2500 Du        
   2296 ****       114.7500 224.2500 354.5000 Du        
   2297 ****       114.7500 224.2500 354.7500 Du        
   2298 ****       114.7500 224.2500 355.0000 Du        
   2299 ****       114.7500 224.2500 355.2500 Du        
   2300 ****       114.7500 224.2500 355.5000 Du        
   2301 ****       114.7500 224.5000 354.0000 Du        
   2302 ****       114.7500 224.5000 354.2500 Du        
   2303 ****       114.7500 224.5000 354.5000 Du        
   2304 ****       114.7500 224.5000 354.7500 Du        
   2305 ****       114.7500 224.5000 355.0000 Du        
   2306 ****       114.7500 224.5000 355.2500 Du        
   2307 ****       114.7500 224.5000 355.5000 Du        
   2308 ****       114.7500 224.5000 355.7500 Du        
   2309 ****       114.7500 224.7500 354.2500 Du        
   2310 ****       114.7500 224.7500 354.5000 Du        
   2311 ****       114.7500 224.7500 354.7500 Du        
   2312 ****       114.7500 224.7500 355.0000 Du        
   2313 ****       114.7500 224.7500 355.2500 Du        
   2314 ****       114.7500 224.7500 355.5000 Du        
   2315 ****       114.7500 224.7500 355.7500 Du        
   2316 ****       114.7500 224.7500 356.0000 Du        
   2317 ****       114.7500 225.0000 354.2500 Du        
   2318 ****       114.7500 225.0000 354.5000 Du        
   2319 ****       114.7500 225.0000 354.7500 Du        
   2320 ****       114.7500 225.0000 355.0000 Du        
   2321 ****       114.7500 225.0000 355.2500 Du        
   2322 ****       114.7500 225.0000 355.5000 Du        
   2323 ****       114.7500 225.0000 355.7500 Du        
   2324 ****       114.7500 225.0000 356.0000 Du        
   2325 ****       114.7500 225.0000 356.2500 Du        
   2326 ****       114.7500 225.2500 354.5000 Du        
   2327 ****       114.7500 225.2500 354.7500 Du        
   2328 ****       114.7500 225.2500 355.0000 Du        
   2329 ****       114.7500 225.2500 355.2500 Du        
   2330 ****       114.7500 225.2500 355.5000 Du        
   2331 ****       114.7500 225.2500 355.7500 Du        
   2332 ****       114.7500 225.2500 356.0000 Du        
   2333 ****       114.7500 225.5000 354.5000 Du        
   2334 ****       114.7500 225.5000 354.7500 Du        
   2335 ****       114.7500 225.5000 355.0000 Du        
   2336 ****       114.7500 225.5000 355.2500 Du        
   2337 ****       114.7500 225.5000 355.5000 Du        
   2338 ****       114.7500 225.5000 355.7500 Du        
   2339 ****       114.7500 225.7500 354.7500 Du        
   2340 ****       114.7500 225.7500 355.0000 Du        
   2341 ****       114.7500 225.7500 355.2500 Du        
   2342 ****       114.7500 225.7500 355.5000 Du        
   2343 ****       114.7500 225.7500 355.7500 Du        
   2344 ****       114.7500 226.0000 355.2500 Du        
   2345 ****       115.0000 224.0000 353.7500 Du        
   2346 ****       115.0000 224.0000 354.0000 Du        
   2347 ****       115.0000 224.0000 354.2500 Du        
   2348 ****       115.0000 224.0000 354.5000 Du        
   2349 ****       115.0000 224.0000 354.7500 Du        
   2350 ****       115.0000 224.0000 355.0000 Du        
   2351 ****       115.0000 224.0000 355.2500 Du        
   2352 ****       115.0000 224.2500 354.0000 Du        
   2353 ****       115.0000 224.2500 354.2500 Du        
   2354 ****       115.0000 224.2500 354.5000 Du        
   2355 ****       115.0000 224.2500 354.7500 Du        
   2356 ****       115.0000 224.2500 355.0000 Du        
   2357 ****       115.0000 224.2500 355.2500 Du        
   2358 ****       115.0000 224.5000 354.0000 Du        
   2359 ****       115.0000 224.5000 354.2500 Du        
   2360 ****       115.0000 224.5000 354.5000 Du        
   2361 ****       115.0000 224.5000 354.7500 Du        
   2362 ****       115.0000 224.5000 355.0000 Du        
   2363 ****       115.0000 224.5000 355.2500 Du        
   2364 ****       115.0000 224.5000 355.5000 Du        
   2365 ****       115.0000 224.7500 354.0000 Du        
   2366 ****       115.0000 224.7500 354.2500 Du        
   2367 ****       115.0000 224.7500 354.5000 Du        
   2368 ****       115.0000 224.7500 354.7500 Du        
   2369 ****       115.0000 224.7500 355.0000 Du        
   2370 ****       115.0000 224.7500 355.2500 Du        
   2371 ****       115.0000 224.7500 355.5000 Du        
   2372 ****       115.0000 224.7500 355.7500 Du        
   2373 ****       115.0000 225.0000 354.2500 Du        
   2374 ****       115.0000 225.0000 354.5000 Du        
   2375 ****       115.0000 225.0000 354.7500 Du        
   2376 ****       115.0000 225.0000 355.0000 Du        
   2377 ****       115.0000 225.0000 355.2500 Du        
   2378 ****       115.0000 225.0000 355.5000 Du        
   2379 ****       115.0000 225.0000 355.7500 Du        
   2380 ****       115.0000 225.0000 356.0000 Du        
   2381 ****       115.0000 225.2500 354.2500 Du        
   2382 ****       115.0000 225.2500 354.5000 Du        
   2383 ****       115.0000 225.2500 354.7500 Du        
   2384 ****       115.0000 225.2500 355.0000 Du        
   2385 ****       115.0000 225.2500 355.2500 Du        
   2386 ****       115.0000 225.2500 355.5000 Du        
   2387 ****       115.0000 225.2500 355.7500 Du        
   2388 ****       115.0000 225.2500 356.0000 Du        
   2389 ****       115.0000 225.5000 354.5000 Du        
   2390 ****       115.0000 225.5000 354.7500 Du        
   2391 ****       115.0000 225.5000 355.0000 Du        
   2392 ****       115.0000 225.5000 355.2500 Du        
   2393 ****       115.0000 225.5000 355.5000 Du        
   2394 ****       115.0000 225.5000 355.7500 Du        
   2395 ****       115.0000 225.5000 356.0000 Du        
   2396 ****       115.0000 225.7500 354.5000 Du        
   2397 ****       115.0000 225.7500 354.7500 Du        
   2398 ****       115.0000 225.7500 355.0000 Du        
   2399 ****       115.0000 225.7500 355.2500 Du        
   2400 ****       115.0000 225.7500 355.5000 Du        
   2401 ****       115.0000 225.7500 355.7500 Du        
   2402 ****       115.0000 226.0000 354.7500 Du        
   2403 ****       115.0000 226.0000 355.0000 Du        
   2404 ****       115.0000 226.0000 355.2500 Du        
   2405 ****       115.0000 226.0000 355.5000 Du        
   2406 ****       115.0000 226.0000 355.7500 Du        
   2407 ****       115.0000 226.2500 355.0000 Du        
   2408 ****       115.0000 226.2500 355.2500 Du        
   2409 ****       115.2500 224.0000 353.7500 Du        
   2410 ****       115.2500 224.0000 354.0000 Du        
   2411 ****       115.2500 224.0000 354.2500 Du        
   2412 ****       115.2500 224.0000 354.5000 Du        
   2413 ****       115.2500 224.0000 354.7500 Du        
   2414 ****       115.2500 224.0000 355.0000 Du        
   2415 ****       115.2500 224.2500 353.7500 Du        
   2416 ****       115.2500 224.2500 354.0000 Du        
   2417 ****       115.2500 224.2500 354.2500 Du        
   2418 ****       115.2500 224.2500 354.5000 Du        
   2419 ****       115.2500 224.2500 354.7500 Du        
   2420 ****       115.2500 224.2500 355.0000 Du        
   2421 ****       115.2500 224.2500 355.2500 Du        
   2422 ****       115.2500 224.5000 354.0000 Du        
   2423 ****       115.2500 224.5000 354.2500 Du        
   2424 ****       115.2500 224.5000 354.5000 Du        
   2425 ****       115.2500 224.5000 354.7500 Du        
   2426 ****       115.2500 224.5000 355.0000 Du        
   2427 ****       115.2500 224.5000 355.2500 Du        
   2428 ****       115.2500 224.7500 354.0000 Du        
   2429 ****       115.2500 224.7500 354.2500 Du        
   2430 ****       115.2500 224.7500 354.5000 Du        
   2431 ****       115.2500 224.7500 354.7500 Du        
   2432 ****       115.2500 224.7500 355.0000 Du        
   2433 ****       115.2500 224.7500 355.2500 Du        
   2434 ****       115.2500 224.7500 355.5000 Du        
   2435 ****       115.2500 225.0000 354.2500 Du        
   2436 ****       115.2500 225.0000 354.5000 Du        
   2437 ****       115.2500 225.0000 354.7500 Du        
   2438 ****       115.2500 225.0000 355.0000 Du        
   2439 ****       115.2500 225.0000 355.2500 Du        
   2440 ****       115.2500 225.0000 355.5000 Du        
   2441 ****       115.2500 225.0000 355.7500 Du        
   2442 ****       115.2500 225.2500 354.2500 Du        
   2443 ****       115.2500 225.2500 354.5000 Du        
   2444 ****       115.2500 225.2500 354.7500 Du        
   2445 ****       115.2500 225.2500 355.0000 Du        
   2446 ****       115.2500 225.2500 355.2500 Du        
   2447 ****       115.2500 225.2500 355.5000 Du        
   2448 ****       115.2500 225.2500 355.7500 Du        
   2449 ****       115.2500 225.5000 354.2500 Du        
   2450 ****       115.2500 225.5000 354.5000 Du        
   2451 ****       115.2500 225.5000 354.7500 Du        
   2452 ****       115.2500 225.5000 355.0000 Du        
   2453 ****       115.2500 225.5000 355.2500 Du        
   2454 ****       115.2500 225.5000 355.5000 Du        
   2455 ****       115.2500 225.5000 355.7500 Du        
   2456 ****       115.2500 225.7500 354.5000 Du        
   2457 ****       115.2500 225.7500 354.7500 Du        
   2458 ****       115.2500 225.7500 355.0000 Du        
   2459 ****       115.2500 225.7500 355.2500 Du        
   2460 ****       115.2500 225.7500 355.5000 Du        
   2461 ****       115.2500 225.7500 355.7500 Du        
   2462 ****       115.2500 226.0000 354.5000 Du        
   2463 ****       115.2500 226.0000 354.7500 Du        
   2464 ****       115.2500 226.0000 355.0000 Du        
   2465 ****       115.2500 226.0000 355.2500 Du        
   2466 ****       115.2500 226.0000 355.5000 Du        
   2467 ****       115.2500 226.0000 355.7500 Du        
   2468 ****       115.2500 226.2500 354.7500 Du        
   2469 ****       115.2500 226.2500 355.0000 Du        
   2470 ****       115.2500 226.2500 355.2500 Du        
   2471 ****       115.2500 226.2500 355.5000 Du        
   2472 ****       115.2500 226.5000 355.0000 Du        
   2473 ****       115.2500 226.5000 355.2500 Du        
   2474 ****       115.2500 226.5000 355.5000 Du        
   2475 ****       115.2500 226.7500 355.2500 Du        
   2476 ****       115.5000 224.0000 353.7500 Du        
   2477 ****       115.5000 224.0000 354.0000 Du        
   2478 ****       115.5000 224.0000 354.2500 Du        
   2479 ****       115.5000 224.0000 354.5000 Du        
   2480 ****       115.5000 224.0000 354.7500 Du        
   2481 ****       115.5000 224.0000 355.0000 Du        
   2482 ****       115.5000 224.2500 353.7500 Du        
   2483 ****       115.5000 224.2500 354.0000 Du        
   2484 ****       115.5000 224.2500 354.2500 Du        
   2485 ****       115.5000 224.2500 354.5000 Du        
   2486 ****       115.5000 224.2500 354.7500 Du        
   2487 ****       115.5000 224.2500 355.0000 Du        
   2488 ****       115.5000 224.5000 353.7500 Du        
   2489 ****       115.5000 224.5000 354.0000 Du        
   2490 ****       115.5000 224.5000 354.2500 Du        
   2491 ****       115.5000 224.5000 354.5000 Du        
   2492 ****       115.5000 224.5000 354.7500 Du        
   2493 ****       115.5000 224.5000 355.0000 Du        
   2494 ****       115.5000 224.5000 355.2500 Du        
   2495 ****       115.5000 224.7500 354.0000 Du        
   2496 ****       115.5000 224.7500 354.2500 Du        
   2497 ****       115.5000 224.7500 354.5000 Du        
   2498 ****       115.5000 224.7500 354.7500 Du        
   2499 ****       115.5000 224.7500 355.0000 Du        
   2500 ****       115.5000 224.7500 355.2500 Du        
   2501 ****       115.5000 225.0000 354.0000 Du        
   2502 ****       115.5000 225.0000 354.2500 Du        
   2503 ****       115.5000 225.0000 354.5000 Du        
   2504 ****       115.5000 225.0000 354.7500 Du        
   2505 ****       115.5000 225.0000 355.0000 Du        
   2506 ****       115.5000 225.0000 355.2500 Du        
   2507 ****       115.5000 225.0000 355.5000 Du        
   2508 ****       115.5000 225.2500 354.2500 Du        
   2509 ****       115.5000 225.2500 354.5000 Du        
   2510 ****       115.5000 225.2500 354.7500 Du        
   2511 ****       115.5000 225.2500 355.0000 Du        
   2512 ****       115.5000 225.2500 355.2500 Du        
   2513 ****       115.5000 225.2500 355.5000 Du        
   2514 ****       115.5000 225.5000 354.2500 Du        
   2515 ****       115.5000 225.5000 354.5000 Du        
   2516 ****       115.5000 225.5000 354.7500 Du        
   2517 ****       115.5000 225.5000 355.0000 Du        
   2518 ****       115.5000 225.5000 355.2500 Du        
   2519 ****       115.5000 225.5000 355.5000 Du        
   2520 ****       115.5000 225.7500 354.2500 Du        
   2521 ****       115.5000 225.7500 354.5000 Du        
   2522 ****       115.5000 225.7500 354.7500 Du        
   2523 ****       115.5000 225.7500 355.0000 Du        
   2524 ****       115.5000 225.7500 355.2500 Du        
   2525 ****       115.5000 225.7500 355.5000 Du        
   2526 ****       115.5000 225.7500 355.7500 Du        
   2527 ****       115.5000 226.0000 354.5000 Du        
   2528 ****       115.5000 226.0000 354.7500 Du        
   2529 ****       115.5000 226.0000 355.0000 Du        
   2530 ****       115.5000 226.0000 355.2500 Du        
   2531 ****       115.5000 226.0000 355.5000 Du        
   2532 ****       115.5000 226.0000 355.7500 Du        
   2533 ****       115.5000 226.2500 354.5000 Du        
   2534 ****       115.5000 226.2500 354.7500 Du        
   2535 ****       115.5000 226.2500 355.0000 Du        
   2536 ****       115.5000 226.2500 355.2500 Du        
   2537 ****       115.5000 226.2500 355.5000 Du        
   2538 ****       115.5000 226.5000 354.7500 Du        
   2539 ****       115.5000 226.5000 355.0000 Du        
   2540 ****       115.5000 226.5000 355.2500 Du        
   2541 ****       115.5000 226.5000 355.5000 Du        
   2542 ****       115.5000 226.7500 354.7500 Du        
   2543 ****       115.5000 226.7500 355.0000 Du        
   2544 ****       115.5000 226.7500 355.2500 Du        
   2545 ****       115.5000 226.7500 355.5000 Du        
   2546 ****       115.5000 227.0000 355.2500 Du        
   2547 ****       115.7500 224.0000 353.2500 Du        
   2548 ****       115.7500 224.0000 353.5000 Du        
   2549 ****       115.7500 224.0000 353.7500 Du        
   2550 ****       115.7500 224.0000 354.0000 Du        
   2551 ****       115.7500 224.0000 354.2500 Du        
   2552 ****       115.7500 224.0000 354.5000 Du        
   2553 ****       115.7500 224.0000 354.7500 Du        
   2554 ****       115.7500 224.2500 353.5000 Du        
   2555 ****       115.7500 224.2500 353.7500 Du        
   2556 ****       115.7500 224.2500 354.0000 Du        
   2557 ****       115.7500 224.2500 354.2500 Du        
   2558 ****       115.7500 224.2500 354.5000 Du        
   2559 ****       115.7500 224.2500 354.7500 Du        
   2560 ****       115.7500 224.5000 353.7500 Du        
   2561 ****       115.7500 224.5000 354.0000 Du        
   2562 ****       115.7500 224.5000 354.2500 Du        
   2563 ****       115.7500 224.5000 354.5000 Du        
   2564 ****       115.7500 224.5000 354.7500 Du        
   2565 ****       115.7500 224.5000 355.0000 Du        
   2566 ****       115.7500 224.7500 353.7500 Du        
   2567 ****       115.7500 224.7500 354.0000 Du        
   2568 ****       115.7500 224.7500 354.2500 Du        
   2569 ****       115.7500 224.7500 354.5000 Du        
   2570 ****       115.7500 224.7500 354.7500 Du        
   2571 ****       115.7500 224.7500 355.0000 Du        
   2572 ****       115.7500 225.0000 354.0000 Du        
   2573 ****       115.7500 225.0000 354.2500 Du        
   2574 ****       115.7500 225.0000 354.5000 Du        
   2575 ****       115.7500 225.0000 354.7500 Du        
   2576 ****       115.7500 225.0000 355.0000 Du        
   2577 ****       115.7500 225.0000 355.2500 Du        
   2578 ****       115.7500 225.2500 354.0000 Du        
   2579 ****       115.7500 225.2500 354.2500 Du        
   2580 ****       115.7500 225.2500 354.5000 Du        
   2581 ****       115.7500 225.2500 354.7500 Du        
   2582 ****       115.7500 225.2500 355.0000 Du        
   2583 ****       115.7500 225.2500 355.2500 Du        
   2584 ****       115.7500 225.5000 354.2500 Du        
   2585 ****       115.7500 225.5000 354.5000 Du        
   2586 ****       115.7500 225.5000 354.7500 Du        
   2587 ****       115.7500 225.5000 355.0000 Du        
   2588 ****       115.7500 225.5000 355.2500 Du        
   2589 ****       115.7500 225.7500 354.2500 Du        
   2590 ****       115.7500 225.7500 354.5000 Du        
   2591 ****       115.7500 225.7500 354.7500 Du        
   2592 ****       115.7500 225.7500 355.0000 Du        
   2593 ****       115.7500 225.7500 355.2500 Du        
   2594 ****       115.7500 225.7500 355.5000 Du        
   2595 ****       115.7500 226.0000 354.2500 Du        
   2596 ****       115.7500 226.0000 354.5000 Du        
   2597 ****       115.7500 226.0000 354.7500 Du        
   2598 ****       115.7500 226.0000 355.0000 Du        
   2599 ****       115.7500 226.0000 355.2500 Du        
   2600 ****       115.7500 226.0000 355.5000 Du        
   2601 ****       115.7500 226.2500 354.2500 Du        
   2602 ****       115.7500 226.2500 354.5000 Du        
   2603 ****       115.7500 226.2500 354.7500 Du        
   2604 ****       115.7500 226.2500 355.0000 Du        
   2605 ****       115.7500 226.2500 355.2500 Du        
   2606 ****       115.7500 226.2500 355.5000 Du        
   2607 ****       115.7500 226.5000 354.5000 Du        
   2608 ****       115.7500 226.5000 354.7500 Du        
   2609 ****       115.7500 226.5000 355.0000 Du        
   2610 ****       115.7500 226.5000 355.2500 Du        
   2611 ****       115.7500 226.5000 355.5000 Du        
   2612 ****       115.7500 226.7500 354.7500 Du        
   2613 ****       115.7500 226.7500 355.0000 Du        
   2614 ****       115.7500 226.7500 355.2500 Du        
   2615 ****       115.7500 226.7500 355.5000 Du        
   2616 ****       115.7500 227.0000 355.0000 Du        
   2617 ****       115.7500 227.0000 355.2500 Du        
   2618 ****       116.0000 224.0000 353.2500 Du        
   2619 ****       116.0000 224.0000 353.5000 Du        
   2620 ****       116.0000 224.0000 353.7500 Du        
   2621 ****       116.0000 224.0000 354.0000 Du        
   2622 ****       116.0000 224.0000 354.2500 Du        
   2623 ****       116.0000 224.0000 354.5000 Du        
   2624 ****       116.0000 224.0000 354.7500 Du        
   2625 ****       116.0000 224.2500 353.5000 Du        
   2626 ****       116.0000 224.2500 353.7500 Du        
   2627 ****       116.0000 224.2500 354.0000 Du        
   2628 ****       116.0000 224.2500 354.2500 Du        
   2629 ****       116.0000 224.2500 354.5000 Du        
   2630 ****       116.0000 224.2500 354.7500 Du        
   2631 ****       116.0000 224.5000 353.5000 Du        
   2632 ****       116.0000 224.5000 353.7500 Du        
   2633 ****       116.0000 224.5000 354.0000 Du        
   2634 ****       116.0000 224.5000 354.2500 Du        
   2635 ****       116.0000 224.5000 354.5000 Du        
   2636 ****       116.0000 224.5000 354.7500 Du        
   2637 ****       116.0000 224.7500 353.7500 Du        
   2638 ****       116.0000 224.7500 354.0000 Du        
   2639 ****       116.0000 224.7500 354.2500 Du        
   2640 ****       116.0000 224.7500 354.5000 Du        
   2641 ****       116.0000 224.7500 354.7500 Du        
   2642 ****       116.0000 224.7500 355.0000 Du        
   2643 ****       116.0000 225.0000 353.7500 Du        
   2644 ****       116.0000 225.0000 354.0000 Du        
   2645 ****       116.0000 225.0000 354.2500 Du        
   2646 ****       116.0000 225.0000 354.5000 Du        
   2647 ****       116.0000 225.0000 354.7500 Du        
   2648 ****       116.0000 225.0000 355.0000 Du        
   2649 ****       116.0000 225.2500 354.0000 Du        
   2650 ****       116.0000 225.2500 354.2500 Du        
   2651 ****       116.0000 225.2500 354.5000 Du        
   2652 ****       116.0000 225.2500 354.7500 Du        
   2653 ****       116.0000 225.2500 355.0000 Du        
   2654 ****       116.0000 225.5000 354.0000 Du        
   2655 ****       116.0000 225.5000 354.2500 Du        
   2656 ****       116.0000 225.5000 354.5000 Du        
   2657 ****       116.0000 225.5000 354.7500 Du        
   2658 ****       116.0000 225.5000 355.0000 Du        
   2659 ****       116.0000 225.7500 354.0000 Du        
   2660 ****       116.0000 225.7500 354.2500 Du        
   2661 ****       116.0000 225.7500 354.5000 Du        
   2662 ****       116.0000 225.7500 354.7500 Du        
   2663 ****       116.0000 225.7500 355.0000 Du        
   2664 ****       116.0000 226.0000 354.2500 Du        
   2665 ****       116.0000 226.0000 354.5000 Du        
   2666 ****       116.0000 226.0000 354.7500 Du        
   2667 ****       116.0000 226.0000 355.0000 Du        
   2668 ****       116.0000 226.0000 355.2500 Du        
   2669 ****       116.0000 226.2500 354.2500 Du        
   2670 ****       116.0000 226.2500 354.5000 Du        
   2671 ****       116.0000 226.2500 354.7500 Du        
   2672 ****       116.0000 226.2500 355.0000 Du        
   2673 ****       116.0000 226.2500 355.2500 Du        
   2674 ****       116.0000 226.5000 354.2500 Du        
   2675 ****       116.0000 226.5000 354.5000 Du        
   2676 ****       116.0000 226.5000 354.7500 Du        
   2677 ****       116.0000 226.5000 355.0000 Du        
   2678 ****       116.0000 226.5000 355.2500 Du        
   2679 ****       116.0000 226.7500 354.5000 Du        
   2680 ****       116.0000 226.7500 354.7500 Du        
   2681 ****       116.0000 226.7500 355.0000 Du        
   2682 ****       116.0000 226.7500 355.2500 Du        
   2683 ****       116.0000 227.0000 354.7500 Du        
   2684 ****       116.0000 227.0000 355.0000 Du        
   2685 ****       116.0000 227.0000 355.2500 Du        
   2686 ****       116.0000 227.2500 355.0000 Du        
   2687 ****       116.2500 224.0000 353.2500 Du        
   2688 ****       116.2500 224.0000 353.5000 Du        
   2689 ****       116.2500 224.0000 353.7500 Du        
   2690 ****       116.2500 224.0000 354.0000 Du        
   2691 ****       116.2500 224.0000 354.2500 Du        
   2692 ****       116.2500 224.0000 354.5000 Du        
   2693 ****       116.2500 224.2500 353.2500 Du        
   2694 ****       116.2500 224.2500 353.5000 Du        
   2695 ****       116.2500 224.2500 353.7500 Du        
   2696 ****       116.2500 224.2500 354.0000 Du        
   2697 ****       116.2500 224.2500 354.2500 Du        
   2698 ****       116.2500 224.2500 354.5000 Du        
   2699 ****       116.2500 224.5000 353.5000 Du        
   2700 ****       116.2500 224.5000 353.7500 Du        
   2701 ****       116.2500 224.5000 354.0000 Du        
   2702 ****       116.2500 224.5000 354.2500 Du        
   2703 ****       116.2500 224.5000 354.5000 Du        
   2704 ****       116.2500 224.7500 353.5000 Du        
   2705 ****       116.2500 224.7500 353.7500 Du        
   2706 ****       116.2500 224.7500 354.0000 Du        
   2707 ****       116.2500 224.7500 354.2500 Du        
   2708 ****       116.2500 224.7500 354.5000 Du        
   2709 ****       116.2500 225.0000 353.7500 Du        
   2710 ****       116.2500 225.0000 354.0000 Du        
   2711 ****       116.2500 225.0000 354.2500 Du        
   2712 ****       116.2500 225.0000 354.5000 Du        
   2713 ****       116.2500 225.2500 353.7500 Du        
   2714 ****       116.2500 225.2500 354.0000 Du        
   2715 ****       116.2500 225.2500 354.2500 Du        
   2716 ****       116.2500 225.2500 354.5000 Du        
   2717 ****       116.2500 225.5000 354.0000 Du        
   2718 ****       116.2500 225.5000 354.2500 Du        
   2719 ****       116.2500 225.5000 354.5000 Du        
   2720 ****       116.2500 225.7500 354.0000 Du        
   2721 ****       116.2500 225.7500 354.2500 Du        
   2722 ****       116.2500 225.7500 354.5000 Du        
   2723 ****       116.2500 225.7500 354.7500 Du        
   2724 ****       116.2500 226.0000 354.0000 Du        
   2725 ****       116.2500 226.0000 354.2500 Du        
   2726 ****       116.2500 226.0000 354.5000 Du        
   2727 ****       116.2500 226.0000 354.7500 Du        
   2728 ****       116.2500 226.2500 354.0000 Du        
   2729 ****       116.2500 226.2500 354.2500 Du        
   2730 ****       116.2500 226.2500 354.5000 Du        
   2731 ****       116.2500 226.2500 354.7500 Du        
   2732 ****       116.2500 226.2500 355.0000 Du        
   2733 ****       116.2500 226.5000 354.2500 Du        
   2734 ****       116.2500 226.5000 354.5000 Du        
   2735 ****       116.2500 226.5000 354.7500 Du        
   2736 ****       116.2500 226.5000 355.0000 Du        
   2737 ****       116.2500 226.7500 354.2500 Du        
   2738 ****       116.2500 226.7500 354.5000 Du        
   2739 ****       116.2500 226.7500 354.7500 Du        
   2740 ****       116.2500 226.7500 355.0000 Du        
   2741 ****       116.2500 227.0000 354.5000 Du        
   2742 ****       116.2500 227.0000 354.7500 Du        
   2743 ****       116.2500 227.0000 355.0000 Du        
   2744 ****       116.5000 224.2500 353.7500 Du        
   2745 ****       116.5000 224.2500 354.0000 Du        
   2746 ****       116.5000 224.2500 354.2500 Du        
   2747 ****       116.5000 224.5000 353.5000 Du        
   2748 ****       116.5000 224.5000 353.7500 Du        
   2749 ****       116.5000 224.5000 354.0000 Du        
   2750 ****       116.5000 224.5000 354.2500 Du        
   2751 ****       116.5000 224.7500 353.5000 Du        
   2752 ****       116.5000 224.7500 353.7500 Du        
   2753 ****       116.5000 224.7500 354.0000 Du        
   2754 ****       116.5000 224.7500 354.2500 Du        
   2755 ****       116.5000 225.0000 353.7500 Du        
   2756 ****       116.5000 225.0000 354.0000 Du        
   2757 ****       116.5000 225.0000 354.2500 Du        
   2758 ****       116.5000 225.2500 353.7500 Du        
   2759 ****       116.5000 225.2500 354.0000 Du        
   2760 ****       116.5000 225.2500 354.2500 Du        
   2761 ****       116.5000 225.5000 354.0000 Du        
   2762 ****       116.5000 225.5000 354.2500 Du        
   2763 ****       116.5000 225.7500 354.0000 Du        
   2764 ****       116.5000 225.7500 354.2500 Du        
   2765 ****       116.5000 226.0000 354.0000 Du        
   2766 ****       116.5000 226.0000 354.2500 Du        
   2767 ****       116.5000 226.0000 354.5000 Du        
   2768 ****       116.5000 226.2500 354.0000 Du        
   2769 ****       116.5000 226.2500 354.2500 Du        
   2770 ****       116.5000 226.2500 354.5000 Du        
   2771 ****       116.5000 226.5000 354.0000 Du        
   2772 ****       116.5000 226.5000 354.2500 Du        
   2773 ****       116.5000 226.5000 354.5000 Du        
   2774 ****       116.5000 226.5000 354.7500 Du        
   2775 ****       116.5000 226.7500 354.0000 Du        
   2776 ****       116.5000 226.7500 354.2500 Du        
   2777 ****       116.5000 226.7500 354.5000 Du        
   2778 ****       116.5000 226.7500 354.7500 Du        
   2779 ****       116.5000 227.0000 354.2500 Du        
   2780 ****       116.5000 227.0000 354.5000 Du        
   2781 ****       116.5000 227.0000 354.7500 Du        
   2782 ****       116.7500 225.0000 354.0000 Du        
   2783 ****       116.7500 226.0000 354.0000 Du        
   2784 ****       116.7500 226.2500 354.0000 Du        
   2785 ****       116.7500 226.2500 354.2500 Du        
   2786 ****       116.7500 226.5000 354.0000 Du        
   2787 ****       116.7500 226.5000 354.2500 Du        
   2788 ****       116.7500 226.7500 354.0000 Du        
   2789 ****       116.7500 226.7500 354.2500 Du        
   2790 ****       116.7500 226.7500 354.5000 Du        
   2791 ****       116.7500 227.0000 354.2500 Du        
   2792 ****       116.7500 227.0000 354.5000 Du        
