#       Name:                CT1002167954
#       Creating user name   hitesit
#       Creation time:       Sun Apr 16 02:25:13 2023


#       File generated by GOLD software.
#

@<TRIPOS>MOLECULE
CT1002167954|ligand_prepared|mol2|1|dock8
    29    30     1
SMALL
NO_CHARGES


@<TRIPOS>ATOM
      1 C1         108.3933 230.4187 356.4666 C.3            1 RES1               0.0000
      2 C2         107.5634 229.7345 355.3612 C.ar           1 RES1               0.0000
      3 C3         107.3896 231.0413 357.4326 C.2            1 RES1               0.0000
      4 C4         109.2594 229.3279 357.0868 C.2            1 RES1               0.0000
      5 C5         109.3297 231.5335 355.9452 C.3            1 RES1               0.0000
      6 C6         106.8259 228.5869 355.6366 C.ar           1 RES1               0.0000
      7 C7         107.5233 230.2397 354.0644 C.ar           1 RES1               0.0000
      8 N8         107.2145 230.4331 358.6406 N.am           1 RES1               0.0000
      9 O9         106.7329 232.0280 357.1237 O.2            1 RES1               0.0000
     10 N10        109.0243 228.9864 358.3929 N.am           1 RES1               0.0000
     11 O11        110.1322 228.7495 356.4513 O.2            1 RES1               0.0000
     12 C12        110.2620 232.0972 357.0060 C.3            1 RES1               0.0000
     13 C13        106.0732 227.9684 354.6521 C.ar           1 RES1               0.0000
     14 C14        106.7701 229.6196 353.0813 C.ar           1 RES1               0.0000
     15 C15        108.0207 229.4680 359.1886 C.2            1 RES1               0.0000
     16 C16        106.0444 228.4844 353.3740 C.ar           1 RES1               0.0000
     17 O17        107.8395 229.0719 360.3363 O.2            1 RES1               0.0000
     18 H18        109.9334 231.1314 355.1222 H              1 RES1               0.0000
     19 H19        108.7171 232.3502 355.5437 H              1 RES1               0.0000
     20 H20        106.8383 228.1648 356.6360 H              1 RES1               0.0000
     21 H21        108.0871 231.1311 353.8110 H              1 RES1               0.0000
     22 H22        106.4095 230.7225 359.1871 H              1 RES1               0.0000
     23 H23        109.6560 228.3105 358.8107 H              1 RES1               0.0000
     24 H24        110.8968 232.8754 356.5876 H              1 RES1               0.0000
     25 H25        109.6948 232.5282 357.8284 H              1 RES1               0.0000
     26 H26        110.9038 231.3167 357.4094 H              1 RES1               0.0000
     27 H27        105.5050 227.0745 354.8873 H              1 RES1               0.0000
     28 H28        106.7509 230.0288 352.0766 H              1 RES1               0.0000
     29 H29        105.4544 228.0000 352.6031 H              1 RES1               0.0000
@<TRIPOS>BOND
    1    1    2 1     
    2    1    3 1     
    3    1    4 1     
    4    1    5 1     
    5    2    6 ar    
    6    2    7 ar    
    7    3    8 1     
    8    3    9 2     
    9    4   10 1     
   10    4   11 2     
   11    5   12 1     
   12    5   18 1     
   13    5   19 1     
   14    6   13 ar    
   15    6   20 1     
   16    7   14 ar    
   17    7   21 1     
   18    8   15 1     
   19    8   22 1     
   20   10   15 1     
   21   10   23 1     
   22   12   24 1     
   23   12   25 1     
   24   12   26 1     
   25   13   16 ar    
   26   13   27 1     
   27   14   16 ar    
   28   14   28 1     
   29   15   17 2     
   30   16   29 1     
@<TRIPOS>SUBSTRUCTURE
      1 RES1           1
@<TRIPOS>SET
DONOR_HYDROGENS      STATIC     ATOMS    <user>   **** ""
2 22 23
ATOM$RED        STATIC     ATOMS    COLORGROUP SYSTEM
2 22 23
@<TRIPOS>COMMENT
> <Gold.Version>
2022.3.0

> <Gold.Id.Protein>
unknown|5uo4_clean|pdb

> <Gold.Protein.RotatedTorsions>
[ 10186 10164 10165 10166 ] final  -80.28 input   69.28 | X-H torsion
[ 10196 10172 10171 10170 ] final -157.34 input   60.01 | X-H torsion
[ 10220 10206 10207 10208 ] final  -17.29 input  114.40 | X-H torsion
[ 10226 10212 10210 10207 ] final   78.63 input   59.97 | X-H torsion
[ 10244 10233 10234 10235 ] final   94.76 input  114.32 | X-H torsion
[ 10248 10238 10237 10234 ] final -126.24 input   59.98 | X-H torsion
[ 10266 10255 10256 10257 ] final  157.45 input  104.54 | X-H torsion
[ 11356 11334 11333 11330 ] final   65.89 input   60.02 | X-H torsion
[ 10270 10260 10259 10256 ] final -145.06 input   59.98 | X-H torsion
[ 10298 10279 10280 10281 ] final  -40.28 input -125.27 | X-H torsion
[ 13520 10121 10120 10119 ] final   86.32 input   -0.00 | X-H torsion
[ 13523 10167 10166 10165 ] final  -50.55 input   -0.00 | X-H torsion
[ 13526 10209 10208 10207 ] final -161.52 input    0.00 | X-H torsion
[ 13552 10236 10235 10234 ] final -118.26 input    0.00 | X-H torsion

> <Gold.Protein.ActiveResidues>
 ARG624  LYS625  THR626  SER627  SER628  LEU629  TRP630  LEU643  TYR644  GLN647 
 ILE653  VAL654  ASP655  HIS657  SER658  ALA659  GLU661  SER662 

> <Gold.Protein.RotatedAtoms>
  107.3783  224.9953  350.5451 H   0  0  0  0  0  0  0  0  0  0  0  0  # atno 10186 bound_to 10164
  106.6195  225.0279  358.2451 H   0  0  0  0  0  0  0  0  0  0  0  0  # atno 10196 bound_to 10172
  107.2604  226.3286  357.4432 H   0  0  0  0  0  0  0  0  0  0  0  0  # atno 10197 bound_to 10172
  106.1128  225.3862  356.7078 H   0  0  0  0  0  0  0  0  0  0  0  0  # atno 10198 bound_to 10172
  109.4704  227.7745  351.7507 H   0  0  0  0  0  0  0  0  0  0  0  0  # atno 10220 bound_to 10206
  109.7601  231.5755  352.1828 H   0  0  0  0  0  0  0  0  0  0  0  0  # atno 10226 bound_to 10212
  110.6722  228.9129  352.7241 H   0  0  0  0  0  0  0  0  0  0  0  0  # atno 10244 bound_to 10233
  111.3934  228.3934  355.4543 H   0  0  0  0  0  0  0  0  0  0  0  0  # atno 10248 bound_to 10238
  112.5197  227.1352  352.2498 H   0  0  0  0  0  0  0  0  0  0  0  0  # atno 10266 bound_to 10255
  111.9003  225.0202  349.4525 H   0  0  0  0  0  0  0  0  0  0  0  0  # atno 10270 bound_to 10260
  113.6522  227.8178  349.3146 H   0  0  0  0  0  0  0  0  0  0  0  0  # atno 10298 bound_to 10279
  105.2040  238.5990  354.4860 H   0  0  0  0  0  0  0  0  0  0  0  0  # atno 11356 bound_to 11334
  105.3648  225.3841  351.8108 LP  0  0  0  0  0  0  0  0  0  0  0  0  # atno 13520 bound_to 10121
  105.7757  226.2573  350.3725 LP  0  0  0  0  0  0  0  0  0  0  0  0  # atno 13521 bound_to 10121
  108.6402  224.1549  351.4142 LP  0  0  0  0  0  0  0  0  0  0  0  0  # atno 13522 bound_to 10164
  110.9098  226.1172  350.9047 LP  0  0  0  0  0  0  0  0  0  0  0  0  # atno 13523 bound_to 10167
  110.3252  226.9615  349.5100 LP  0  0  0  0  0  0  0  0  0  0  0  0  # atno 13524 bound_to 10167
  107.9887  228.4698  351.1416 LP  0  0  0  0  0  0  0  0  0  0  0  0  # atno 13525 bound_to 10206
  113.0714  229.5273  350.3747 LP  0  0  0  0  0  0  0  0  0  0  0  0  # atno 13526 bound_to 10209
  111.9331  230.0779  349.1909 LP  0  0  0  0  0  0  0  0  0  0  0  0  # atno 13527 bound_to 10209
  108.5655  230.4806  352.3322 LP  0  0  0  0  0  0  0  0  0  0  0  0  # atno 13528 bound_to 10212
  108.2301  231.9944  351.8197 LP  0  0  0  0  0  0  0  0  0  0  0  0  # atno 13529 bound_to 10212
  111.2239  229.7904  351.3121 LP  0  0  0  0  0  0  0  0  0  0  0  0  # atno 13530 bound_to 10233
  112.9556  227.9387  355.4427 LP  0  0  0  0  0  0  0  0  0  0  0  0  # atno 13531 bound_to 10238
  112.0204  227.6915  354.1270 LP  0  0  0  0  0  0  0  0  0  0  0  0  # atno 13532 bound_to 10238
  113.4030  228.4774  351.5643 LP  0  0  0  0  0  0  0  0  0  0  0  0  # atno 13533 bound_to 10255
  103.7358  238.9473  355.0952 LP  0  0  0  0  0  0  0  0  0  0  0  0  # atno 13550 bound_to 11334
  105.0506  238.9682  356.0634 LP  0  0  0  0  0  0  0  0  0  0  0  0  # atno 13551 bound_to 11334
  115.6352  228.6392  352.1447 LP  0  0  0  0  0  0  0  0  0  0  0  0  # atno 13552 bound_to 10236
  115.1208  228.5381  353.7955 LP  0  0  0  0  0  0  0  0  0  0  0  0  # atno 13553 bound_to 10236
  113.2827  225.2876  348.6361 LP  0  0  0  0  0  0  0  0  0  0  0  0  # atno 13554 bound_to 10260
  112.5211  226.5232  349.3844 LP  0  0  0  0  0  0  0  0  0  0  0  0  # atno 13555 bound_to 10260
  114.8931  228.4550  350.3754 LP  0  0  0  0  0  0  0  0  0  0  0  0  # atno 13556 bound_to 10279

> <Gold.Score>
     Fitness  S(hb_ext) S(vdw_ext)  S(hb_int)    S(int)      intcor
     28.17       2.00      19.05       0.00      -0.02      -0.76

> <Gold.Goldscore.Fitness>
28.1716

> <Gold.Goldscore.Internal.Vdw>
-0.3409

> <Gold.Goldscore.Internal.Torsion>
-0.4359

> <Gold.Goldscore.External.Vdw>
19.0486

> <Gold.Goldscore.Internal.HBond>
0.0000

> <Gold.Goldscore.External.HBond>
2.0000

> <Gold.Goldscore.Internal.Correction>
-0.7567

> <Gold.Goldscore.Hbonds>
donor molecule, donor type, donor heavy atom, donor atom, acceptor molecule, acceptor atom, score
      P1  H 10238 10248       L1    11  1.00

> <Gold.Goldscore.Internal.Vdw.Weighted>
-0.3409

> <Gold.Goldscore.Internal.Torsion.Weighted>
-0.4359

> <Gold.Goldscore.External.Vdw.Weighted>
26.1918

> <Gold.Goldscore.Internal.HBond.Weighted>
0.0000

> <Gold.Goldscore.External.HBond.Weighted>
2.0000

> <Gold.Goldscore.Internal.Correction.Weighted>
-0.7567

> <Gold.Rescore>
     Score     S(PLP)   S(hbond)     S(cho)   S(metal)  DE(clash)   DE(tors)     intcor
     28.03     -25.40       1.00       0.00       0.00       0.00       0.18       ----

> <Gold.PLP.Fitness>
28.0266

> <Gold.PLP.PLP>
-25.3956

> <Gold.PLP.part.hbond>
-2.0000

> <Gold.PLP.part.metal>
0.0000

> <Gold.PLP.part.buried>
-3.2042

> <Gold.PLP.part.nonpolar>
-20.6559

> <Gold.PLP.part.repulsive>
0.1571

> <Gold.PLP.ligand.clash>
0.0000

> <Gold.PLP.ligand.torsion>
0.1845

> <Gold.PLP.Chemscore.Hbond>
1.0000

> <Gold.PLP.Chemscore.CHOScore>
0.0000

> <Gold.PLP.Chemscore.Metal>
0.0000

> <Gold.Chemscore.Hbonds>
donor molecule, donor type, donor heavy atom, donor atom, acceptor molecule, acceptor atom, score
      P1  H 10238 10248       L1    11  1.00
      P1  H 10884 10909       L1    11  0.11

> <Gold.PLP.Chemscore.Internal.Correction>
   9.000000E+99

