#       Name:                CT1002167954
#       Creating user name   hitesit
#       Creation time:       Sun Apr 16 02:25:14 2023


#       File generated by GOLD software.
#

@<TRIPOS>MOLECULE
CT1002167954|ligand_prepared|mol2|1|dock10
    29    30     1
SMALL
NO_CHARGES


@<TRIPOS>ATOM
      1 C1         107.5549 230.1611 355.2817 C.3            1 RES1               0.0000
      2 C2         106.7392 230.0807 353.9753 C.ar           1 RES1               0.0000
      3 C3         109.0136 230.3289 354.8664 C.2            1 RES1               0.0000
      4 C4         106.9912 231.3418 356.0646 C.2            1 RES1               0.0000
      5 C5         107.4389 228.9001 356.1694 C.3            1 RES1               0.0000
      6 C6         106.3125 231.2396 353.3338 C.ar           1 RES1               0.0000
      7 C7         106.4085 228.8570 353.3991 C.ar           1 RES1               0.0000
      8 N8         109.5795 231.5590 355.0295 N.am           1 RES1               0.0000
      9 O9         109.6458 229.4066 354.3666 O.2            1 RES1               0.0000
     10 N10        107.8050 232.4256 356.2665 N.am           1 RES1               0.0000
     11 O11        105.8442 231.3501 356.4942 O.2            1 RES1               0.0000
     12 C12        108.0455 229.0669 357.5538 C.3            1 RES1               0.0000
     13 C13        105.5842 231.1777 352.1573 C.ar           1 RES1               0.0000
     14 C14        105.6798 228.7974 352.2226 C.ar           1 RES1               0.0000
     15 C15        109.0633 232.6004 355.7581 C.2            1 RES1               0.0000
     16 C16        105.2678 229.9568 351.6008 C.ar           1 RES1               0.0000
     17 O17        109.7123 233.6268 355.9381 O.2            1 RES1               0.0000
     18 H18        106.3786 228.6407 356.2774 H              1 RES1               0.0000
     19 H19        107.9386 228.0649 355.6634 H              1 RES1               0.0000
     20 H20        106.5499 232.2094 353.7582 H              1 RES1               0.0000
     21 H21        106.7212 227.9320 353.8714 H              1 RES1               0.0000
     22 H22        110.4687 231.7194 354.5671 H              1 RES1               0.0000
     23 H23        107.4390 233.1712 356.8500 H              1 RES1               0.0000
     24 H24        107.9372 228.1536 358.1349 H              1 RES1               0.0000
     25 H25        109.1058 229.3009 357.4847 H              1 RES1               0.0000
     26 H26        107.5550 229.8733 358.0951 H              1 RES1               0.0000
     27 H27        105.2610 232.0931 351.6726 H              1 RES1               0.0000
     28 H28        105.4326 227.8343 351.7885 H              1 RES1               0.0000
     29 H29        104.6975 229.9086 350.6790 H              1 RES1               0.0000
@<TRIPOS>BOND
    1    1    2 1     
    2    1    3 1     
    3    1    4 1     
    4    1    5 1     
    5    2    6 ar    
    6    2    7 ar    
    7    3    8 1     
    8    3    9 2     
    9    4   10 1     
   10    4   11 2     
   11    5   12 1     
   12    5   18 1     
   13    5   19 1     
   14    6   13 ar    
   15    6   20 1     
   16    7   14 ar    
   17    7   21 1     
   18    8   15 1     
   19    8   22 1     
   20   10   15 1     
   21   10   23 1     
   22   12   24 1     
   23   12   25 1     
   24   12   26 1     
   25   13   16 ar    
   26   13   27 1     
   27   14   16 ar    
   28   14   28 1     
   29   15   17 2     
   30   16   29 1     
@<TRIPOS>SUBSTRUCTURE
      1 RES1           1
@<TRIPOS>SET
DONOR_HYDROGENS      STATIC     ATOMS    <user>   **** ""
2 22 23
ATOM$RED        STATIC     ATOMS    COLORGROUP SYSTEM
2 22 23
@<TRIPOS>COMMENT
> <Gold.Version>
2022.3.0

> <Gold.Id.Protein>
unknown|5uo4_clean|pdb

> <Gold.Protein.RotatedTorsions>
[ 10186 10164 10165 10166 ] final    1.37 input   69.28 | X-H torsion
[ 10196 10172 10171 10170 ] final  -98.08 input   60.01 | X-H torsion
[ 10220 10206 10207 10208 ] final -100.25 input  114.40 | X-H torsion
[ 10226 10212 10210 10207 ] final   76.78 input   59.97 | X-H torsion
[ 10244 10233 10234 10235 ] final -121.95 input  114.32 | X-H torsion
[ 10248 10238 10237 10234 ] final -105.60 input   59.98 | X-H torsion
[ 10266 10255 10256 10257 ] final -176.96 input  104.54 | X-H torsion
[ 11356 11334 11333 11330 ] final   56.06 input   60.02 | X-H torsion
[ 10270 10260 10259 10256 ] final  166.32 input   59.98 | X-H torsion
[ 10298 10279 10280 10281 ] final  144.26 input -125.27 | X-H torsion
[ 13520 10121 10120 10119 ] final   55.69 input   -0.00 | X-H torsion
[ 13523 10167 10166 10165 ] final -109.08 input   -0.00 | X-H torsion
[ 13526 10209 10208 10207 ] final  -81.97 input    0.00 | X-H torsion
[ 13552 10236 10235 10234 ] final  -71.57 input    0.00 | X-H torsion

> <Gold.Protein.ActiveResidues>
 ARG624  LYS625  THR626  SER627  SER628  LEU629  TRP630  LEU643  TYR644  GLN647 
 ILE653  VAL654  ASP655  HIS657  SER658  ALA659  GLU661  SER662 

> <Gold.Protein.RotatedAtoms>
  108.5008  224.8609  350.3047 H   0  0  0  0  0  0  0  0  0  0  0  0  # atno 10186 bound_to 10164
  107.2109  225.7664  358.2287 H   0  0  0  0  0  0  0  0  0  0  0  0  # atno 10196 bound_to 10172
  106.7180  226.1406  356.6916 H   0  0  0  0  0  0  0  0  0  0  0  0  # atno 10197 bound_to 10172
  106.0640  224.8356  357.4760 H   0  0  0  0  0  0  0  0  0  0  0  0  # atno 10198 bound_to 10172
  108.8341  227.5308  350.8017 H   0  0  0  0  0  0  0  0  0  0  0  0  # atno 10220 bound_to 10206
  109.7658  231.5475  352.1922 H   0  0  0  0  0  0  0  0  0  0  0  0  # atno 10226 bound_to 10212
  111.0392  230.1781  351.6605 H   0  0  0  0  0  0  0  0  0  0  0  0  # atno 10244 bound_to 10233
  111.2512  228.3189  355.1599 H   0  0  0  0  0  0  0  0  0  0  0  0  # atno 10248 bound_to 10238
  112.7858  227.2136  352.5254 H   0  0  0  0  0  0  0  0  0  0  0  0  # atno 10266 bound_to 10255
  112.4544  224.6879  349.0313 H   0  0  0  0  0  0  0  0  0  0  0  0  # atno 10270 bound_to 10260
  114.8872  228.5386  350.3851 H   0  0  0  0  0  0  0  0  0  0  0  0  # atno 10298 bound_to 10279
  105.0674  238.6004  354.4019 H   0  0  0  0  0  0  0  0  0  0  0  0  # atno 11356 bound_to 11334
  105.1273  225.1831  351.4754 LP  0  0  0  0  0  0  0  0  0  0  0  0  # atno 13520 bound_to 10121
  106.0133  226.4582  350.7079 LP  0  0  0  0  0  0  0  0  0  0  0  0  # atno 13521 bound_to 10121
  107.5435  224.2862  351.6490 LP  0  0  0  0  0  0  0  0  0  0  0  0  # atno 13522 bound_to 10164
  111.1773  226.9068  350.7566 LP  0  0  0  0  0  0  0  0  0  0  0  0  # atno 13523 bound_to 10167
  110.0578  226.1720  349.6581 LP  0  0  0  0  0  0  0  0  0  0  0  0  # atno 13524 bound_to 10167
  108.6125  228.7086  352.0719 LP  0  0  0  0  0  0  0  0  0  0  0  0  # atno 13525 bound_to 10206
  112.5168  228.9552  349.6046 LP  0  0  0  0  0  0  0  0  0  0  0  0  # atno 13526 bound_to 10209
  112.4877  230.6500  349.9609 LP  0  0  0  0  0  0  0  0  0  0  0  0  # atno 13527 bound_to 10209
  108.5371  230.4888  352.3253 LP  0  0  0  0  0  0  0  0  0  0  0  0  # atno 13528 bound_to 10212
  108.2527  232.0145  351.8172 LP  0  0  0  0  0  0  0  0  0  0  0  0  # atno 13529 bound_to 10212
  110.8702  228.5712  352.3370 LP  0  0  0  0  0  0  0  0  0  0  0  0  # atno 13530 bound_to 10233
  112.7732  228.0861  355.6858 LP  0  0  0  0  0  0  0  0  0  0  0  0  # atno 13531 bound_to 10238
  112.3459  227.6192  354.1804 LP  0  0  0  0  0  0  0  0  0  0  0  0  # atno 13532 bound_to 10238
  113.1427  228.4007  351.2946 LP  0  0  0  0  0  0  0  0  0  0  0  0  # atno 13533 bound_to 10255
  103.7340  238.9825  355.2528 LP  0  0  0  0  0  0  0  0  0  0  0  0  # atno 13550 bound_to 11334
  105.1900  238.9316  355.9904 LP  0  0  0  0  0  0  0  0  0  0  0  0  # atno 13551 bound_to 11334
  115.5078  229.2513  352.4279 LP  0  0  0  0  0  0  0  0  0  0  0  0  # atno 13552 bound_to 10236
  115.2482  227.9259  353.5124 LP  0  0  0  0  0  0  0  0  0  0  0  0  # atno 13553 bound_to 10236
  113.3113  226.0493  348.7835 LP  0  0  0  0  0  0  0  0  0  0  0  0  # atno 13554 bound_to 10260
  111.9349  226.0960  349.6610 LP  0  0  0  0  0  0  0  0  0  0  0  0  # atno 13555 bound_to 10260
  113.7072  227.7628  349.3474 LP  0  0  0  0  0  0  0  0  0  0  0  0  # atno 13556 bound_to 10279

> <Gold.Score>
     Fitness  S(hb_ext) S(vdw_ext)  S(hb_int)    S(int)      intcor
     32.89       2.03      22.64       0.00      -0.27      -0.76

> <Gold.Goldscore.Fitness>
32.8938

> <Gold.Goldscore.Internal.Vdw>
-0.5094

> <Gold.Goldscore.Internal.Torsion>
-0.5148

> <Gold.Goldscore.External.Vdw>
22.6386

> <Gold.Goldscore.Internal.HBond>
0.0000

> <Gold.Goldscore.External.HBond>
2.0333

> <Gold.Goldscore.Internal.Correction>
-0.7567

> <Gold.Goldscore.Hbonds>
donor molecule, donor type, donor heavy atom, donor atom, acceptor molecule, acceptor atom, score
      P1  H 10238 10248       L1     9  0.04
      P1  H 11131 11151       L1    17  0.59
      L1  H     8    22       P1 11137  0.13

> <Gold.Goldscore.Internal.Vdw.Weighted>
-0.5094

> <Gold.Goldscore.Internal.Torsion.Weighted>
-0.5148

> <Gold.Goldscore.External.Vdw.Weighted>
31.1281

> <Gold.Goldscore.Internal.HBond.Weighted>
0.0000

> <Gold.Goldscore.External.HBond.Weighted>
2.0333

> <Gold.Goldscore.Internal.Correction.Weighted>
-0.7567

> <Gold.Rescore>
     Score     S(PLP)   S(hbond)     S(cho)   S(metal)  DE(clash)   DE(tors)     intcor
     30.99     -26.35       1.74       0.00       0.00       0.00       0.28       ----

> <Gold.PLP.Fitness>
30.9896

> <Gold.PLP.PLP>
-26.3490

> <Gold.PLP.part.hbond>
-3.1042

> <Gold.PLP.part.metal>
0.0000

> <Gold.PLP.part.buried>
-2.4436

> <Gold.PLP.part.nonpolar>
-19.9384

> <Gold.PLP.part.repulsive>
0.2052

> <Gold.PLP.ligand.clash>
0.0000

> <Gold.PLP.ligand.torsion>
0.2837

> <Gold.PLP.Chemscore.Hbond>
1.7360

> <Gold.PLP.Chemscore.CHOScore>
0.0000

> <Gold.PLP.Chemscore.Metal>
0.0000

> <Gold.Chemscore.Hbonds>
donor molecule, donor type, donor heavy atom, donor atom, acceptor molecule, acceptor atom, score
      L1  H     8    22       P1 11137  0.25
      P1  H 10238 10248       L1     9  0.59
      P1  H 11131 11151       L1    17  0.37

> <Gold.PLP.Chemscore.Internal.Correction>
   9.000000E+99

