#       Name:                CT1002167954
#       Creating user name   hitesit
#       Creation time:       Sun Apr 16 02:25:10 2023


#       File generated by GOLD software.
#

@<TRIPOS>MOLECULE
CT1002167954|ligand_prepared|mol2|1|dock2
    29    30     1
SMALL
NO_CHARGES


@<TRIPOS>ATOM
      1 C1         108.4363 232.2257 357.7124 C.3            1 RES1               0.0000
      2 C2         108.4807 231.2494 356.5192 C.ar           1 RES1               0.0000
      3 C3         107.9563 231.4144 358.9122 C.2            1 RES1               0.0000
      4 C4         109.8483 232.7812 357.8618 C.2            1 RES1               0.0000
      5 C5         107.4729 233.4181 357.5086 C.3            1 RES1               0.0000
      6 C6         107.5453 231.3418 355.4929 C.ar           1 RES1               0.0000
      7 C7         109.4508 230.2547 356.4297 C.ar           1 RES1               0.0000
      8 N8         108.8776 231.0869 359.8629 N.am           1 RES1               0.0000
      9 O9         106.7956 231.0339 359.0032 O.2            1 RES1               0.0000
     10 N10        110.5462 232.4642 358.9976 N.am           1 RES1               0.0000
     11 O11        110.3690 233.4769 356.9985 O.2            1 RES1               0.0000
     12 C12        107.5340 234.4529 358.6211 C.3            1 RES1               0.0000
     13 C13        107.5803 230.4732 354.4146 C.ar           1 RES1               0.0000
     14 C14        109.4838 229.3869 355.3507 C.ar           1 RES1               0.0000
     15 C15        110.1363 231.6170 359.9909 C.2            1 RES1               0.0000
     16 C16        108.5496 229.4956 354.3425 C.ar           1 RES1               0.0000
     17 O17        110.8430 231.3382 360.9553 O.2            1 RES1               0.0000
     18 H18        107.7137 233.9080 356.5571 H              1 RES1               0.0000
     19 H19        106.4472 233.0353 357.4384 H              1 RES1               0.0000
     20 H20        106.7736 232.1033 355.5336 H              1 RES1               0.0000
     21 H21        110.1951 230.1498 357.2117 H              1 RES1               0.0000
     22 H22        108.6056 230.3826 360.5414 H              1 RES1               0.0000
     23 H23        111.4555 232.9002 359.1135 H              1 RES1               0.0000
     24 H24        106.8389 235.2675 358.4288 H              1 RES1               0.0000
     25 H25        107.2754 234.0055 359.5786 H              1 RES1               0.0000
     26 H26        108.5344 234.8730 358.7025 H              1 RES1               0.0000
     27 H27        106.8420 230.5620 353.6245 H              1 RES1               0.0000
     28 H28        110.2481 228.6186 355.2984 H              1 RES1               0.0000
     29 H29        108.5770 228.8155 353.4976 H              1 RES1               0.0000
@<TRIPOS>BOND
    1    1    2 1     
    2    1    3 1     
    3    1    4 1     
    4    1    5 1     
    5    2    6 ar    
    6    2    7 ar    
    7    3    8 1     
    8    3    9 2     
    9    4   10 1     
   10    4   11 2     
   11    5   12 1     
   12    5   18 1     
   13    5   19 1     
   14    6   13 ar    
   15    6   20 1     
   16    7   14 ar    
   17    7   21 1     
   18    8   15 1     
   19    8   22 1     
   20   10   15 1     
   21   10   23 1     
   22   12   24 1     
   23   12   25 1     
   24   12   26 1     
   25   13   16 ar    
   26   13   27 1     
   27   14   16 ar    
   28   14   28 1     
   29   15   17 2     
   30   16   29 1     
@<TRIPOS>SUBSTRUCTURE
      1 RES1           1
@<TRIPOS>SET
DONOR_HYDROGENS      STATIC     ATOMS    <user>   **** ""
2 22 23
ATOM$RED        STATIC     ATOMS    COLORGROUP SYSTEM
2 22 23
@<TRIPOS>COMMENT
> <Gold.Version>
2022.3.0

> <Gold.Id.Protein>
unknown|5uo4_clean|pdb

> <Gold.Protein.RotatedTorsions>
[ 10186 10164 10165 10166 ] final   67.02 input   69.28 | X-H torsion
[ 10196 10172 10171 10170 ] final   -7.95 input   60.01 | X-H torsion
[ 10220 10206 10207 10208 ] final -152.91 input  114.40 | X-H torsion
[ 10226 10212 10210 10207 ] final -142.02 input   59.97 | X-H torsion
[ 10244 10233 10234 10235 ] final -179.97 input  114.32 | X-H torsion
[ 10248 10238 10237 10234 ] final   68.84 input   59.98 | X-H torsion
[ 10266 10255 10256 10257 ] final   13.18 input  104.54 | X-H torsion
[ 11356 11334 11333 11330 ] final  135.22 input   60.02 | X-H torsion
[ 10270 10260 10259 10256 ] final -174.43 input   59.98 | X-H torsion
[ 10298 10279 10280 10281 ] final  -12.65 input -125.27 | X-H torsion
[ 13520 10121 10120 10119 ] final  140.27 input   -0.00 | X-H torsion
[ 13523 10167 10166 10165 ] final -123.10 input   -0.00 | X-H torsion
[ 13526 10209 10208 10207 ] final  145.73 input    0.00 | X-H torsion
[ 13552 10236 10235 10234 ] final  -34.58 input    0.00 | X-H torsion

> <Gold.Protein.ActiveResidues>
 ARG624  LYS625  THR626  SER627  SER628  LEU629  TRP630  LEU643  TYR644  GLN647 
 ILE653  VAL654  ASP655  HIS657  SER658  ALA659  GLU661  SER662 

> <Gold.Protein.RotatedAtoms>
  108.8694  224.3404  351.0200 H   0  0  0  0  0  0  0  0  0  0  0  0  # atno 10186 bound_to 10164
  107.0403  226.3342  357.0103 H   0  0  0  0  0  0  0  0  0  0  0  0  # atno 10196 bound_to 10172
  106.0028  225.0424  357.0327 H   0  0  0  0  0  0  0  0  0  0  0  0  # atno 10197 bound_to 10172
  106.9500  225.3663  358.3533 H   0  0  0  0  0  0  0  0  0  0  0  0  # atno 10198 bound_to 10172
  108.2019  227.9881  350.7445 H   0  0  0  0  0  0  0  0  0  0  0  0  # atno 10220 bound_to 10206
  108.0418  231.7449  351.8643 H   0  0  0  0  0  0  0  0  0  0  0  0  # atno 10226 bound_to 10212
  110.6728  230.0870  352.4389 H   0  0  0  0  0  0  0  0  0  0  0  0  # atno 10244 bound_to 10233
  112.9646  227.6774  354.7742 H   0  0  0  0  0  0  0  0  0  0  0  0  # atno 10248 bound_to 10238
  113.0302  228.3462  351.2020 H   0  0  0  0  0  0  0  0  0  0  0  0  # atno 10266 bound_to 10255
  112.2003  224.7483  349.2045 H   0  0  0  0  0  0  0  0  0  0  0  0  # atno 10270 bound_to 10260
  113.9689  227.5332  349.2834 H   0  0  0  0  0  0  0  0  0  0  0  0  # atno 10298 bound_to 10279
  105.5605  238.7656  355.4756 H   0  0  0  0  0  0  0  0  0  0  0  0  # atno 11356 bound_to 11334
  105.8718  225.9794  351.8878 LP  0  0  0  0  0  0  0  0  0  0  0  0  # atno 13520 bound_to 10121
  105.2688  225.6620  350.2955 LP  0  0  0  0  0  0  0  0  0  0  0  0  # atno 13521 bound_to 10121
  107.1833  224.7947  350.9502 LP  0  0  0  0  0  0  0  0  0  0  0  0  # atno 13522 bound_to 10164
  111.1606  227.0702  350.6237 LP  0  0  0  0  0  0  0  0  0  0  0  0  # atno 13523 bound_to 10167
  110.0745  226.0085  349.7911 LP  0  0  0  0  0  0  0  0  0  0  0  0  # atno 13524 bound_to 10167
  109.2322  228.2603  352.1280 LP  0  0  0  0  0  0  0  0  0  0  0  0  # atno 13525 bound_to 10206
  112.9185  230.2815  350.3722 LP  0  0  0  0  0  0  0  0  0  0  0  0  # atno 13526 bound_to 10209
  112.0860  229.3237  349.1934 LP  0  0  0  0  0  0  0  0  0  0  0  0  # atno 13527 bound_to 10209
  109.6506  231.8544  352.0830 LP  0  0  0  0  0  0  0  0  0  0  0  0  # atno 13528 bound_to 10212
  108.8758  230.4501  352.3897 LP  0  0  0  0  0  0  0  0  0  0  0  0  # atno 13529 bound_to 10212
  111.2232  228.6590  351.5869 LP  0  0  0  0  0  0  0  0  0  0  0  0  # atno 13530 bound_to 10233
  111.4105  227.9695  354.3910 LP  0  0  0  0  0  0  0  0  0  0  0  0  # atno 13531 bound_to 10238
  111.9828  228.3820  355.8637 LP  0  0  0  0  0  0  0  0  0  0  0  0  # atno 13532 bound_to 10238
  112.9035  227.2924  352.5896 LP  0  0  0  0  0  0  0  0  0  0  0  0  # atno 13533 bound_to 10255
  104.4214  238.6742  354.3171 LP  0  0  0  0  0  0  0  0  0  0  0  0  # atno 13550 bound_to 11334
  104.0059  239.0736  355.8450 LP  0  0  0  0  0  0  0  0  0  0  0  0  # atno 13551 bound_to 11334
  115.3426  229.4520  352.9120 LP  0  0  0  0  0  0  0  0  0  0  0  0  # atno 13552 bound_to 10236
  115.4134  227.7253  353.0282 LP  0  0  0  0  0  0  0  0  0  0  0  0  # atno 13553 bound_to 10236
  113.3681  225.7554  348.6839 LP  0  0  0  0  0  0  0  0  0  0  0  0  # atno 13554 bound_to 10260
  112.1339  226.3291  349.5863 LP  0  0  0  0  0  0  0  0  0  0  0  0  # atno 13555 bound_to 10260
  114.5890  228.7282  350.4053 LP  0  0  0  0  0  0  0  0  0  0  0  0  # atno 13556 bound_to 10279

> <Gold.Score>
     Fitness  S(hb_ext) S(vdw_ext)  S(hb_int)    S(int)      intcor
     27.81       1.67      19.48       0.00      -0.65      -0.80

> <Gold.Goldscore.Fitness>
27.8111

> <Gold.Goldscore.Internal.Vdw>
-1.0284

> <Gold.Goldscore.Internal.Torsion>
-0.4192

> <Gold.Goldscore.External.Vdw>
19.4809

> <Gold.Goldscore.Internal.HBond>
0.0000

> <Gold.Goldscore.External.HBond>
1.6719

> <Gold.Goldscore.Internal.Correction>
-0.8006

> <Gold.Goldscore.Hbonds>
donor molecule, donor type, donor heavy atom, donor atom, acceptor molecule, acceptor atom, score
      P1  H 11131 11151       L1    11  0.49
      L1  H    10    23       P1 11064  0.35

> <Gold.Goldscore.Internal.Vdw.Weighted>
-1.0284

> <Gold.Goldscore.Internal.Torsion.Weighted>
-0.4192

> <Gold.Goldscore.External.Vdw.Weighted>
26.7862

> <Gold.Goldscore.Internal.HBond.Weighted>
0.0000

> <Gold.Goldscore.External.HBond.Weighted>
1.6719

> <Gold.Goldscore.Internal.Correction.Weighted>
-0.8006

> <Gold.Rescore>
     Score     S(PLP)   S(hbond)     S(cho)   S(metal)  DE(clash)   DE(tors)     intcor
     28.17     -26.05       0.88       0.00       0.00       0.00       0.26       ----

> <Gold.PLP.Fitness>
28.1666

> <Gold.PLP.PLP>
-26.0539

> <Gold.PLP.part.hbond>
-1.7710

> <Gold.PLP.part.metal>
0.0000

> <Gold.PLP.part.buried>
-7.0654

> <Gold.PLP.part.nonpolar>
-19.5010

> <Gold.PLP.part.repulsive>
0.8698

> <Gold.PLP.ligand.clash>
0.0000

> <Gold.PLP.ligand.torsion>
0.2615

> <Gold.PLP.Chemscore.Hbond>
0.8785

> <Gold.PLP.Chemscore.CHOScore>
0.0000

> <Gold.PLP.Chemscore.Metal>
0.0000

> <Gold.Chemscore.Hbonds>
donor molecule, donor type, donor heavy atom, donor atom, acceptor molecule, acceptor atom, score
      L1  H    10    23       P1 11064  0.90
      P1  H 11131 11151       L1    11  0.59

> <Gold.PLP.Chemscore.Internal.Correction>
   9.000000E+99

