#       Name:                CT1002167954
#       Creating user name   hitesit
#       Creation time:       Sun Apr 16 02:25:11 2023


#       File generated by GOLD software.
#

@<TRIPOS>MOLECULE
CT1002167954|ligand_prepared|mol2|1|dock4
    29    30     1
SMALL
NO_CHARGES


@<TRIPOS>ATOM
      1 C1         107.1223 230.7083 354.9299 C.3            1 RES1               0.0000
      2 C2         106.3629 230.8886 353.5997 C.ar           1 RES1               0.0000
      3 C3         108.6078 230.7747 354.5877 C.2            1 RES1               0.0000
      4 C4         106.6449 231.8274 355.8488 C.2            1 RES1               0.0000
      5 C5         106.8400 229.3599 355.6327 C.3            1 RES1               0.0000
      6 C6         105.9236 232.1470 353.1995 C.ar           1 RES1               0.0000
      7 C7         106.0970 229.8084 352.7623 C.ar           1 RES1               0.0000
      8 N8         109.2863 231.9055 354.9353 N.am           1 RES1               0.0000
      9 O9         109.1664 229.8654 353.9866 O.2            1 RES1               0.0000
     10 N10        107.5533 232.7827 356.2226 N.am           1 RES1               0.0000
     11 O11        105.4861 231.8997 356.2390 O.2            1 RES1               0.0000
     12 C12        107.3197 229.3078 357.0746 C.3            1 RES1               0.0000
     13 C13        105.2457 232.3199 352.0041 C.ar           1 RES1               0.0000
     14 C14        105.4187 229.9835 351.5675 C.ar           1 RES1               0.0000
     15 C15        108.8446 232.8896 355.7828 C.2            1 RES1               0.0000
     16 C16        104.9932 231.2385 351.1872 C.ar           1 RES1               0.0000
     17 O17        109.5844 233.8087 356.1219 O.2            1 RES1               0.0000
     18 H18        105.7596 229.1708 355.6129 H              1 RES1               0.0000
     19 H19        107.3311 228.5578 355.0680 H              1 RES1               0.0000
     20 H20        106.1110 233.0094 353.8305 H              1 RES1               0.0000
     21 H21        106.4214 228.8118 353.0417 H              1 RES1               0.0000
     22 H22        110.2072 232.0311 354.5274 H              1 RES1               0.0000
     23 H23        107.2377 233.4787 356.8908 H              1 RES1               0.0000
     24 H24        107.0971 228.3407 357.5205 H              1 RES1               0.0000
     25 H25        108.3947 229.4669 357.1295 H              1 RES1               0.0000
     26 H26        106.8325 230.0763 357.6712 H              1 RES1               0.0000
     27 H27        104.9117 233.3095 351.7101 H              1 RES1               0.0000
     28 H28        105.2216 229.1295 350.9279 H              1 RES1               0.0000
     29 H29        104.4625 231.3743 350.2506 H              1 RES1               0.0000
@<TRIPOS>BOND
    1    1    2 1     
    2    1    3 1     
    3    1    4 1     
    4    1    5 1     
    5    2    6 ar    
    6    2    7 ar    
    7    3    8 1     
    8    3    9 2     
    9    4   10 1     
   10    4   11 2     
   11    5   12 1     
   12    5   18 1     
   13    5   19 1     
   14    6   13 ar    
   15    6   20 1     
   16    7   14 ar    
   17    7   21 1     
   18    8   15 1     
   19    8   22 1     
   20   10   15 1     
   21   10   23 1     
   22   12   24 1     
   23   12   25 1     
   24   12   26 1     
   25   13   16 ar    
   26   13   27 1     
   27   14   16 ar    
   28   14   28 1     
   29   15   17 2     
   30   16   29 1     
@<TRIPOS>SUBSTRUCTURE
      1 RES1           1
@<TRIPOS>SET
DONOR_HYDROGENS      STATIC     ATOMS    <user>   **** ""
2 22 23
ATOM$RED        STATIC     ATOMS    COLORGROUP SYSTEM
2 22 23
@<TRIPOS>COMMENT
> <Gold.Version>
2022.3.0

> <Gold.Id.Protein>
unknown|5uo4_clean|pdb

> <Gold.Protein.RotatedTorsions>
[ 10186 10164 10165 10166 ] final -124.45 input   69.28 | X-H torsion
[ 10196 10172 10171 10170 ] final  179.73 input   60.01 | X-H torsion
[ 10220 10206 10207 10208 ] final  153.65 input  114.40 | X-H torsion
[ 10226 10212 10210 10207 ] final  119.88 input   59.97 | X-H torsion
[ 10244 10233 10234 10235 ] final  129.12 input  114.32 | X-H torsion
[ 10248 10238 10237 10234 ] final   -4.02 input   59.98 | X-H torsion
[ 10266 10255 10256 10257 ] final -177.28 input  104.54 | X-H torsion
[ 11356 11334 11333 11330 ] final   32.66 input   60.02 | X-H torsion
[ 10270 10260 10259 10256 ] final -176.30 input   59.98 | X-H torsion
[ 10298 10279 10280 10281 ] final  -72.33 input -125.27 | X-H torsion
[ 13520 10121 10120 10119 ] final   43.52 input   -0.00 | X-H torsion
[ 13523 10167 10166 10165 ] final   52.15 input   -0.00 | X-H torsion
[ 13526 10209 10208 10207 ] final  -57.54 input    0.00 | X-H torsion
[ 13552 10236 10235 10234 ] final  125.56 input    0.00 | X-H torsion

> <Gold.Protein.ActiveResidues>
 ARG624  LYS625  THR626  SER627  SER628  LEU629  TRP630  LEU643  TYR644  GLN647 
 ILE653  VAL654  ASP655  HIS657  SER658  ALA659  GLU661  SER662 

> <Gold.Protein.RotatedAtoms>
  107.1530  224.7158  351.1044 H   0  0  0  0  0  0  0  0  0  0  0  0  # atno 10186 bound_to 10164
  106.3649  224.8593  358.0181 H   0  0  0  0  0  0  0  0  0  0  0  0  # atno 10196 bound_to 10172
  107.3272  226.1890  357.7906 H   0  0  0  0  0  0  0  0  0  0  0  0  # atno 10197 bound_to 10172
  106.3007  225.6944  356.5874 H   0  0  0  0  0  0  0  0  0  0  0  0  # atno 10198 bound_to 10172
  107.9807  228.5606  351.2467 H   0  0  0  0  0  0  0  0  0  0  0  0  # atno 10220 bound_to 10206
  109.4085  232.0919  351.9711 H   0  0  0  0  0  0  0  0  0  0  0  0  # atno 10226 bound_to 10212
  110.5714  229.4231  352.8088 H   0  0  0  0  0  0  0  0  0  0  0  0  # atno 10244 bound_to 10233
  112.0566  227.6864  354.1328 H   0  0  0  0  0  0  0  0  0  0  0  0  # atno 10248 bound_to 10238
  112.7821  227.2118  352.5226 H   0  0  0  0  0  0  0  0  0  0  0  0  # atno 10266 bound_to 10255
  112.2237  224.7380  349.1875 H   0  0  0  0  0  0  0  0  0  0  0  0  # atno 10270 bound_to 10260
  113.4707  228.2378  349.4997 H   0  0  0  0  0  0  0  0  0  0  0  0  # atno 10298 bound_to 10279
  104.7028  238.6317  354.3007 H   0  0  0  0  0  0  0  0  0  0  0  0  # atno 11356 bound_to 11334
  105.0646  225.1511  351.3059 LP  0  0  0  0  0  0  0  0  0  0  0  0  # atno 13520 bound_to 10121
  106.0760  226.4903  350.8775 LP  0  0  0  0  0  0  0  0  0  0  0  0  # atno 13521 bound_to 10121
  108.8603  224.4280  350.8677 LP  0  0  0  0  0  0  0  0  0  0  0  0  # atno 13522 bound_to 10164
  110.0876  225.9599  349.8422 LP  0  0  0  0  0  0  0  0  0  0  0  0  # atno 13523 bound_to 10167
  111.1475  227.1188  350.5725 LP  0  0  0  0  0  0  0  0  0  0  0  0  # atno 13524 bound_to 10167
  109.4491  227.6992  351.6357 LP  0  0  0  0  0  0  0  0  0  0  0  0  # atno 13525 bound_to 10206
  112.2772  229.0822  349.3580 LP  0  0  0  0  0  0  0  0  0  0  0  0  # atno 13526 bound_to 10209
  112.7273  230.5230  350.2075 LP  0  0  0  0  0  0  0  0  0  0  0  0  # atno 13527 bound_to 10209
  109.2219  230.5380  352.4168 LP  0  0  0  0  0  0  0  0  0  0  0  0  # atno 13528 bound_to 10212
  107.9279  231.4170  351.9484 LP  0  0  0  0  0  0  0  0  0  0  0  0  # atno 13529 bound_to 10212
  111.3210  229.2988  351.2305 LP  0  0  0  0  0  0  0  0  0  0  0  0  # atno 13530 bound_to 10233
  111.3671  228.3880  355.4288 LP  0  0  0  0  0  0  0  0  0  0  0  0  # atno 13531 bound_to 10238
  112.9408  227.9544  355.4721 LP  0  0  0  0  0  0  0  0  0  0  0  0  # atno 13532 bound_to 10238
  113.1463  228.4024  351.2973 LP  0  0  0  0  0  0  0  0  0  0  0  0  # atno 13533 bound_to 10255
  103.8380  239.0474  355.6150 LP  0  0  0  0  0  0  0  0  0  0  0  0  # atno 13550 bound_to 11334
  105.4531  238.8353  355.7302 LP  0  0  0  0  0  0  0  0  0  0  0  0  # atno 13551 bound_to 11334
  115.3220  227.7918  353.3048 LP  0  0  0  0  0  0  0  0  0  0  0  0  # atno 13552 bound_to 10236
  115.4340  229.3854  352.6355 LP  0  0  0  0  0  0  0  0  0  0  0  0  # atno 13553 bound_to 10236
  113.3665  225.7854  348.6914 LP  0  0  0  0  0  0  0  0  0  0  0  0  # atno 13554 bound_to 10260
  112.1119  226.3095  349.5959 LP  0  0  0  0  0  0  0  0  0  0  0  0  # atno 13555 bound_to 10260
  115.0674  228.0517  350.1977 LP  0  0  0  0  0  0  0  0  0  0  0  0  # atno 13556 bound_to 10279

> <Gold.Score>
     Fitness  S(hb_ext) S(vdw_ext)  S(hb_int)    S(int)      intcor
     33.22       4.63      21.32       0.00      -0.72      -0.79

> <Gold.Goldscore.Fitness>
33.2171

> <Gold.Goldscore.Internal.Vdw>
-0.8721

> <Gold.Goldscore.Internal.Torsion>
-0.6409

> <Gold.Goldscore.External.Vdw>
21.3183

> <Gold.Goldscore.Internal.HBond>
0.0000

> <Gold.Goldscore.External.HBond>
4.6264

> <Gold.Goldscore.Internal.Correction>
-0.7909

> <Gold.Goldscore.Hbonds>
donor molecule, donor type, donor heavy atom, donor atom, acceptor molecule, acceptor atom, score
      P1  H 10233 10244       L1     9  1.00
      P1  H 11131 11151       L1    17  0.31
      L1  H     8    22       P1 11137  0.33

> <Gold.Goldscore.Internal.Vdw.Weighted>
-0.8721

> <Gold.Goldscore.Internal.Torsion.Weighted>
-0.6409

> <Gold.Goldscore.External.Vdw.Weighted>
29.3127

> <Gold.Goldscore.Internal.HBond.Weighted>
0.0000

> <Gold.Goldscore.External.HBond.Weighted>
4.6264

> <Gold.Goldscore.Internal.Correction.Weighted>
-0.7909

> <Gold.Rescore>
     Score     S(PLP)   S(hbond)     S(cho)   S(metal)  DE(clash)   DE(tors)     intcor
     32.04     -26.87       2.00       0.00       0.00       0.00       0.41       ----

> <Gold.PLP.Fitness>
32.0440

> <Gold.PLP.PLP>
-26.8735

> <Gold.PLP.part.hbond>
-4.7125

> <Gold.PLP.part.metal>
0.0000

> <Gold.PLP.part.buried>
-1.8634

> <Gold.PLP.part.nonpolar>
-19.9520

> <Gold.PLP.part.repulsive>
0.2190

> <Gold.PLP.ligand.clash>
0.0000

> <Gold.PLP.ligand.torsion>
0.4148

> <Gold.PLP.Chemscore.Hbond>
2.0000

> <Gold.PLP.Chemscore.CHOScore>
0.0000

> <Gold.PLP.Chemscore.Metal>
0.0000

> <Gold.Chemscore.Hbonds>
donor molecule, donor type, donor heavy atom, donor atom, acceptor molecule, acceptor atom, score
      L1  H     8    22       P1 11137  0.16
      P1  H 10233 10244       L1     9  1.00
      P1  H 11131 11151       L1    17  0.10

> <Gold.PLP.Chemscore.Internal.Correction>
   9.000000E+99

