#       Name:                CT1002167954
#       Creating user name   hitesit
#       Creation time:       Sun Apr 16 02:25:12 2023


#       File generated by GOLD software.
#

@<TRIPOS>MOLECULE
CT1002167954|ligand_prepared|mol2|1|dock6
    29    30     1
SMALL
NO_CHARGES


@<TRIPOS>ATOM
      1 C1         106.5463 230.6361 354.7850 C.3            1 RES1               0.0000
      2 C2         107.6463 231.4871 355.4518 C.ar           1 RES1               0.0000
      3 C3         105.8575 229.8687 355.9097 C.2            1 RES1               0.0000
      4 C4         105.6361 231.6146 354.0511 C.2            1 RES1               0.0000
      5 C5         107.0839 229.6176 353.7529 C.3            1 RES1               0.0000
      6 C6         107.3436 232.7255 356.0098 C.ar           1 RES1               0.0000
      7 C7         108.9655 231.0466 355.5188 C.ar           1 RES1               0.0000
      8 N8         104.6113 230.2780 356.2829 N.am           1 RES1               0.0000
      9 O9         106.4153 228.9437 356.4871 O.2            1 RES1               0.0000
     10 N10        104.3452 231.7451 354.4921 N.am           1 RES1               0.0000
     11 O11        106.0298 232.2860 353.1053 O.2            1 RES1               0.0000
     12 C12        105.9976 228.9650 352.9124 C.3            1 RES1               0.0000
     13 C13        108.3234 233.4945 356.6156 C.ar           1 RES1               0.0000
     14 C14        109.9439 231.8173 356.1248 C.ar           1 RES1               0.0000
     15 C15        103.8005 231.1438 355.5939 C.2            1 RES1               0.0000
     16 C16        109.6239 233.0408 356.6739 C.ar           1 RES1               0.0000
     17 O17        102.6471 231.3532 355.9588 O.2            1 RES1               0.0000
     18 H18        107.7874 230.1296 353.0849 H              1 RES1               0.0000
     19 H19        107.6369 228.8339 354.2852 H              1 RES1               0.0000
     20 H20        106.3261 233.1000 355.9713 H              1 RES1               0.0000
     21 H21        109.2404 230.0878 355.0926 H              1 RES1               0.0000
     22 H22        104.2486 229.9060 357.1549 H              1 RES1               0.0000
     23 H23        103.7338 232.3459 353.9486 H              1 RES1               0.0000
     24 H24        106.4287 228.2597 352.2051 H              1 RES1               0.0000
     25 H25        105.2939 228.4254 353.5429 H              1 RES1               0.0000
     26 H26        105.4435 229.7135 352.3497 H              1 RES1               0.0000
     27 H27        108.0667 234.4572 357.0450 H              1 RES1               0.0000
     28 H28        110.9662 231.4567 356.1679 H              1 RES1               0.0000
     29 H29        110.3912 233.6433 357.1488 H              1 RES1               0.0000
@<TRIPOS>BOND
    1    1    2 1     
    2    1    3 1     
    3    1    4 1     
    4    1    5 1     
    5    2    6 ar    
    6    2    7 ar    
    7    3    8 1     
    8    3    9 2     
    9    4   10 1     
   10    4   11 2     
   11    5   12 1     
   12    5   18 1     
   13    5   19 1     
   14    6   13 ar    
   15    6   20 1     
   16    7   14 ar    
   17    7   21 1     
   18    8   15 1     
   19    8   22 1     
   20   10   15 1     
   21   10   23 1     
   22   12   24 1     
   23   12   25 1     
   24   12   26 1     
   25   13   16 ar    
   26   13   27 1     
   27   14   16 ar    
   28   14   28 1     
   29   15   17 2     
   30   16   29 1     
@<TRIPOS>SUBSTRUCTURE
      1 RES1           1
@<TRIPOS>SET
DONOR_HYDROGENS      STATIC     ATOMS    <user>   **** ""
2 22 23
ATOM$RED        STATIC     ATOMS    COLORGROUP SYSTEM
2 22 23
@<TRIPOS>COMMENT
> <Gold.Version>
2022.3.0

> <Gold.Id.Protein>
unknown|5uo4_clean|pdb

> <Gold.Protein.RotatedTorsions>
[ 10186 10164 10165 10166 ] final  -48.44 input   69.28 | X-H torsion
[ 10196 10172 10171 10170 ] final   68.35 input   60.01 | X-H torsion
[ 10220 10206 10207 10208 ] final   13.58 input  114.40 | X-H torsion
[ 10226 10212 10210 10207 ] final -169.54 input   59.97 | X-H torsion
[ 10244 10233 10234 10235 ] final -155.89 input  114.32 | X-H torsion
[ 10248 10238 10237 10234 ] final -129.46 input   59.98 | X-H torsion
[ 10266 10255 10256 10257 ] final  136.10 input  104.54 | X-H torsion
[ 11356 11334 11333 11330 ] final -155.14 input   60.02 | X-H torsion
[ 10270 10260 10259 10256 ] final  121.43 input   59.98 | X-H torsion
[ 10298 10279 10280 10281 ] final  129.81 input -125.27 | X-H torsion
[ 13520 10121 10120 10119 ] final -116.96 input   -0.00 | X-H torsion
[ 13523 10167 10166 10165 ] final  -35.88 input   -0.00 | X-H torsion
[ 13526 10209 10208 10207 ] final   -6.56 input    0.00 | X-H torsion
[ 13552 10236 10235 10234 ] final  139.95 input    0.00 | X-H torsion

> <Gold.Protein.ActiveResidues>
 ARG624  LYS625  THR626  SER627  SER628  LEU629  TRP630  LEU643  TYR644  GLN647 
 ILE653  VAL654  ASP655  HIS657  SER658  ALA659  GLU661  SER662 

> <Gold.Protein.RotatedAtoms>
  107.7818  225.0527  350.2822 H   0  0  0  0  0  0  0  0  0  0  0  0  # atno 10186 bound_to 10164
  106.2215  225.5774  356.6170 H   0  0  0  0  0  0  0  0  0  0  0  0  # atno 10196 bound_to 10172
  106.4573  224.9106  358.1155 H   0  0  0  0  0  0  0  0  0  0  0  0  # atno 10197 bound_to 10172
  107.3142  226.2550  357.6635 H   0  0  0  0  0  0  0  0  0  0  0  0  # atno 10198 bound_to 10172
  109.3541  228.1096  352.0580 H   0  0  0  0  0  0  0  0  0  0  0  0  # atno 10220 bound_to 10206
  108.3390  232.0722  351.8109 H   0  0  0  0  0  0  0  0  0  0  0  0  # atno 10226 bound_to 10212
  110.8084  230.2319  352.1241 H   0  0  0  0  0  0  0  0  0  0  0  0  # atno 10244 bound_to 10233
  111.4247  228.4008  355.4960 H   0  0  0  0  0  0  0  0  0  0  0  0  # atno 10248 bound_to 10238
  112.3631  227.1716  351.9650 H   0  0  0  0  0  0  0  0  0  0  0  0  # atno 10266 bound_to 10255
  113.0444  224.9374  348.7136 H   0  0  0  0  0  0  0  0  0  0  0  0  # atno 10270 bound_to 10260
  115.0117  228.3600  350.3294 H   0  0  0  0  0  0  0  0  0  0  0  0  # atno 10298 bound_to 10279
  104.7532  239.0283  356.1255 H   0  0  0  0  0  0  0  0  0  0  0  0  # atno 11356 bound_to 11334
  105.9655  226.4249  350.6134 LP  0  0  0  0  0  0  0  0  0  0  0  0  # atno 13520 bound_to 10121
  105.1751  225.2165  351.5699 LP  0  0  0  0  0  0  0  0  0  0  0  0  # atno 13521 bound_to 10121
  108.2459  224.0988  351.6709 LP  0  0  0  0  0  0  0  0  0  0  0  0  # atno 13522 bound_to 10164
  110.7794  225.9564  350.8270 LP  0  0  0  0  0  0  0  0  0  0  0  0  # atno 13523 bound_to 10167
  110.4557  227.1223  349.5877 LP  0  0  0  0  0  0  0  0  0  0  0  0  # atno 13524 bound_to 10167
  108.1027  228.1413  350.8404 LP  0  0  0  0  0  0  0  0  0  0  0  0  # atno 13525 bound_to 10206
  111.9484  229.7087  349.1236 LP  0  0  0  0  0  0  0  0  0  0  0  0  # atno 13526 bound_to 10209
  113.0561  229.8964  350.4419 LP  0  0  0  0  0  0  0  0  0  0  0  0  # atno 13527 bound_to 10209
  109.7845  231.4511  352.2265 LP  0  0  0  0  0  0  0  0  0  0  0  0  # atno 13528 bound_to 10212
  108.4425  230.5236  352.3000 LP  0  0  0  0  0  0  0  0  0  0  0  0  # atno 13529 bound_to 10212
  111.0927  228.5194  351.8902 LP  0  0  0  0  0  0  0  0  0  0  0  0  # atno 13530 bound_to 10233
  112.9748  227.9161  355.3988 LP  0  0  0  0  0  0  0  0  0  0  0  0  # atno 13531 bound_to 10238
  111.9697  227.7068  354.1290 LP  0  0  0  0  0  0  0  0  0  0  0  0  # atno 13532 bound_to 10238
  113.5562  228.4418  351.8431 LP  0  0  0  0  0  0  0  0  0  0  0  0  # atno 13533 bound_to 10255
  105.4247  238.6120  354.7029 LP  0  0  0  0  0  0  0  0  0  0  0  0  # atno 13550 bound_to 11334
  103.8156  238.8713  354.8047 LP  0  0  0  0  0  0  0  0  0  0  0  0  # atno 13551 bound_to 11334
  115.3882  227.7335  353.1066 LP  0  0  0  0  0  0  0  0  0  0  0  0  # atno 13552 bound_to 10236
  115.3678  229.4438  352.8337 LP  0  0  0  0  0  0  0  0  0  0  0  0  # atno 13553 bound_to 10236
  112.8835  226.4970  349.1503 LP  0  0  0  0  0  0  0  0  0  0  0  0  # atno 13554 bound_to 10260
  111.7689  225.3972  349.6139 LP  0  0  0  0  0  0  0  0  0  0  0  0  # atno 13555 bound_to 10260
  113.5876  227.9343  349.4009 LP  0  0  0  0  0  0  0  0  0  0  0  0  # atno 13556 bound_to 10279

> <Gold.Score>
     Fitness  S(hb_ext) S(vdw_ext)  S(hb_int)    S(int)      intcor
     25.98       0.00      19.01       0.00      -0.16      -0.79

> <Gold.Goldscore.Fitness>
25.9801

> <Gold.Goldscore.Internal.Vdw>
-0.3962

> <Gold.Goldscore.Internal.Torsion>
-0.5467

> <Gold.Goldscore.External.Vdw>
19.0078

> <Gold.Goldscore.Internal.HBond>
0.0000

> <Gold.Goldscore.External.HBond>
0.0000

> <Gold.Goldscore.Internal.Correction>
-0.7872

> <Gold.Goldscore.Internal.Vdw.Weighted>
-0.3962

> <Gold.Goldscore.Internal.Torsion.Weighted>
-0.5467

> <Gold.Goldscore.External.Vdw.Weighted>
26.1357

> <Gold.Goldscore.Internal.HBond.Weighted>
0.0000

> <Gold.Goldscore.External.HBond.Weighted>
0.0000

> <Gold.Goldscore.Internal.Correction.Weighted>
-0.7872

> <Gold.Rescore>
     Score     S(PLP)   S(hbond)     S(cho)   S(metal)  DE(clash)   DE(tors)     intcor
     26.64     -26.14       1.00       0.00       0.00       0.00       1.25       ----

> <Gold.PLP.Fitness>
26.6353

> <Gold.PLP.PLP>
-26.1379

> <Gold.PLP.part.hbond>
-2.0000

> <Gold.PLP.part.metal>
0.0000

> <Gold.PLP.part.buried>
-5.0038

> <Gold.PLP.part.nonpolar>
-19.7251

> <Gold.PLP.part.repulsive>
0.0607

> <Gold.PLP.ligand.clash>
0.0000

> <Gold.PLP.ligand.torsion>
1.2513

> <Gold.PLP.Chemscore.Hbond>
1.0000

> <Gold.PLP.Chemscore.CHOScore>
0.0000

> <Gold.PLP.Chemscore.Metal>
0.0000

> <Gold.PLP.Chemscore.Internal.Correction>
   9.000000E+99

