#       Name:                CT1002167954
#       Creating user name   hitesit
#       Creation time:       Sun Apr 16 20:25:30 2023


#       File generated by GOLD software.
#

@<TRIPOS>MOLECULE
CT1002167954|ligand_prepared|mol2|1|dock1
    29    30     1
SMALL
NO_CHARGES


@<TRIPOS>ATOM
      1 C1         228.9397  25.7830  13.4060 C.3            1 RES1               0.0000
      2 C2         228.8135  24.5379  12.5045 C.ar           1 RES1               0.0000
      3 C3         230.3968  25.8408  13.8552 C.2            1 RES1               0.0000
      4 C4         228.5031  26.9711  12.5560 C.2            1 RES1               0.0000
      5 C5         228.0396  25.7383  14.6627 C.3            1 RES1               0.0000
      6 C6         228.9063  23.2591  13.0455 C.ar           1 RES1               0.0000
      7 C7         228.6020  24.6520  11.1331 C.ar           1 RES1               0.0000
      8 N8         231.1951  26.7909  13.2896 N.am           1 RES1               0.0000
      9 O9         230.8483  25.0396  14.6642 O.2            1 RES1               0.0000
     10 N10        229.4439  27.9171  12.2434 N.am           1 RES1               0.0000
     11 O11        227.3570  27.0880  12.1401 O.2            1 RES1               0.0000
     12 C12        227.8118  27.0988  15.3024 C.3            1 RES1               0.0000
     13 C13        228.7888  22.1349  12.2451 C.ar           1 RES1               0.0000
     14 C14        228.4851  23.5264  10.3344 C.ar           1 RES1               0.0000
     15 C15        230.7773  27.8651  12.5459 C.2            1 RES1               0.0000
     16 C16        228.5778  22.2677  10.8892 C.ar           1 RES1               0.0000
     17 O17        231.5716  28.7280  12.1828 O.2            1 RES1               0.0000
     18 H18        227.0679  25.3110  14.3860 H              1 RES1               0.0000
     19 H19        228.4999  25.0726  15.4033 H              1 RES1               0.0000
     20 H20        229.0746  23.1348  14.1101 H              1 RES1               0.0000
     21 H21        228.5269  25.6321  10.6746 H              1 RES1               0.0000
     22 H22        232.1953  26.6936  13.4328 H              1 RES1               0.0000
     23 H23        229.1202  28.7360  11.7385 H              1 RES1               0.0000
     24 H24        227.1741  27.0107  16.1795 H              1 RES1               0.0000
     25 H25        228.7557  27.5421  15.6128 H              1 RES1               0.0000
     26 H26        227.3321  27.7790  14.6016 H              1 RES1               0.0000
     27 H27        228.8639  21.1465  12.6864 H              1 RES1               0.0000
     28 H28        228.3197  23.6357   9.2676 H              1 RES1               0.0000
     29 H29        228.4854  21.3869  10.2624 H              1 RES1               0.0000
@<TRIPOS>BOND
    1    1    2 1     
    2    1    3 1     
    3    1    4 1     
    4    1    5 1     
    5    2    6 ar    
    6    2    7 ar    
    7    3    8 1     
    8    3    9 2     
    9    4   10 1     
   10    4   11 2     
   11    5   12 1     
   12    5   18 1     
   13    5   19 1     
   14    6   13 ar    
   15    6   20 1     
   16    7   14 ar    
   17    7   21 1     
   18    8   15 1     
   19    8   22 1     
   20   10   15 1     
   21   10   23 1     
   22   12   24 1     
   23   12   25 1     
   24   12   26 1     
   25   13   16 ar    
   26   13   27 1     
   27   14   16 ar    
   28   14   28 1     
   29   15   17 2     
   30   16   29 1     
@<TRIPOS>SUBSTRUCTURE
      1 RES1           1
@<TRIPOS>SET
DONOR_HYDROGENS      STATIC     ATOMS    <user>   **** ""
2 22 23
ATOM$RED        STATIC     ATOMS    COLORGROUP SYSTEM
2 22 23
@<TRIPOS>COMMENT
> <Gold.Version>
2022.3.0

> <Gold.Id.Protein>
unknown|4v3u_clean|pdb

> <Gold.Protein.RotatedTorsions>
[  594  544  543  542 ] final   52.09 input   59.98 | X-H torsion
[  739  695  696  697 ] final   -9.53 input   98.51 | X-H torsion
[ 2556 2523 2524 2525 ] final   56.48 input  111.11 | X-H torsion
[ 2632 2595 2596 2597 ] final  170.01 input   53.40 | X-H torsion
[ 26082 26043 26042 26040 ] final   34.97 input   60.02 | X-H torsion
[ 27179 27119 27118 27114 ] final  107.88 input   60.01 | X-H torsion
[ 7425 7411 7412 7413 ] final  -17.38 input   83.97 | X-H torsion
[ 7476 7453 7454 7455 ] final -113.30 input   94.79 | X-H torsion
[ 7522 7511 7512 7513 ] final  -40.76 input   85.82 | X-H torsion
[ 17193 17173 17174 17175 ] final  -51.50 input   42.33 | X-H torsion
[ 17249 17217 17218 17219 ] final  160.04 input  107.71 | X-H torsion
[ 18293 18271 18272 18273 ] final  140.45 input   26.15 | X-H torsion
[ 18325 18311 18312 18313 ] final  -45.14 input   53.27 | X-H torsion
[ 18407 18359 18360 18361 ] final  -29.80 input   33.85 | X-H torsion
[ 18493 18451 18452 18453 ] final   13.91 input  113.35 | X-H torsion
[ 18561 18527 18528 18529 ] final   79.35 input   85.91 | X-H torsion
[ 18501 18462 18461 18459 ] final  122.01 input   59.98 | X-H torsion
[ 18241 18201 18202 18203 ] final   67.29 input   44.19 | X-H torsion
[ 18297 18276 18275 18272 ] final   37.52 input   59.98 | X-H torsion
[ 10103 10092 10091 10088 ] final -176.97 input   59.98 | X-H torsion
[ 17301 17279 17280 17281 ] final -174.61 input   44.55 | X-H torsion
[ 16993 16954 16953 16951 ] final  -29.19 input   59.99 | X-H torsion
[ 11475 11457 11458 11459 ] final -113.18 input   48.15 | X-H torsion
[ 11539 11523 11524 11525 ] final -101.08 input  117.79 | X-H torsion
[ 11615 11599 11600 11601 ] final   65.44 input   58.98 | X-H torsion
[ 11423 11412 11411 11408 ] final -104.00 input   60.01 | X-H torsion
[ 27181 27121 27120 27118 ] final  147.11 input   60.02 | X-H torsion
[ 10139 10129 10130 10131 ] final  168.06 input   28.23 | X-H torsion
[ 17355 17327 17328 17329 ] final  -84.27 input   73.50 | X-H torsion
[ 27201  698  697  696 ] final  -92.70 input    0.00 | X-H torsion
[ 27204 2526 2525 2524 ] final  113.34 input    0.00 | X-H torsion
[ 27228 7328 7327 7326 ] final   11.90 input    0.00 | X-H torsion
[ 27233 7514 7513 7512 ] final  131.27 input    0.00 | X-H torsion
[ 27236 17124 17123 17122 ] final   87.87 input    0.00 | X-H torsion
[ 27240 18204 18203 18202 ] final -168.71 input    0.00 | X-H torsion
[ 27243 18274 18273 18272 ] final   34.43 input    0.00 | X-H torsion
[ 27246 18314 18313 18312 ] final -152.57 input   -0.00 | X-H torsion
[ 27249 18362 18361 18360 ] final  -67.65 input    0.00 | X-H torsion
[ 27257 17176 17175 17174 ] final  -75.69 input   -0.00 | X-H torsion
[ 27259 17220 17219 17218 ] final  -36.25 input   -0.00 | X-H torsion
[ 27261 17050 17049 17048 ] final  170.92 input    0.00 | X-H torsion
[ 27270 10132 10131 10130 ] final -135.43 input    0.00 | X-H torsion
[ 27272 11410 11409 11408 ] final  -48.12 input   -0.00 | X-H torsion
[ 27279 11602 11601 11600 ] final  -48.88 input    0.00 | X-H torsion
[ 27288 18684 18683 18682 ] final  -18.70 input   -0.00 | X-H torsion

> <Gold.Protein.ActiveResidues>
 LYS309  TRP311  GLU314  MET341  HIS342  TRP414  ALA417  ARG419  CYS420  VAL421 
 GLY422  ARG423  LEU460  SER462  ALA463  SER482  GLN483  LEU484  ILE485  ARG486 
 ALA502  TRP566  TYR567  LEU569  PRO570  ALA571  VAL572  SER573  ASN574  MET575 
 PHE589  SER590  GLY591  TRP592  TYR593  MET594  GLU597  ILE598  ARG601  ASP602 
 ASP605  ARG608  TRP683  PHE696  HIS697  GLU699  TYR711  ASP714  HEM750  H4B760 

> <Gold.Protein.RotatedAtoms>
  221.1434    8.9463   18.6939 H   0  0  0  0  0  0  0  0  0  0  0  0  # atno 594  bound_to 544 
  220.5421    7.6176   17.9067 H   0  0  0  0  0  0  0  0  0  0  0  0  # atno 595  bound_to 544 
  219.9194    8.0622   19.3774 H   0  0  0  0  0  0  0  0  0  0  0  0  # atno 596  bound_to 544 
  227.8271    6.4412   19.9079 H   0  0  0  0  0  0  0  0  0  0  0  0  # atno 739  bound_to 695 
  224.2513   13.2365   25.6332 H   0  0  0  0  0  0  0  0  0  0  0  0  # atno 2556 bound_to 2523
  222.7982   15.1533   24.0628 H   0  0  0  0  0  0  0  0  0  0  0  0  # atno 2632 bound_to 2595
  230.5917   26.3558   22.8275 H   0  0  0  0  0  0  0  0  0  0  0  0  # atno 7425 bound_to 7411
  232.3752   27.3792   21.2812 H   0  0  0  0  0  0  0  0  0  0  0  0  # atno 7476 bound_to 7453
  233.8729   29.6969   20.2779 H   0  0  0  0  0  0  0  0  0  0  0  0  # atno 7522 bound_to 7511
  230.6035   35.3887   13.6381 H   0  0  0  0  0  0  0  0  0  0  0  0  # atno 10103 bound_to 10092
  227.0127   36.0248   10.3085 H   0  0  0  0  0  0  0  0  0  0  0  0  # atno 10139 bound_to 10129
  221.0953   17.9132    9.0641 H   0  0  0  0  0  0  0  0  0  0  0  0  # atno 11423 bound_to 11412
  220.9260   21.8876    9.4949 H   0  0  0  0  0  0  0  0  0  0  0  0  # atno 11475 bound_to 11457
  221.5377   24.0505    7.1292 H   0  0  0  0  0  0  0  0  0  0  0  0  # atno 11539 bound_to 11523
  224.1838   24.5905    5.0984 H   0  0  0  0  0  0  0  0  0  0  0  0  # atno 11615 bound_to 11599
  228.5405   21.0878    7.0313 H   0  0  0  0  0  0  0  0  0  0  0  0  # atno 16993 bound_to 16954
  226.9538   25.9877    9.2219 H   0  0  0  0  0  0  0  0  0  0  0  0  # atno 17193 bound_to 17173
  225.1066   26.2741   11.2779 H   0  0  0  0  0  0  0  0  0  0  0  0  # atno 17249 bound_to 17217
  221.5747   25.6357   11.0115 H   0  0  0  0  0  0  0  0  0  0  0  0  # atno 17301 bound_to 17279
  218.4601   24.7674   12.2929 H   0  0  0  0  0  0  0  0  0  0  0  0  # atno 17355 bound_to 17327
  221.7714   29.3292   12.1808 H   0  0  0  0  0  0  0  0  0  0  0  0  # atno 18241 bound_to 18201
  224.3173   31.3937   10.6614 H   0  0  0  0  0  0  0  0  0  0  0  0  # atno 18293 bound_to 18271
  226.6382   32.8217    9.0549 H   0  0  0  0  0  0  0  0  0  0  0  0  # atno 18297 bound_to 18276
  228.3772   31.0372   10.1064 H   0  0  0  0  0  0  0  0  0  0  0  0  # atno 18325 bound_to 18311
  231.6213   30.1632   11.3050 H   0  0  0  0  0  0  0  0  0  0  0  0  # atno 18407 bound_to 18359
  234.7844   28.8576    9.6048 H   0  0  0  0  0  0  0  0  0  0  0  0  # atno 18493 bound_to 18451
  229.8514   22.9714    7.4695 H   0  0  0  0  0  0  0  0  0  0  0  0  # atno 18501 bound_to 18462
  235.2205   25.5629   12.2884 H   0  0  0  0  0  0  0  0  0  0  0  0  # atno 18561 bound_to 18527
  224.4678   20.8061   20.5337 H   0  0  0  0  0  0  0  0  0  0  0  0  # atno 26082 bound_to 26043
  231.3128   11.7495   21.7470 H   0  0  0  0  0  0  0  0  0  0  0  0  # atno 27179 bound_to 27119
  229.2180   13.2992   25.2457 H   0  0  0  0  0  0  0  0  0  0  0  0  # atno 27181 bound_to 27121
  226.9788    7.6605   20.8239 LP  0  0  0  0  0  0  0  0  0  0  0  0  # atno 27200 bound_to 695 
  226.2649    7.1304   15.8675 LP  0  0  0  0  0  0  0  0  0  0  0  0  # atno 27201 bound_to 698 
  227.3131    8.5091   15.8867 LP  0  0  0  0  0  0  0  0  0  0  0  0  # atno 27202 bound_to 698 
  225.8099   13.9396   25.9833 LP  0  0  0  0  0  0  0  0  0  0  0  0  # atno 27203 bound_to 2523
  222.9199   17.4621   23.8777 LP  0  0  0  0  0  0  0  0  0  0  0  0  # atno 27204 bound_to 2526
  223.9500   17.5634   25.2665 LP  0  0  0  0  0  0  0  0  0  0  0  0  # atno 27205 bound_to 2526
  222.8131   14.5664   25.7114 LP  0  0  0  0  0  0  0  0  0  0  0  0  # atno 27206 bound_to 2595
  224.3932   19.2442   20.9852 LP  0  0  0  0  0  0  0  0  0  0  0  0  # atno 27210 bound_to 26043
  224.3712   20.4250   22.1130 LP  0  0  0  0  0  0  0  0  0  0  0  0  # atno 27211 bound_to 26043
  231.1814   12.8587   20.5629 LP  0  0  0  0  0  0  0  0  0  0  0  0  # atno 27214 bound_to 27119
  230.0001   11.7533   20.7846 LP  0  0  0  0  0  0  0  0  0  0  0  0  # atno 27215 bound_to 27119
  230.7010   23.6105   21.4383 LP  0  0  0  0  0  0  0  0  0  0  0  0  # atno 27228 bound_to 7328
  231.4120   25.0320   20.7500 LP  0  0  0  0  0  0  0  0  0  0  0  0  # atno 27229 bound_to 7328
  229.0486   26.4467   22.0181 LP  0  0  0  0  0  0  0  0  0  0  0  0  # atno 27230 bound_to 7411
  232.7794   27.1613   19.5945 LP  0  0  0  0  0  0  0  0  0  0  0  0  # atno 27231 bound_to 7453
  233.4833   28.8119   18.8238 LP  0  0  0  0  0  0  0  0  0  0  0  0  # atno 27232 bound_to 7511
  232.4098   33.6710   18.4672 LP  0  0  0  0  0  0  0  0  0  0  0  0  # atno 27233 bound_to 7514
  234.0089   33.4892   17.8269 LP  0  0  0  0  0  0  0  0  0  0  0  0  # atno 27234 bound_to 7514
  227.7605   29.0682    9.0545 LP  0  0  0  0  0  0  0  0  0  0  0  0  # atno 27236 bound_to 17124
  227.9368   28.0863   10.4703 LP  0  0  0  0  0  0  0  0  0  0  0  0  # atno 27237 bound_to 17124
  226.7648   26.7388    7.6569 LP  0  0  0  0  0  0  0  0  0  0  0  0  # atno 27238 bound_to 17173
  223.8255   26.8966   10.2566 LP  0  0  0  0  0  0  0  0  0  0  0  0  # atno 27239 bound_to 17217
  225.1720   28.9264   10.9667 LP  0  0  0  0  0  0  0  0  0  0  0  0  # atno 27240 bound_to 18204
  223.4638   28.7492   11.1918 LP  0  0  0  0  0  0  0  0  0  0  0  0  # atno 27241 bound_to 18204
  225.2056   31.6966   12.1307 LP  0  0  0  0  0  0  0  0  0  0  0  0  # atno 27242 bound_to 18271
  226.6260   33.2710   11.6181 LP  0  0  0  0  0  0  0  0  0  0  0  0  # atno 27243 bound_to 18274
  228.2010   33.5658   10.9604 LP  0  0  0  0  0  0  0  0  0  0  0  0  # atno 27244 bound_to 18274
  228.2634   30.6316   11.8051 LP  0  0  0  0  0  0  0  0  0  0  0  0  # atno 27245 bound_to 18311
  231.1931   31.0027    8.3110 LP  0  0  0  0  0  0  0  0  0  0  0  0  # atno 27246 bound_to 18314
  230.2087   32.3561    8.7573 LP  0  0  0  0  0  0  0  0  0  0  0  0  # atno 27247 bound_to 18314
  231.9433   31.7392   10.6181 LP  0  0  0  0  0  0  0  0  0  0  0  0  # atno 27248 bound_to 18359
  234.2471   29.3933   12.1708 LP  0  0  0  0  0  0  0  0  0  0  0  0  # atno 27249 bound_to 18362
  233.1477   28.0622   12.0317 LP  0  0  0  0  0  0  0  0  0  0  0  0  # atno 27250 bound_to 18362
  233.3152   28.0219    9.1640 LP  0  0  0  0  0  0  0  0  0  0  0  0  # atno 27251 bound_to 18451
  236.0566   26.7276   11.2893 LP  0  0  0  0  0  0  0  0  0  0  0  0  # atno 27252 bound_to 18527
  222.7486   25.9287    8.4850 LP  0  0  0  0  0  0  0  0  0  0  0  0  # atno 27257 bound_to 17176
  223.7522   24.5800    8.9020 LP  0  0  0  0  0  0  0  0  0  0  0  0  # atno 27258 bound_to 17176
  221.9650   27.8269   12.3438 LP  0  0  0  0  0  0  0  0  0  0  0  0  # atno 27259 bound_to 17220
  220.7575   27.6468   11.1151 LP  0  0  0  0  0  0  0  0  0  0  0  0  # atno 27260 bound_to 17220
  227.8621   25.6275    6.1404 LP  0  0  0  0  0  0  0  0  0  0  0  0  # atno 27261 bound_to 17050
  227.7052   26.3673    4.5821 LP  0  0  0  0  0  0  0  0  0  0  0  0  # atno 27262 bound_to 17050
  230.3988   21.8677    8.5325 LP  0  0  0  0  0  0  0  0  0  0  0  0  # atno 27263 bound_to 18462
  230.8697   21.8046    6.9701 LP  0  0  0  0  0  0  0  0  0  0  0  0  # atno 27264 bound_to 18462
  221.0618   30.4752   11.0666 LP  0  0  0  0  0  0  0  0  0  0  0  0  # atno 27265 bound_to 18201
  225.1192   32.4402    8.6116 LP  0  0  0  0  0  0  0  0  0  0  0  0  # atno 27266 bound_to 18276
  226.3569   32.2180    7.5698 LP  0  0  0  0  0  0  0  0  0  0  0  0  # atno 27267 bound_to 18276
  231.0135   35.9122   12.1530 LP  0  0  0  0  0  0  0  0  0  0  0  0  # atno 27268 bound_to 10092
  230.3612   34.4279   12.3475 LP  0  0  0  0  0  0  0  0  0  0  0  0  # atno 27269 bound_to 10092
  223.4877   33.1963   11.0514 LP  0  0  0  0  0  0  0  0  0  0  0  0  # atno 27270 bound_to 10132
  225.0275   33.6443   11.7058 LP  0  0  0  0  0  0  0  0  0  0  0  0  # atno 27271 bound_to 10132
  220.5539   22.8318   11.3712 LP  0  0  0  0  0  0  0  0  0  0  0  0  # atno 27272 bound_to 11410
  222.2377   22.6278   11.0201 LP  0  0  0  0  0  0  0  0  0  0  0  0  # atno 27273 bound_to 11410
  220.9351   24.3342   11.9813 LP  0  0  0  0  0  0  0  0  0  0  0  0  # atno 27274 bound_to 17279
  228.5558   19.7376    6.1233 LP  0  0  0  0  0  0  0  0  0  0  0  0  # atno 27275 bound_to 16954
  227.1961   20.6351    6.2343 LP  0  0  0  0  0  0  0  0  0  0  0  0  # atno 27276 bound_to 16954
  221.5018   20.9141    8.1565 LP  0  0  0  0  0  0  0  0  0  0  0  0  # atno 27277 bound_to 11457
  223.0626   24.8917    7.0036 LP  0  0  0  0  0  0  0  0  0  0  0  0  # atno 27278 bound_to 11523
  226.6457   22.7417    4.4551 LP  0  0  0  0  0  0  0  0  0  0  0  0  # atno 27279 bound_to 11602
  225.7867   21.5281    5.3435 LP  0  0  0  0  0  0  0  0  0  0  0  0  # atno 27280 bound_to 11602
  222.6615   24.3623    4.2750 LP  0  0  0  0  0  0  0  0  0  0  0  0  # atno 27283 bound_to 11599
  222.4035   18.3989    9.9019 LP  0  0  0  0  0  0  0  0  0  0  0  0  # atno 27286 bound_to 11412
  221.7138   19.3969    8.8088 LP  0  0  0  0  0  0  0  0  0  0  0  0  # atno 27287 bound_to 11412
  234.2017   17.9414   11.6903 LP  0  0  0  0  0  0  0  0  0  0  0  0  # atno 27288 bound_to 18684
  234.1587   18.0291    9.9610 LP  0  0  0  0  0  0  0  0  0  0  0  0  # atno 27289 bound_to 18684

> <Gold.Score>
     Fitness  S(hb_ext) S(vdw_ext)  S(hb_int)    S(int)      intcor
     44.81       3.07      32.33       0.00      -2.71      -0.82

> <Gold.Goldscore.Fitness>
44.8149

> <Gold.Goldscore.Internal.Vdw>
-2.6501

> <Gold.Goldscore.Internal.Torsion>
-0.8796

> <Gold.Goldscore.External.Vdw>
32.3343

> <Gold.Goldscore.Internal.HBond>
0.0000

> <Gold.Goldscore.External.HBond>
3.0663

> <Gold.Goldscore.Internal.Correction>
-0.8186

> <Gold.Goldscore.Hbonds>
donor molecule, donor type, donor heavy atom, donor atom, acceptor molecule, acceptor atom, score
      P1  H 17217 17249       L1    11  0.39
      P1  H 18359 18407       L1    17  0.45
      L1  H    10    23       P1 18311  0.23

> <Gold.Goldscore.Internal.Vdw.Weighted>
-2.6501

> <Gold.Goldscore.Internal.Torsion.Weighted>
-0.8796

> <Gold.Goldscore.External.Vdw.Weighted>
44.4597

> <Gold.Goldscore.Internal.HBond.Weighted>
0.0000

> <Gold.Goldscore.External.HBond.Weighted>
3.0663

> <Gold.Goldscore.Internal.Correction.Weighted>
-0.8186

> <Gold.Rescore>
     Score     S(PLP)   S(hbond)     S(cho)   S(metal)  DE(clash)   DE(tors)     intcor
     36.78     -32.77       2.23       0.00       0.00       0.81       0.93       ----

> <Gold.PLP.Fitness>
36.7791

> <Gold.PLP.PLP>
-32.7680

> <Gold.PLP.part.hbond>
-4.5434

> <Gold.PLP.part.metal>
0.0000

> <Gold.PLP.part.buried>
12.0441

> <Gold.PLP.part.nonpolar>
-44.1581

> <Gold.PLP.part.repulsive>
3.6735

> <Gold.PLP.ligand.clash>
0.8137

> <Gold.PLP.ligand.torsion>
0.9269

> <Gold.PLP.Chemscore.Hbond>
2.2262

> <Gold.PLP.Chemscore.CHOScore>
0.0000

> <Gold.PLP.Chemscore.Metal>
0.0000

> <Gold.Chemscore.Hbonds>
donor molecule, donor type, donor heavy atom, donor atom, acceptor molecule, acceptor atom, score
      L1  H    10    23       P1 18311  0.11
      P1  H 18359 18407       L1    17  0.96

> <Gold.PLP.Chemscore.Internal.Correction>
   9.000000E+99

