#       Name:                CT1002167954
#       Creating user name   hitesit
#       Creation time:       Sun Apr 16 20:25:33 2023


#       File generated by GOLD software.
#

@<TRIPOS>MOLECULE
CT1002167954|ligand_prepared|mol2|1|dock6
    29    30     1
SMALL
NO_CHARGES


@<TRIPOS>ATOM
      1 C1         229.1631  19.4506  11.5664 C.3            1 RES1               0.0000
      2 C2         227.7991  18.8708  11.9932 C.ar           1 RES1               0.0000
      3 C3         229.1532  19.4906  10.0411 C.2            1 RES1               0.0000
      4 C4         229.2682  20.8221  12.2241 C.2            1 RES1               0.0000
      5 C5         230.3732  18.6055  12.0278 C.3            1 RES1               0.0000
      6 C6         227.5218  17.5170  11.8286 C.ar           1 RES1               0.0000
      7 C7         226.8109  19.6752  12.5545 C.ar           1 RES1               0.0000
      8 N8         229.0155  20.7080   9.4419 N.am           1 RES1               0.0000
      9 O9         229.2254  18.4656   9.3745 O.2            1 RES1               0.0000
     10 N10        229.2890  21.9245  11.4104 N.am           1 RES1               0.0000
     11 O11        229.3165  20.9590  13.4403 O.2            1 RES1               0.0000
     12 C12        230.2746  18.1289  13.4684 C.3            1 RES1               0.0000
     13 C13        226.3020  16.9860  12.2137 C.ar           1 RES1               0.0000
     14 C14        225.5916  19.1422  12.9388 C.ar           1 RES1               0.0000
     15 C15        229.1365  21.9313  10.0507 C.2            1 RES1               0.0000
     16 C16        225.3363  17.7980  12.7694 C.ar           1 RES1               0.0000
     17 O17        229.1113  22.9679   9.3935 O.2            1 RES1               0.0000
     18 H18        230.4637  17.7308  11.3719 H              1 RES1               0.0000
     19 H19        231.2854  19.2044  11.9158 H              1 RES1               0.0000
     20 H20        228.2686  16.8630  11.3908 H              1 RES1               0.0000
     21 H21        226.9893  20.7357  12.6962 H              1 RES1               0.0000
     22 H22        228.8029  20.7088   8.4494 H              1 RES1               0.0000
     23 H23        229.4315  22.8233  11.8600 H              1 RES1               0.0000
     24 H24        231.1486  17.5410  13.7408 H              1 RES1               0.0000
     25 H25        230.2086  18.9739  14.1506 H              1 RES1               0.0000
     26 H26        229.3917  17.5090  13.6100 H              1 RES1               0.0000
     27 H27        226.1055  15.9277  12.0771 H              1 RES1               0.0000
     28 H28        224.8343  19.7851  13.3751 H              1 RES1               0.0000
     29 H29        224.3810  17.3817  13.0714 H              1 RES1               0.0000
@<TRIPOS>BOND
    1    1    2 1     
    2    1    3 1     
    3    1    4 1     
    4    1    5 1     
    5    2    6 ar    
    6    2    7 ar    
    7    3    8 1     
    8    3    9 2     
    9    4   10 1     
   10    4   11 2     
   11    5   12 1     
   12    5   18 1     
   13    5   19 1     
   14    6   13 ar    
   15    6   20 1     
   16    7   14 ar    
   17    7   21 1     
   18    8   15 1     
   19    8   22 1     
   20   10   15 1     
   21   10   23 1     
   22   12   24 1     
   23   12   25 1     
   24   12   26 1     
   25   13   16 ar    
   26   13   27 1     
   27   14   16 ar    
   28   14   28 1     
   29   15   17 2     
   30   16   29 1     
@<TRIPOS>SUBSTRUCTURE
      1 RES1           1
@<TRIPOS>SET
DONOR_HYDROGENS      STATIC     ATOMS    <user>   **** ""
2 22 23
ATOM$RED        STATIC     ATOMS    COLORGROUP SYSTEM
2 22 23
@<TRIPOS>COMMENT
> <Gold.Version>
2022.3.0

> <Gold.Id.Protein>
unknown|4v3u_clean|pdb

> <Gold.Protein.RotatedTorsions>
[  594  544  543  542 ] final -105.94 input   59.98 | X-H torsion
[  739  695  696  697 ] final  163.34 input   98.51 | X-H torsion
[ 2556 2523 2524 2525 ] final  154.67 input  111.11 | X-H torsion
[ 2632 2595 2596 2597 ] final  -38.36 input   53.40 | X-H torsion
[ 26082 26043 26042 26040 ] final  -79.38 input   60.02 | X-H torsion
[ 27179 27119 27118 27114 ] final  142.70 input   60.01 | X-H torsion
[ 7425 7411 7412 7413 ] final    6.57 input   83.97 | X-H torsion
[ 7476 7453 7454 7455 ] final  -12.83 input   94.79 | X-H torsion
[ 7522 7511 7512 7513 ] final   96.20 input   85.82 | X-H torsion
[ 17193 17173 17174 17175 ] final   66.86 input   42.33 | X-H torsion
[ 17249 17217 17218 17219 ] final  -79.18 input  107.71 | X-H torsion
[ 18293 18271 18272 18273 ] final  123.43 input   26.15 | X-H torsion
[ 18325 18311 18312 18313 ] final  115.31 input   53.27 | X-H torsion
[ 18407 18359 18360 18361 ] final -152.26 input   33.85 | X-H torsion
[ 18493 18451 18452 18453 ] final  153.45 input  113.35 | X-H torsion
[ 18561 18527 18528 18529 ] final -166.96 input   85.91 | X-H torsion
[ 18501 18462 18461 18459 ] final  -74.49 input   59.98 | X-H torsion
[ 18241 18201 18202 18203 ] final   87.64 input   44.19 | X-H torsion
[ 18297 18276 18275 18272 ] final -170.81 input   59.98 | X-H torsion
[ 10103 10092 10091 10088 ] final -117.29 input   59.98 | X-H torsion
[ 17301 17279 17280 17281 ] final  147.21 input   44.55 | X-H torsion
[ 16993 16954 16953 16951 ] final -179.15 input   59.99 | X-H torsion
[ 11475 11457 11458 11459 ] final   85.83 input   48.15 | X-H torsion
[ 11539 11523 11524 11525 ] final -132.55 input  117.79 | X-H torsion
[ 11615 11599 11600 11601 ] final   94.86 input   58.98 | X-H torsion
[ 11423 11412 11411 11408 ] final  134.40 input   60.01 | X-H torsion
[ 27181 27121 27120 27118 ] final -101.95 input   60.02 | X-H torsion
[ 10139 10129 10130 10131 ] final -150.75 input   28.23 | X-H torsion
[ 17355 17327 17328 17329 ] final   92.67 input   73.50 | X-H torsion
[ 27201  698  697  696 ] final   72.60 input    0.00 | X-H torsion
[ 27204 2526 2525 2524 ] final   12.29 input    0.00 | X-H torsion
[ 27228 7328 7327 7326 ] final   78.97 input    0.00 | X-H torsion
[ 27233 7514 7513 7512 ] final -178.36 input    0.00 | X-H torsion
[ 27236 17124 17123 17122 ] final   64.04 input    0.00 | X-H torsion
[ 27240 18204 18203 18202 ] final  -11.91 input    0.00 | X-H torsion
[ 27243 18274 18273 18272 ] final   91.97 input    0.00 | X-H torsion
[ 27246 18314 18313 18312 ] final    5.71 input   -0.00 | X-H torsion
[ 27249 18362 18361 18360 ] final   19.85 input    0.00 | X-H torsion
[ 27257 17176 17175 17174 ] final  -14.02 input   -0.00 | X-H torsion
[ 27259 17220 17219 17218 ] final   55.60 input   -0.00 | X-H torsion
[ 27261 17050 17049 17048 ] final -130.42 input    0.00 | X-H torsion
[ 27270 10132 10131 10130 ] final  -86.62 input    0.00 | X-H torsion
[ 27272 11410 11409 11408 ] final -120.39 input   -0.00 | X-H torsion
[ 27279 11602 11601 11600 ] final  157.89 input    0.00 | X-H torsion
[ 27288 18684 18683 18682 ] final   -6.53 input   -0.00 | X-H torsion

> <Gold.Protein.ActiveResidues>
 LYS309  TRP311  GLU314  MET341  HIS342  TRP414  ALA417  ARG419  CYS420  VAL421 
 GLY422  ARG423  LEU460  SER462  ALA463  SER482  GLN483  LEU484  ILE485  ARG486 
 ALA502  TRP566  TYR567  LEU569  PRO570  ALA571  VAL572  SER573  ASN574  MET575 
 PHE589  SER590  GLY591  TRP592  TYR593  MET594  GLU597  ILE598  ARG601  ASP602 
 ASP605  ARG608  TRP683  PHE696  HIS697  GLU699  TYR711  ASP714  HEM750  H4B760 

> <Gold.Protein.RotatedAtoms>
  219.8362    7.6200   18.9449 H   0  0  0  0  0  0  0  0  0  0  0  0  # atno 594  bound_to 544 
  220.7922    8.9476   19.2096 H   0  0  0  0  0  0  0  0  0  0  0  0  # atno 595  bound_to 544 
  220.9755    8.0570   17.8234 H   0  0  0  0  0  0  0  0  0  0  0  0  # atno 596  bound_to 544 
  227.0661    7.7261   20.8302 H   0  0  0  0  0  0  0  0  0  0  0  0  # atno 739  bound_to 695 
  225.5141   13.1315   25.2311 H   0  0  0  0  0  0  0  0  0  0  0  0  # atno 2556 bound_to 2523
  222.9836   14.9574   25.7651 H   0  0  0  0  0  0  0  0  0  0  0  0  # atno 2632 bound_to 2595
  230.4647   26.6778   22.9425 H   0  0  0  0  0  0  0  0  0  0  0  0  # atno 7425 bound_to 7411
  232.3770   28.0693   20.1085 H   0  0  0  0  0  0  0  0  0  0  0  0  # atno 7476 bound_to 7453
  232.9528   29.0725   19.0714 H   0  0  0  0  0  0  0  0  0  0  0  0  # atno 7522 bound_to 7511
  230.3077   34.5825   13.2773 H   0  0  0  0  0  0  0  0  0  0  0  0  # atno 10103 bound_to 10092
  226.9942   36.2589   10.8829 H   0  0  0  0  0  0  0  0  0  0  0  0  # atno 10139 bound_to 10129
  222.4072   18.4249    9.8954 H   0  0  0  0  0  0  0  0  0  0  0  0  # atno 11423 bound_to 11412
  221.7291   20.8422    8.3263 H   0  0  0  0  0  0  0  0  0  0  0  0  # atno 11475 bound_to 11457
  221.4722   24.4708    7.3471 H   0  0  0  0  0  0  0  0  0  0  0  0  # atno 11539 bound_to 11523
  224.1453   24.9463    4.8302 H   0  0  0  0  0  0  0  0  0  0  0  0  # atno 11615 bound_to 11599
  228.1068   19.7132    5.9397 H   0  0  0  0  0  0  0  0  0  0  0  0  # atno 16993 bound_to 16954
  226.3940   25.9402    7.8156 H   0  0  0  0  0  0  0  0  0  0  0  0  # atno 17193 bound_to 17173
  224.2049   26.1547   10.0176 H   0  0  0  0  0  0  0  0  0  0  0  0  # atno 17249 bound_to 17217
  221.5063   25.1711   10.6808 H   0  0  0  0  0  0  0  0  0  0  0  0  # atno 17301 bound_to 17279
  219.6701   23.5434   12.6428 H   0  0  0  0  0  0  0  0  0  0  0  0  # atno 17355 bound_to 17327
  221.5913   29.4935   12.3775 H   0  0  0  0  0  0  0  0  0  0  0  0  # atno 18241 bound_to 18201
  224.3906   31.6375   10.6123 H   0  0  0  0  0  0  0  0  0  0  0  0  # atno 18293 bound_to 18271
  225.8497   32.1420    7.5664 H   0  0  0  0  0  0  0  0  0  0  0  0  # atno 18297 bound_to 18276
  228.4273   30.3917   11.7344 H   0  0  0  0  0  0  0  0  0  0  0  0  # atno 18325 bound_to 18311
  231.3324   31.2809   10.2633 H   0  0  0  0  0  0  0  0  0  0  0  0  # atno 18407 bound_to 18359
  233.6997   27.9946    8.6988 H   0  0  0  0  0  0  0  0  0  0  0  0  # atno 18493 bound_to 18451
  230.9499   21.4838    7.5828 H   0  0  0  0  0  0  0  0  0  0  0  0  # atno 18501 bound_to 18462
  235.7417   26.9424   12.1659 H   0  0  0  0  0  0  0  0  0  0  0  0  # atno 18561 bound_to 18527
  224.3968   19.2766   20.8983 H   0  0  0  0  0  0  0  0  0  0  0  0  # atno 26082 bound_to 26043
  230.8398   11.4540   21.6920 H   0  0  0  0  0  0  0  0  0  0  0  0  # atno 27179 bound_to 27119
  230.3107   14.3092   24.8368 H   0  0  0  0  0  0  0  0  0  0  0  0  # atno 27181 bound_to 27121
  227.7281    6.3953   19.9158 LP  0  0  0  0  0  0  0  0  0  0  0  0  # atno 27200 bound_to 695 
  227.1393    8.6043   15.9857 LP  0  0  0  0  0  0  0  0  0  0  0  0  # atno 27201 bound_to 698 
  226.4387    7.0352   15.7684 LP  0  0  0  0  0  0  0  0  0  0  0  0  # atno 27202 bound_to 698 
  224.5668   14.0429   26.3792 LP  0  0  0  0  0  0  0  0  0  0  0  0  # atno 27203 bound_to 2523
  224.2170   17.4900   24.2007 LP  0  0  0  0  0  0  0  0  0  0  0  0  # atno 27204 bound_to 2526
  222.6530   17.5356   24.9436 LP  0  0  0  0  0  0  0  0  0  0  0  0  # atno 27205 bound_to 2526
  222.6335   14.7561   24.0623 LP  0  0  0  0  0  0  0  0  0  0  0  0  # atno 27206 bound_to 2595
  224.3670   20.3347   22.1345 LP  0  0  0  0  0  0  0  0  0  0  0  0  # atno 27210 bound_to 26043
  224.4690   20.8743   20.5966 LP  0  0  0  0  0  0  0  0  0  0  0  0  # atno 27211 bound_to 26043
  231.5531   12.7238   20.9652 LP  0  0  0  0  0  0  0  0  0  0  0  0  # atno 27214 bound_to 27119
  230.1044   12.1856   20.4377 LP  0  0  0  0  0  0  0  0  0  0  0  0  # atno 27215 bound_to 27119
  230.3278   24.0802   20.6929 LP  0  0  0  0  0  0  0  0  0  0  0  0  # atno 27228 bound_to 7328
  231.7851   24.5622   21.4954 LP  0  0  0  0  0  0  0  0  0  0  0  0  # atno 27229 bound_to 7328
  229.1737   26.1294   21.9047 LP  0  0  0  0  0  0  0  0  0  0  0  0  # atno 27230 bound_to 7411
  232.7776   26.4884   20.7379 LP  0  0  0  0  0  0  0  0  0  0  0  0  # atno 27231 bound_to 7453
  234.3852   29.4240   20.0065 LP  0  0  0  0  0  0  0  0  0  0  0  0  # atno 27232 bound_to 7511
  232.9412   34.0093   18.8499 LP  0  0  0  0  0  0  0  0  0  0  0  0  # atno 27233 bound_to 7514
  233.4775   33.1509   17.4443 LP  0  0  0  0  0  0  0  0  0  0  0  0  # atno 27234 bound_to 7514
  228.1133   29.0103    9.0606 LP  0  0  0  0  0  0  0  0  0  0  0  0  # atno 27236 bound_to 17124
  227.5840   28.1442   10.4641 LP  0  0  0  0  0  0  0  0  0  0  0  0  # atno 27237 bound_to 17124
  227.3137   26.7855    9.0358 LP  0  0  0  0  0  0  0  0  0  0  0  0  # atno 27238 bound_to 17173
  224.6915   27.0113   11.4670 LP  0  0  0  0  0  0  0  0  0  0  0  0  # atno 27239 bound_to 17217
  223.5826   28.6988   11.5152 LP  0  0  0  0  0  0  0  0  0  0  0  0  # atno 27240 bound_to 18204
  225.0532   28.9769   10.6433 LP  0  0  0  0  0  0  0  0  0  0  0  0  # atno 27241 bound_to 18204
  225.1330   31.4552   12.1793 LP  0  0  0  0  0  0  0  0  0  0  0  0  # atno 27242 bound_to 18271
  227.2851   33.2445   12.1279 LP  0  0  0  0  0  0  0  0  0  0  0  0  # atno 27243 bound_to 18274
  227.5420   33.5923   10.4506 LP  0  0  0  0  0  0  0  0  0  0  0  0  # atno 27244 bound_to 18274
  228.2149   31.2569   10.2280 LP  0  0  0  0  0  0  0  0  0  0  0  0  # atno 27245 bound_to 18311
  229.9861   32.1174    8.7517 LP  0  0  0  0  0  0  0  0  0  0  0  0  # atno 27246 bound_to 18314
  231.4156   31.2414    8.3166 LP  0  0  0  0  0  0  0  0  0  0  0  0  # atno 27247 bound_to 18314
  232.2241   30.6529   11.6306 LP  0  0  0  0  0  0  0  0  0  0  0  0  # atno 27248 bound_to 18359
  233.0528   29.3029   12.1623 LP  0  0  0  0  0  0  0  0  0  0  0  0  # atno 27249 bound_to 18362
  234.3420   28.1526   12.0403 LP  0  0  0  0  0  0  0  0  0  0  0  0  # atno 27250 bound_to 18362
  234.3777   28.8673   10.0515 LP  0  0  0  0  0  0  0  0  0  0  0  0  # atno 27251 bound_to 18451
  235.5472   25.3794   11.4090 LP  0  0  0  0  0  0  0  0  0  0  0  0  # atno 27252 bound_to 18527
  223.4628   25.7253    7.9985 LP  0  0  0  0  0  0  0  0  0  0  0  0  # atno 27257 bound_to 17176
  223.0380   24.7833    9.3885 LP  0  0  0  0  0  0  0  0  0  0  0  0  # atno 27258 bound_to 17176
  221.9352   27.9005   11.1019 LP  0  0  0  0  0  0  0  0  0  0  0  0  # atno 27259 bound_to 17220
  220.7873   27.5732   12.3570 LP  0  0  0  0  0  0  0  0  0  0  0  0  # atno 27260 bound_to 17220
  227.2720   26.2254    6.0218 LP  0  0  0  0  0  0  0  0  0  0  0  0  # atno 27261 bound_to 17050
  228.2952   25.7694    4.7007 LP  0  0  0  0  0  0  0  0  0  0  0  0  # atno 27262 bound_to 17050
  230.1775   22.7420    6.8987 LP  0  0  0  0  0  0  0  0  0  0  0  0  # atno 27263 bound_to 18462
  229.9845   22.4289    8.4897 LP  0  0  0  0  0  0  0  0  0  0  0  0  # atno 27264 bound_to 18462
  221.2370   30.3154   10.8752 LP  0  0  0  0  0  0  0  0  0  0  0  0  # atno 27265 bound_to 18201
  226.9271   32.7096    8.6463 LP  0  0  0  0  0  0  0  0  0  0  0  0  # atno 27266 bound_to 18276
  225.3425   32.6327    9.0331 LP  0  0  0  0  0  0  0  0  0  0  0  0  # atno 27267 bound_to 18276
  230.9601   36.0598   13.0780 LP  0  0  0  0  0  0  0  0  0  0  0  0  # atno 27268 bound_to 10092
  230.7126   35.0923   11.7860 LP  0  0  0  0  0  0  0  0  0  0  0  0  # atno 27269 bound_to 10092
  224.0104   33.2522   10.5658 LP  0  0  0  0  0  0  0  0  0  0  0  0  # atno 27270 bound_to 10132
  224.5048   33.5884   12.1914 LP  0  0  0  0  0  0  0  0  0  0  0  0  # atno 27271 bound_to 10132
  221.1096   23.4036   10.7330 LP  0  0  0  0  0  0  0  0  0  0  0  0  # atno 27272 bound_to 11410
  221.6820   22.0560   11.6583 LP  0  0  0  0  0  0  0  0  0  0  0  0  # atno 27273 bound_to 11410
  221.0025   24.7925   12.3075 LP  0  0  0  0  0  0  0  0  0  0  0  0  # atno 27274 bound_to 17279
  227.3130   21.0058    6.5287 LP  0  0  0  0  0  0  0  0  0  0  0  0  # atno 27275 bound_to 16954
  228.8757   20.7516    6.9286 LP  0  0  0  0  0  0  0  0  0  0  0  0  # atno 27276 bound_to 16954
  220.7294   21.9196    9.2804 LP  0  0  0  0  0  0  0  0  0  0  0  0  # atno 27277 bound_to 11457
  223.1269   24.4792    6.7897 LP  0  0  0  0  0  0  0  0  0  0  0  0  # atno 27278 bound_to 11523
  226.0147   21.3149    5.0918 LP  0  0  0  0  0  0  0  0  0  0  0  0  # atno 27279 bound_to 11602
  226.4178   22.9548    4.7068 LP  0  0  0  0  0  0  0  0  0  0  0  0  # atno 27280 bound_to 11602
  222.6993   24.0126    4.5386 LP  0  0  0  0  0  0  0  0  0  0  0  0  # atno 27283 bound_to 11599
  221.6928   19.3887    8.7955 LP  0  0  0  0  0  0  0  0  0  0  0  0  # atno 27286 bound_to 11412
  221.1042   17.8920    9.0785 LP  0  0  0  0  0  0  0  0  0  0  0  0  # atno 27287 bound_to 11412
  234.0447   18.0359   11.6795 LP  0  0  0  0  0  0  0  0  0  0  0  0  # atno 27288 bound_to 18684
  234.3158   17.9346    9.9718 LP  0  0  0  0  0  0  0  0  0  0  0  0  # atno 27289 bound_to 18684

> <Gold.Score>
     Fitness  S(hb_ext) S(vdw_ext)  S(hb_int)    S(int)      intcor
     33.60       6.71      21.71       0.00      -2.96      -0.76

> <Gold.Goldscore.Fitness>
33.6040

> <Gold.Goldscore.Internal.Vdw>
-2.9862

> <Gold.Goldscore.Internal.Torsion>
-0.7417

> <Gold.Goldscore.External.Vdw>
21.7143

> <Gold.Goldscore.Internal.HBond>
0.0000

> <Gold.Goldscore.External.HBond>
6.7097

> <Gold.Goldscore.Internal.Correction>
-0.7650

> <Gold.Goldscore.Hbonds>
donor molecule, donor type, donor heavy atom, donor atom, acceptor molecule, acceptor atom, score
      P1  H 11464 11481       L1     9  0.13
      P1  H 19343 19392       L1     9  0.74
      L1  H     8    22       P1 16954  1.00

> <Gold.Goldscore.Internal.Vdw.Weighted>
-2.9862

> <Gold.Goldscore.Internal.Torsion.Weighted>
-0.7417

> <Gold.Goldscore.External.Vdw.Weighted>
29.8572

> <Gold.Goldscore.Internal.HBond.Weighted>
0.0000

> <Gold.Goldscore.External.HBond.Weighted>
6.7097

> <Gold.Goldscore.Internal.Correction.Weighted>
-0.7650

> <Gold.Rescore>
     Score     S(PLP)   S(hbond)     S(cho)   S(metal)  DE(clash)   DE(tors)     intcor
      0.76      -1.32       0.54       0.00       0.00       0.77       0.70       ----

> <Gold.PLP.Fitness>
0.7568

> <Gold.PLP.PLP>
-1.3235

> <Gold.PLP.part.hbond>
-3.0762

> <Gold.PLP.part.metal>
0.0000

> <Gold.PLP.part.buried>
15.4694

> <Gold.PLP.part.nonpolar>
-16.8559

> <Gold.PLP.part.repulsive>
5.5518

> <Gold.PLP.ligand.clash>
0.7698

> <Gold.PLP.ligand.torsion>
0.7028

> <Gold.PLP.Chemscore.Hbond>
0.5362

> <Gold.PLP.Chemscore.CHOScore>
0.0000

> <Gold.PLP.Chemscore.Metal>
0.0000

> <Gold.Chemscore.Hbonds>
donor molecule, donor type, donor heavy atom, donor atom, acceptor molecule, acceptor atom, score
      L1  H     8    22       P1 16954  0.42
      P1  H 19343 19392       L1     9  0.47

> <Gold.PLP.Chemscore.Internal.Correction>
   9.000000E+99

