#       Name:                CT1002167954
#       Creating user name   hitesit
#       Creation time:       Sun Apr 16 20:25:30 2023


#       File generated by GOLD software.
#

@<TRIPOS>MOLECULE
CT1002167954|ligand_prepared|mol2|1|dock2
    29    30     1
SMALL
NO_CHARGES


@<TRIPOS>ATOM
      1 C1         229.6254  19.8674  12.3169 C.3            1 RES1               0.0000
      2 C2         228.3913  20.4741  13.0153 C.ar           1 RES1               0.0000
      3 C3         229.2505  18.4335  11.9540 C.2            1 RES1               0.0000
      4 C4         229.9156  20.7580  11.1139 C.2            1 RES1               0.0000
      5 C5         230.8919  19.8345  13.2037 C.3            1 RES1               0.0000
      6 C6         227.1264  19.9276  12.8197 C.ar           1 RES1               0.0000
      7 C7         228.5021  21.5765  13.8585 C.ar           1 RES1               0.0000
      8 N8         228.9999  18.1588  10.6419 N.am           1 RES1               0.0000
      9 O9         229.1379  17.5660  12.8113 O.2            1 RES1               0.0000
     10 N10        229.7648  20.2177   9.8637 N.am           1 RES1               0.0000
     11 O11        230.2574  21.9278  11.2372 O.2            1 RES1               0.0000
     12 C12        232.0120  18.9736  12.6413 C.3            1 RES1               0.0000
     13 C13        226.0130  20.4620  13.4467 C.ar           1 RES1               0.0000
     14 C14        227.3873  22.1094  14.4844 C.ar           1 RES1               0.0000
     15 C15        229.2905  18.9677   9.5728 C.2            1 RES1               0.0000
     16 C16        226.1427  21.5528  14.2797 C.ar           1 RES1               0.0000
     17 O17        229.1312  18.5726   8.4214 O.2            1 RES1               0.0000
     18 H18        231.2627  20.8595  13.3279 H              1 RES1               0.0000
     19 H19        230.6186  19.4544  14.1958 H              1 RES1               0.0000
     20 H20        227.0045  19.0706  12.1658 H              1 RES1               0.0000
     21 H21        229.4711  22.0315  14.0334 H              1 RES1               0.0000
     22 H22        228.5553  17.2697  10.4365 H              1 RES1               0.0000
     23 H23        230.0309  20.8014   9.0770 H              1 RES1               0.0000
     24 H24        232.8764  18.9854  13.3019 H              1 RES1               0.0000
     25 H25        231.6859  17.9418  12.5283 H              1 RES1               0.0000
     26 H26        232.3261  19.3385  11.6656 H              1 RES1               0.0000
     27 H27        225.0355  20.0211  13.2813 H              1 RES1               0.0000
     28 H28        227.4939  22.9684  15.1386 H              1 RES1               0.0000
     29 H29        225.2704  21.9710  14.7711 H              1 RES1               0.0000
@<TRIPOS>BOND
    1    1    2 1     
    2    1    3 1     
    3    1    4 1     
    4    1    5 1     
    5    2    6 ar    
    6    2    7 ar    
    7    3    8 1     
    8    3    9 2     
    9    4   10 1     
   10    4   11 2     
   11    5   12 1     
   12    5   18 1     
   13    5   19 1     
   14    6   13 ar    
   15    6   20 1     
   16    7   14 ar    
   17    7   21 1     
   18    8   15 1     
   19    8   22 1     
   20   10   15 1     
   21   10   23 1     
   22   12   24 1     
   23   12   25 1     
   24   12   26 1     
   25   13   16 ar    
   26   13   27 1     
   27   14   16 ar    
   28   14   28 1     
   29   15   17 2     
   30   16   29 1     
@<TRIPOS>SUBSTRUCTURE
      1 RES1           1
@<TRIPOS>SET
DONOR_HYDROGENS      STATIC     ATOMS    <user>   **** ""
2 22 23
ATOM$RED        STATIC     ATOMS    COLORGROUP SYSTEM
2 22 23
@<TRIPOS>COMMENT
> <Gold.Version>
2022.3.0

> <Gold.Id.Protein>
unknown|4v3u_clean|pdb

> <Gold.Protein.RotatedTorsions>
[  594  544  543  542 ] final   23.49 input   59.98 | X-H torsion
[  739  695  696  697 ] final -158.55 input   98.51 | X-H torsion
[ 2556 2523 2524 2525 ] final  162.79 input  111.11 | X-H torsion
[ 2632 2595 2596 2597 ] final   73.86 input   53.40 | X-H torsion
[ 26082 26043 26042 26040 ] final -154.63 input   60.02 | X-H torsion
[ 27179 27119 27118 27114 ] final  173.60 input   60.01 | X-H torsion
[ 7425 7411 7412 7413 ] final   94.70 input   83.97 | X-H torsion
[ 7476 7453 7454 7455 ] final  130.83 input   94.79 | X-H torsion
[ 7522 7511 7512 7513 ] final   72.53 input   85.82 | X-H torsion
[ 17193 17173 17174 17175 ] final  155.63 input   42.33 | X-H torsion
[ 17249 17217 17218 17219 ] final  171.49 input  107.71 | X-H torsion
[ 18293 18271 18272 18273 ] final   14.08 input   26.15 | X-H torsion
[ 18325 18311 18312 18313 ] final  -67.17 input   53.27 | X-H torsion
[ 18407 18359 18360 18361 ] final -134.66 input   33.85 | X-H torsion
[ 18493 18451 18452 18453 ] final  112.46 input  113.35 | X-H torsion
[ 18561 18527 18528 18529 ] final   49.99 input   85.91 | X-H torsion
[ 18501 18462 18461 18459 ] final  173.60 input   59.98 | X-H torsion
[ 18241 18201 18202 18203 ] final -125.91 input   44.19 | X-H torsion
[ 18297 18276 18275 18272 ] final  -80.62 input   59.98 | X-H torsion
[ 10103 10092 10091 10088 ] final   31.76 input   59.98 | X-H torsion
[ 17301 17279 17280 17281 ] final  144.35 input   44.55 | X-H torsion
[ 16993 16954 16953 16951 ] final  156.47 input   59.99 | X-H torsion
[ 11475 11457 11458 11459 ] final  -25.20 input   48.15 | X-H torsion
[ 11539 11523 11524 11525 ] final  107.33 input  117.79 | X-H torsion
[ 11615 11599 11600 11601 ] final  -35.82 input   58.98 | X-H torsion
[ 11423 11412 11411 11408 ] final  135.63 input   60.01 | X-H torsion
[ 27181 27121 27120 27118 ] final  149.49 input   60.02 | X-H torsion
[ 10139 10129 10130 10131 ] final  172.31 input   28.23 | X-H torsion
[ 17355 17327 17328 17329 ] final   64.27 input   73.50 | X-H torsion
[ 27201  698  697  696 ] final   44.47 input    0.00 | X-H torsion
[ 27204 2526 2525 2524 ] final   34.73 input    0.00 | X-H torsion
[ 27228 7328 7327 7326 ] final -135.59 input    0.00 | X-H torsion
[ 27233 7514 7513 7512 ] final -179.55 input    0.00 | X-H torsion
[ 27236 17124 17123 17122 ] final  -30.57 input    0.00 | X-H torsion
[ 27240 18204 18203 18202 ] final  -65.82 input    0.00 | X-H torsion
[ 27243 18274 18273 18272 ] final   61.97 input    0.00 | X-H torsion
[ 27246 18314 18313 18312 ] final  -40.44 input   -0.00 | X-H torsion
[ 27249 18362 18361 18360 ] final  111.53 input    0.00 | X-H torsion
[ 27257 17176 17175 17174 ] final -164.31 input   -0.00 | X-H torsion
[ 27259 17220 17219 17218 ] final  -32.18 input   -0.00 | X-H torsion
[ 27261 17050 17049 17048 ] final  125.62 input    0.00 | X-H torsion
[ 27270 10132 10131 10130 ] final -171.10 input    0.00 | X-H torsion
[ 27272 11410 11409 11408 ] final  -44.51 input   -0.00 | X-H torsion
[ 27279 11602 11601 11600 ] final   42.44 input    0.00 | X-H torsion
[ 27288 18684 18683 18682 ] final  108.16 input   -0.00 | X-H torsion

> <Gold.Protein.ActiveResidues>
 LYS309  TRP311  GLU314  MET341  HIS342  TRP414  ALA417  ARG419  CYS420  VAL421 
 GLY422  ARG423  LEU460  SER462  ALA463  SER482  GLN483  LEU484  ILE485  ARG486 
 ALA502  TRP566  TYR567  LEU569  PRO570  ALA571  VAL572  SER573  ASN574  MET575 
 PHE589  SER590  GLY591  TRP592  TYR593  MET594  GLU597  ILE598  ARG601  ASP602 
 ASP605  ARG608  TRP683  PHE696  HIS697  GLU699  TYR711  ASP714  HEM750  H4B760 

> <Gold.Protein.RotatedAtoms>
  220.8970    8.9791   19.0962 H   0  0  0  0  0  0  0  0  0  0  0  0  # atno 594  bound_to 544 
  220.8794    7.9342   17.8098 H   0  0  0  0  0  0  0  0  0  0  0  0  # atno 595  bound_to 544 
  219.8282    7.7127   19.0725 H   0  0  0  0  0  0  0  0  0  0  0  0  # atno 596  bound_to 544 
  226.6672    7.3164   20.7802 H   0  0  0  0  0  0  0  0  0  0  0  0  # atno 739  bound_to 695 
  225.6118   13.1956   25.2742 H   0  0  0  0  0  0  0  0  0  0  0  0  # atno 2556 bound_to 2523
  222.4059   14.0800   24.7288 H   0  0  0  0  0  0  0  0  0  0  0  0  # atno 2632 bound_to 2595
  229.3834   27.1427   22.6126 H   0  0  0  0  0  0  0  0  0  0  0  0  # atno 7425 bound_to 7411
  232.8987   26.4734   20.2062 H   0  0  0  0  0  0  0  0  0  0  0  0  # atno 7476 bound_to 7453
  232.8184   29.2737   19.3403 H   0  0  0  0  0  0  0  0  0  0  0  0  # atno 7522 bound_to 7511
  230.8853   35.5257   11.8518 H   0  0  0  0  0  0  0  0  0  0  0  0  # atno 10103 bound_to 10092
  227.0183   36.0662   10.3589 H   0  0  0  0  0  0  0  0  0  0  0  0  # atno 10139 bound_to 10129
  222.3998   18.4065    9.8988 H   0  0  0  0  0  0  0  0  0  0  0  0  # atno 11423 bound_to 11412
  220.5573   21.7336    8.3205 H   0  0  0  0  0  0  0  0  0  0  0  0  # atno 11475 bound_to 11457
  222.8217   25.1738    7.2187 H   0  0  0  0  0  0  0  0  0  0  0  0  # atno 11539 bound_to 11523
  223.1439   23.7148    5.0329 H   0  0  0  0  0  0  0  0  0  0  0  0  # atno 11615 bound_to 11599
  227.7364   19.8425    5.8917 H   0  0  0  0  0  0  0  0  0  0  0  0  # atno 16993 bound_to 16954
  226.9900   27.0193    7.8534 H   0  0  0  0  0  0  0  0  0  0  0  0  # atno 17193 bound_to 17173
  225.1170   26.1449   11.1555 H   0  0  0  0  0  0  0  0  0  0  0  0  # atno 17249 bound_to 17217
  221.4962   25.1300   10.6692 H   0  0  0  0  0  0  0  0  0  0  0  0  # atno 17301 bound_to 17279
  219.6890   23.8233   12.9700 H   0  0  0  0  0  0  0  0  0  0  0  0  # atno 17355 bound_to 17327
  220.9668   30.5668   11.2205 H   0  0  0  0  0  0  0  0  0  0  0  0  # atno 18241 bound_to 18201
  225.1672   32.2921   11.6181 H   0  0  0  0  0  0  0  0  0  0  0  0  # atno 18293 bound_to 18271
  225.1313   32.4494    8.6388 H   0  0  0  0  0  0  0  0  0  0  0  0  # atno 18297 bound_to 18276
  228.2090   31.3069   10.2264 H   0  0  0  0  0  0  0  0  0  0  0  0  # atno 18325 bound_to 18311
  231.2058   31.0422   10.2893 H   0  0  0  0  0  0  0  0  0  0  0  0  # atno 18407 bound_to 18359
  234.2701   28.1910    8.5655 H   0  0  0  0  0  0  0  0  0  0  0  0  # atno 18493 bound_to 18451
  230.2605   22.6573    6.8388 H   0  0  0  0  0  0  0  0  0  0  0  0  # atno 18501 bound_to 18462
  235.3147   25.3415   11.9105 H   0  0  0  0  0  0  0  0  0  0  0  0  # atno 18561 bound_to 18527
  224.3496   19.6358   21.9828 H   0  0  0  0  0  0  0  0  0  0  0  0  # atno 26082 bound_to 26043
  230.4118   11.3901   21.4432 H   0  0  0  0  0  0  0  0  0  0  0  0  # atno 27179 bound_to 27119
  229.2521   13.3043   25.2637 H   0  0  0  0  0  0  0  0  0  0  0  0  # atno 27181 bound_to 27121
  228.1208    6.7987   19.9650 LP  0  0  0  0  0  0  0  0  0  0  0  0  # atno 27200 bound_to 695 
  226.7536    8.6408   16.1503 LP  0  0  0  0  0  0  0  0  0  0  0  0  # atno 27201 bound_to 698 
  226.8244    6.9987   15.6038 LP  0  0  0  0  0  0  0  0  0  0  0  0  # atno 27202 bound_to 698 
  224.4707   13.9798   26.3367 LP  0  0  0  0  0  0  0  0  0  0  0  0  # atno 27203 bound_to 2523
  224.0158   17.4703   23.9311 LP  0  0  0  0  0  0  0  0  0  0  0  0  # atno 27204 bound_to 2526
  222.8542   17.5552   25.2131 LP  0  0  0  0  0  0  0  0  0  0  0  0  # atno 27205 bound_to 2526
  223.1932   15.6060   25.0662 LP  0  0  0  0  0  0  0  0  0  0  0  0  # atno 27206 bound_to 2595
  224.4394   21.0998   21.2774 LP  0  0  0  0  0  0  0  0  0  0  0  0  # atno 27210 bound_to 26043
  224.4441   19.7476   20.3619 LP  0  0  0  0  0  0  0  0  0  0  0  0  # atno 27211 bound_to 26043
  231.6692   12.4192   21.3476 LP  0  0  0  0  0  0  0  0  0  0  0  0  # atno 27214 bound_to 27119
  230.4190   12.5545   20.3058 LP  0  0  0  0  0  0  0  0  0  0  0  0  # atno 27215 bound_to 27119
  231.7007   24.8996   21.1163 LP  0  0  0  0  0  0  0  0  0  0  0  0  # atno 27228 bound_to 7328
  230.4123   23.7428   21.0720 LP  0  0  0  0  0  0  0  0  0  0  0  0  # atno 27229 bound_to 7328
  230.2393   25.6712   22.2298 LP  0  0  0  0  0  0  0  0  0  0  0  0  # atno 27230 bound_to 7411
  232.2689   28.0445   20.6427 LP  0  0  0  0  0  0  0  0  0  0  0  0  # atno 27231 bound_to 7453
  234.5170   29.2268   19.7429 LP  0  0  0  0  0  0  0  0  0  0  0  0  # atno 27232 bound_to 7511
  232.9243   34.0042   18.8462 LP  0  0  0  0  0  0  0  0  0  0  0  0  # atno 27233 bound_to 7514
  233.4944   33.1560   17.4479 LP  0  0  0  0  0  0  0  0  0  0  0  0  # atno 27234 bound_to 7514
  228.6422   28.3084    9.9817 LP  0  0  0  0  0  0  0  0  0  0  0  0  # atno 27236 bound_to 17124
  227.0552   28.8461    9.5431 LP  0  0  0  0  0  0  0  0  0  0  0  0  # atno 27237 bound_to 17124
  226.7293   25.7273    8.9988 LP  0  0  0  0  0  0  0  0  0  0  0  0  # atno 27238 bound_to 17173
  223.8155   27.0208   10.3742 LP  0  0  0  0  0  0  0  0  0  0  0  0  # atno 27239 bound_to 17217
  224.2505   28.6755   11.9273 LP  0  0  0  0  0  0  0  0  0  0  0  0  # atno 27240 bound_to 18204
  224.3853   29.0002   10.2313 LP  0  0  0  0  0  0  0  0  0  0  0  0  # atno 27241 bound_to 18204
  224.3640   30.8070   11.1834 LP  0  0  0  0  0  0  0  0  0  0  0  0  # atno 27242 bound_to 18271
  226.8764   33.2358   11.9436 LP  0  0  0  0  0  0  0  0  0  0  0  0  # atno 27243 bound_to 18274
  227.9506   33.6010   10.6349 LP  0  0  0  0  0  0  0  0  0  0  0  0  # atno 27244 bound_to 18274
  228.4263   30.3703   11.6888 LP  0  0  0  0  0  0  0  0  0  0  0  0  # atno 27245 bound_to 18311
  229.8711   31.4572    8.6439 LP  0  0  0  0  0  0  0  0  0  0  0  0  # atno 27246 bound_to 18314
  231.5307   31.9016    8.4244 LP  0  0  0  0  0  0  0  0  0  0  0  0  # atno 27247 bound_to 18314
  232.3471   30.8849   11.6053 LP  0  0  0  0  0  0  0  0  0  0  0  0  # atno 27248 bound_to 18359
  233.1382   28.0701   12.0326 LP  0  0  0  0  0  0  0  0  0  0  0  0  # atno 27249 bound_to 18362
  234.2567   29.3854   12.1699 LP  0  0  0  0  0  0  0  0  0  0  0  0  # atno 27250 bound_to 18362
  233.8189   28.6749   10.1821 LP  0  0  0  0  0  0  0  0  0  0  0  0  # atno 27251 bound_to 18451
  235.9645   26.9441   11.6585 LP  0  0  0  0  0  0  0  0  0  0  0  0  # atno 27252 bound_to 18527
  222.7266   25.0990    9.3655 LP  0  0  0  0  0  0  0  0  0  0  0  0  # atno 27257 bound_to 17176
  223.7742   25.4096    8.0215 LP  0  0  0  0  0  0  0  0  0  0  0  0  # atno 27258 bound_to 17176
  222.0056   27.8385   12.2991 LP  0  0  0  0  0  0  0  0  0  0  0  0  # atno 27259 bound_to 17220
  220.7169   27.6353   11.1597 LP  0  0  0  0  0  0  0  0  0  0  0  0  # atno 27260 bound_to 17220
  228.2986   25.3873    5.6968 LP  0  0  0  0  0  0  0  0  0  0  0  0  # atno 27261 bound_to 17050
  227.2687   26.6075    5.0257 LP  0  0  0  0  0  0  0  0  0  0  0  0  # atno 27262 bound_to 17050
  229.9253   22.5295    8.4259 LP  0  0  0  0  0  0  0  0  0  0  0  0  # atno 27263 bound_to 18462
  230.9310   21.4592    7.7120 LP  0  0  0  0  0  0  0  0  0  0  0  0  # atno 27264 bound_to 18462
  221.8445   29.2712   12.0009 LP  0  0  0  0  0  0  0  0  0  0  0  0  # atno 27265 bound_to 18201
  226.3281   32.2109    7.5618 LP  0  0  0  0  0  0  0  0  0  0  0  0  # atno 27266 bound_to 18276
  226.6645   32.8220    9.0383 LP  0  0  0  0  0  0  0  0  0  0  0  0  # atno 27267 bound_to 18276
  230.2822   34.3895   12.8482 LP  0  0  0  0  0  0  0  0  0  0  0  0  # atno 27268 bound_to 10092
  230.8087   35.8126   13.4516 LP  0  0  0  0  0  0  0  0  0  0  0  0  # atno 27269 bound_to 10092
  223.4308   33.2542   11.5757 LP  0  0  0  0  0  0  0  0  0  0  0  0  # atno 27270 bound_to 10132
  225.0844   33.5863   11.1815 LP  0  0  0  0  0  0  0  0  0  0  0  0  # atno 27271 bound_to 10132
  220.5576   22.7890   11.4050 LP  0  0  0  0  0  0  0  0  0  0  0  0  # atno 27272 bound_to 11410
  222.2341   22.6705   10.9863 LP  0  0  0  0  0  0  0  0  0  0  0  0  # atno 27273 bound_to 11410
  221.0125   24.8330   12.3188 LP  0  0  0  0  0  0  0  0  0  0  0  0  # atno 27274 bound_to 17279
  227.5664   21.2086    6.7592 LP  0  0  0  0  0  0  0  0  0  0  0  0  # atno 27275 bound_to 16954
  228.9955   20.4185    6.7464 LP  0  0  0  0  0  0  0  0  0  0  0  0  # atno 27276 bound_to 16954
  221.8563   21.0622    9.2860 LP  0  0  0  0  0  0  0  0  0  0  0  0  # atno 27277 bound_to 11457
  221.8022   23.7890    6.9157 LP  0  0  0  0  0  0  0  0  0  0  0  0  # atno 27278 bound_to 11523
  225.8025   22.7384    5.3625 LP  0  0  0  0  0  0  0  0  0  0  0  0  # atno 27279 bound_to 11602
  226.6299   21.5313    4.4360 LP  0  0  0  0  0  0  0  0  0  0  0  0  # atno 27280 bound_to 11602
  223.6838   25.2232    4.3393 LP  0  0  0  0  0  0  0  0  0  0  0  0  # atno 27283 bound_to 11599
  221.7090   19.3951    8.8058 LP  0  0  0  0  0  0  0  0  0  0  0  0  # atno 27286 bound_to 11412
  221.0954   17.9042    9.0649 LP  0  0  0  0  0  0  0  0  0  0  0  0  # atno 27287 bound_to 11412
  233.5730   18.3663   10.3397 LP  0  0  0  0  0  0  0  0  0  0  0  0  # atno 27288 bound_to 18684
  234.7874   17.6042   11.3116 LP  0  0  0  0  0  0  0  0  0  0  0  0  # atno 27289 bound_to 18684

> <Gold.Score>
     Fitness  S(hb_ext) S(vdw_ext)  S(hb_int)    S(int)      intcor
     39.96       7.07      24.75       0.00      -1.14      -0.79

> <Gold.Goldscore.Fitness>
39.9607

> <Gold.Goldscore.Internal.Vdw>
-1.3073

> <Gold.Goldscore.Internal.Torsion>
-0.6214

> <Gold.Goldscore.External.Vdw>
24.7469

> <Gold.Goldscore.Internal.HBond>
0.0000

> <Gold.Goldscore.External.HBond>
7.0712

> <Gold.Goldscore.Internal.Correction>
-0.7912

> <Gold.Goldscore.Hbonds>
donor molecule, donor type, donor heavy atom, donor atom, acceptor molecule, acceptor atom, score
      P1  H 19343 19392       L1    17  0.88
      L1  H    10    23       P1 18462  0.90

> <Gold.Goldscore.Internal.Vdw.Weighted>
-1.3073

> <Gold.Goldscore.Internal.Torsion.Weighted>
-0.6214

> <Gold.Goldscore.External.Vdw.Weighted>
34.0270

> <Gold.Goldscore.Internal.HBond.Weighted>
0.0000

> <Gold.Goldscore.External.HBond.Weighted>
7.0712

> <Gold.Goldscore.Internal.Correction.Weighted>
-0.7912

> <Gold.Rescore>
     Score     S(PLP)   S(hbond)     S(cho)   S(metal)  DE(clash)   DE(tors)     intcor
     26.86     -25.21       1.48       0.00       0.00       1.71       0.54       ----

> <Gold.PLP.Fitness>
26.8564

> <Gold.PLP.PLP>
-25.2110

> <Gold.PLP.part.hbond>
-4.6142

> <Gold.PLP.part.metal>
0.0000

> <Gold.PLP.part.buried>
-0.2718

> <Gold.PLP.part.nonpolar>
-21.2090

> <Gold.PLP.part.repulsive>
0.9423

> <Gold.PLP.ligand.clash>
1.7112

> <Gold.PLP.ligand.torsion>
0.5350

> <Gold.PLP.Chemscore.Hbond>
1.4755

> <Gold.PLP.Chemscore.CHOScore>
0.0000

> <Gold.PLP.Chemscore.Metal>
0.0000

> <Gold.Chemscore.Hbonds>
donor molecule, donor type, donor heavy atom, donor atom, acceptor molecule, acceptor atom, score
      L1  H    10    23       P1 18462  0.78
      P1  H 19343 19392       L1    17  0.75

> <Gold.PLP.Chemscore.Internal.Correction>
   9.000000E+99

