#       Name:                CT1002167954
#       Creating user name   hitesit
#       Creation time:       Sun Apr 16 20:25:31 2023


#       File generated by GOLD software.
#

@<TRIPOS>MOLECULE
CT1002167954|ligand_prepared|mol2|1|dock3
    29    30     1
SMALL
NO_CHARGES


@<TRIPOS>ATOM
      1 C1         229.2895  19.8478  12.4168 C.3            1 RES1               0.0000
      2 C2         227.9936  20.4191  13.0277 C.ar           1 RES1               0.0000
      3 C3         228.9814  18.4037  12.0320 C.2            1 RES1               0.0000
      4 C4         229.6359  20.7462  11.2346 C.2            1 RES1               0.0000
      5 C5         230.4927  19.8513  13.3883 C.3            1 RES1               0.0000
      6 C6         226.7669  19.8078  12.7863 C.ar           1 RES1               0.0000
      7 C7         228.0093  21.5530  13.8355 C.ar           1 RES1               0.0000
      8 N8         228.8292  18.1218  10.7064 N.am           1 RES1               0.0000
      9 O9         228.8351  17.5335  12.8814 O.2            1 RES1               0.0000
     10 N10        229.5866  20.2017   9.9781 N.am           1 RES1               0.0000
     11 O11        229.9350  21.9253  11.3786 O.2            1 RES1               0.0000
     12 C12        231.6947  19.0721  12.8783 C.3            1 RES1               0.0000
     13 C13        225.5986  20.3101  13.3349 C.ar           1 RES1               0.0000
     14 C14        226.8397  22.0539  14.3829 C.ar           1 RES1               0.0000
     15 C15        229.1692  18.9385   9.6580 C.2            1 RES1               0.0000
     16 C16        225.6342  21.4330  14.1338 C.ar           1 RES1               0.0000
     17 O17        229.1005  18.5389   8.4993 O.2            1 RES1               0.0000
     18 H18        230.7964  20.8895  13.5705 H              1 RES1               0.0000
     19 H19        230.1743  19.4220  14.3463 H              1 RES1               0.0000
     20 H20        226.7190  18.9246  12.1581 H              1 RES1               0.0000
     21 H21        228.9461  22.0585  14.0442 H              1 RES1               0.0000
     22 H22        228.4252  17.2203  10.4730 H              1 RES1               0.0000
     23 H23        229.8892  20.7926   9.2103 H              1 RES1               0.0000
     24 H24        232.5102  19.1066  13.5976 H              1 RES1               0.0000
     25 H25        231.4352  18.0289  12.7101 H              1 RES1               0.0000
     26 H26        232.0536  19.4878  11.9390 H              1 RES1               0.0000
     27 H27        224.6522  19.8186  13.1347 H              1 RES1               0.0000
     28 H28        226.8724  22.9383  15.0106 H              1 RES1               0.0000
     29 H29        224.7189  21.8261  14.5638 H              1 RES1               0.0000
@<TRIPOS>BOND
    1    1    2 1     
    2    1    3 1     
    3    1    4 1     
    4    1    5 1     
    5    2    6 ar    
    6    2    7 ar    
    7    3    8 1     
    8    3    9 2     
    9    4   10 1     
   10    4   11 2     
   11    5   12 1     
   12    5   18 1     
   13    5   19 1     
   14    6   13 ar    
   15    6   20 1     
   16    7   14 ar    
   17    7   21 1     
   18    8   15 1     
   19    8   22 1     
   20   10   15 1     
   21   10   23 1     
   22   12   24 1     
   23   12   25 1     
   24   12   26 1     
   25   13   16 ar    
   26   13   27 1     
   27   14   16 ar    
   28   14   28 1     
   29   15   17 2     
   30   16   29 1     
@<TRIPOS>SUBSTRUCTURE
      1 RES1           1
@<TRIPOS>SET
DONOR_HYDROGENS      STATIC     ATOMS    <user>   **** ""
2 22 23
ATOM$RED        STATIC     ATOMS    COLORGROUP SYSTEM
2 22 23
@<TRIPOS>COMMENT
> <Gold.Version>
2022.3.0

> <Gold.Id.Protein>
unknown|4v3u_clean|pdb

> <Gold.Protein.RotatedTorsions>
[  594  544  543  542 ] final  -52.21 input   59.98 | X-H torsion
[  739  695  696  697 ] final  -65.82 input   98.51 | X-H torsion
[ 2556 2523 2524 2525 ] final -133.38 input  111.11 | X-H torsion
[ 2632 2595 2596 2597 ] final  -88.68 input   53.40 | X-H torsion
[ 26082 26043 26042 26040 ] final -118.16 input   60.02 | X-H torsion
[ 27179 27119 27118 27114 ] final   -8.56 input   60.01 | X-H torsion
[ 7425 7411 7412 7413 ] final  120.96 input   83.97 | X-H torsion
[ 7476 7453 7454 7455 ] final   41.24 input   94.79 | X-H torsion
[ 7522 7511 7512 7513 ] final   84.72 input   85.82 | X-H torsion
[ 17193 17173 17174 17175 ] final  -65.66 input   42.33 | X-H torsion
[ 17249 17217 17218 17219 ] final  -80.92 input  107.71 | X-H torsion
[ 18293 18271 18272 18273 ] final -156.81 input   26.15 | X-H torsion
[ 18325 18311 18312 18313 ] final -101.43 input   53.27 | X-H torsion
[ 18407 18359 18360 18361 ] final -134.83 input   33.85 | X-H torsion
[ 18493 18451 18452 18453 ] final -128.57 input  113.35 | X-H torsion
[ 18561 18527 18528 18529 ] final  138.10 input   85.91 | X-H torsion
[ 18501 18462 18461 18459 ] final   84.42 input   59.98 | X-H torsion
[ 18241 18201 18202 18203 ] final  164.01 input   44.19 | X-H torsion
[ 18297 18276 18275 18272 ] final -129.80 input   59.98 | X-H torsion
[ 10103 10092 10091 10088 ] final   38.69 input   59.98 | X-H torsion
[ 17301 17279 17280 17281 ] final  -25.93 input   44.55 | X-H torsion
[ 16993 16954 16953 16951 ] final  -79.13 input   59.99 | X-H torsion
[ 11475 11457 11458 11459 ] final  -61.48 input   48.15 | X-H torsion
[ 11539 11523 11524 11525 ] final   89.58 input  117.79 | X-H torsion
[ 11615 11599 11600 11601 ] final  157.50 input   58.98 | X-H torsion
[ 11423 11412 11411 11408 ] final  131.87 input   60.01 | X-H torsion
[ 27181 27121 27120 27118 ] final -154.14 input   60.02 | X-H torsion
[ 10139 10129 10130 10131 ] final  -94.53 input   28.23 | X-H torsion
[ 17355 17327 17328 17329 ] final   64.23 input   73.50 | X-H torsion
[ 27201  698  697  696 ] final -163.34 input    0.00 | X-H torsion
[ 27204 2526 2525 2524 ] final  128.90 input    0.00 | X-H torsion
[ 27228 7328 7327 7326 ] final  179.61 input    0.00 | X-H torsion
[ 27233 7514 7513 7512 ] final   -1.56 input    0.00 | X-H torsion
[ 27236 17124 17123 17122 ] final    4.60 input    0.00 | X-H torsion
[ 27240 18204 18203 18202 ] final -118.57 input    0.00 | X-H torsion
[ 27243 18274 18273 18272 ] final -173.34 input    0.00 | X-H torsion
[ 27246 18314 18313 18312 ] final   22.15 input   -0.00 | X-H torsion
[ 27249 18362 18361 18360 ] final  -29.37 input    0.00 | X-H torsion
[ 27257 17176 17175 17174 ] final  -11.91 input   -0.00 | X-H torsion
[ 27259 17220 17219 17218 ] final  169.64 input   -0.00 | X-H torsion
[ 27261 17050 17049 17048 ] final   73.91 input    0.00 | X-H torsion
[ 27270 10132 10131 10130 ] final   26.07 input    0.00 | X-H torsion
[ 27272 11410 11409 11408 ] final   79.34 input   -0.00 | X-H torsion
[ 27279 11602 11601 11600 ] final  -26.10 input    0.00 | X-H torsion
[ 27288 18684 18683 18682 ] final -100.55 input   -0.00 | X-H torsion

> <Gold.Protein.ActiveResidues>
 LYS309  TRP311  GLU314  MET341  HIS342  TRP414  ALA417  ARG419  CYS420  VAL421 
 GLY422  ARG423  LEU460  SER462  ALA463  SER482  GLN483  LEU484  ILE485  ARG486 
 ALA502  TRP566  TYR567  LEU569  PRO570  ALA571  VAL572  SER573  ASN574  MET575 
 PHE589  SER590  GLY591  TRP592  TYR593  MET594  GLU597  ILE598  ARG601  ASP602 
 ASP605  ARG608  TRP683  PHE696  HIS697  GLU699  TYR711  ASP714  HEM750  H4B760 

> <Gold.Protein.RotatedAtoms>
  220.0363    8.2747   19.4735 H   0  0  0  0  0  0  0  0  0  0  0  0  # atno 594  bound_to 544 
  221.2175    8.8495   18.4631 H   0  0  0  0  0  0  0  0  0  0  0  0  # atno 595  bound_to 544 
  220.3501    7.5009   18.0419 H   0  0  0  0  0  0  0  0  0  0  0  0  # atno 596  bound_to 544 
  227.0429    6.2880   20.1310 H   0  0  0  0  0  0  0  0  0  0  0  0  # atno 739  bound_to 695 
  225.8747   13.8477   25.8830 H   0  0  0  0  0  0  0  0  0  0  0  0  # atno 2556 bound_to 2523
  223.1832   15.5387   25.3252 H   0  0  0  0  0  0  0  0  0  0  0  0  # atno 2632 bound_to 2595
  229.1330   26.9538   22.3656 H   0  0  0  0  0  0  0  0  0  0  0  0  # atno 7425 bound_to 7411
  232.6651   27.5299   19.5858 H   0  0  0  0  0  0  0  0  0  0  0  0  # atno 7476 bound_to 7453
  232.8705   29.1684   19.1945 H   0  0  0  0  0  0  0  0  0  0  0  0  # atno 7522 bound_to 7511
  230.9201   35.6221   11.8999 H   0  0  0  0  0  0  0  0  0  0  0  0  # atno 10103 bound_to 10092
  226.7533   35.9235   11.6043 H   0  0  0  0  0  0  0  0  0  0  0  0  # atno 10139 bound_to 10129
  222.4214   18.4630    9.8876 H   0  0  0  0  0  0  0  0  0  0  0  0  # atno 11423 bound_to 11412
  220.5225   21.9496    8.8317 H   0  0  0  0  0  0  0  0  0  0  0  0  # atno 11475 bound_to 11457
  223.0007   25.0182    7.0857 H   0  0  0  0  0  0  0  0  0  0  0  0  # atno 11539 bound_to 11523
  223.5109   25.2259    4.2328 H   0  0  0  0  0  0  0  0  0  0  0  0  # atno 11615 bound_to 11599
  228.9796   20.4806    6.7801 H   0  0  0  0  0  0  0  0  0  0  0  0  # atno 16993 bound_to 16954
  227.0672   26.1680    9.2649 H   0  0  0  0  0  0  0  0  0  0  0  0  # atno 17193 bound_to 17173
  224.2242   26.1363   10.0225 H   0  0  0  0  0  0  0  0  0  0  0  0  # atno 17249 bound_to 17217
  220.9856   24.6911   12.2846 H   0  0  0  0  0  0  0  0  0  0  0  0  # atno 17301 bound_to 17279
  219.6889   23.8237   12.9703 H   0  0  0  0  0  0  0  0  0  0  0  0  # atno 17355 bound_to 17327
  220.9239   30.3470   12.2134 H   0  0  0  0  0  0  0  0  0  0  0  0  # atno 18241 bound_to 18201
  224.3915   30.7578   11.3110 H   0  0  0  0  0  0  0  0  0  0  0  0  # atno 18293 bound_to 18271
  225.2998   32.1990    7.9200 H   0  0  0  0  0  0  0  0  0  0  0  0  # atno 18297 bound_to 18276
  227.9902   31.5781   10.6173 H   0  0  0  0  0  0  0  0  0  0  0  0  # atno 18325 bound_to 18311
  231.2068   31.0445   10.2888 H   0  0  0  0  0  0  0  0  0  0  0  0  # atno 18407 bound_to 18359
  233.2457   28.2113    9.6887 H   0  0  0  0  0  0  0  0  0  0  0  0  # atno 18493 bound_to 18451
  229.7951   22.8370    8.0547 H   0  0  0  0  0  0  0  0  0  0  0  0  # atno 18501 bound_to 18462
  235.3556   26.3639   12.5914 H   0  0  0  0  0  0  0  0  0  0  0  0  # atno 18561 bound_to 18527
  224.3629   19.2776   21.5193 H   0  0  0  0  0  0  0  0  0  0  0  0  # atno 26082 bound_to 26043
  231.2242   12.8537   20.6027 H   0  0  0  0  0  0  0  0  0  0  0  0  # atno 27179 bound_to 27119
  230.0325   13.7148   25.3350 H   0  0  0  0  0  0  0  0  0  0  0  0  # atno 27181 bound_to 27121
  227.7509    7.8112   20.6043 LP  0  0  0  0  0  0  0  0  0  0  0  0  # atno 27200 bound_to 695 
  227.1978    7.1534   15.5044 LP  0  0  0  0  0  0  0  0  0  0  0  0  # atno 27201 bound_to 698 
  226.3802    8.4861   16.2497 LP  0  0  0  0  0  0  0  0  0  0  0  0  # atno 27202 bound_to 698 
  224.2119   13.3379   25.7374 LP  0  0  0  0  0  0  0  0  0  0  0  0  # atno 27203 bound_to 2523
  222.7521   17.4729   24.0411 LP  0  0  0  0  0  0  0  0  0  0  0  0  # atno 27204 bound_to 2526
  224.1179   17.5527   25.1032 LP  0  0  0  0  0  0  0  0  0  0  0  0  # atno 27205 bound_to 2526
  222.4402   14.1931   24.4885 LP  0  0  0  0  0  0  0  0  0  0  0  0  # atno 27206 bound_to 2595
  224.4022   20.8762   21.8221 LP  0  0  0  0  0  0  0  0  0  0  0  0  # atno 27210 bound_to 26043
  224.4679   20.3319   20.2839 LP  0  0  0  0  0  0  0  0  0  0  0  0  # atno 27211 bound_to 26043
  229.9968   11.7938   20.7426 LP  0  0  0  0  0  0  0  0  0  0  0  0  # atno 27214 bound_to 27119
  231.2738   11.7068   21.7567 LP  0  0  0  0  0  0  0  0  0  0  0  0  # atno 27215 bound_to 27119
  231.2675   25.0240   20.6341 LP  0  0  0  0  0  0  0  0  0  0  0  0  # atno 27228 bound_to 7328
  230.8455   23.6184   21.5541 LP  0  0  0  0  0  0  0  0  0  0  0  0  # atno 27229 bound_to 7328
  230.4861   25.8574   22.4732 LP  0  0  0  0  0  0  0  0  0  0  0  0  # atno 27230 bound_to 7411
  232.4967   27.0144   21.2476 LP  0  0  0  0  0  0  0  0  0  0  0  0  # atno 27231 bound_to 7453
  234.4659   29.3300   19.8859 LP  0  0  0  0  0  0  0  0  0  0  0  0  # atno 27232 bound_to 7511
  233.5226   33.1648   17.4547 LP  0  0  0  0  0  0  0  0  0  0  0  0  # atno 27233 bound_to 7514
  232.8961   33.9953   18.8395 LP  0  0  0  0  0  0  0  0  0  0  0  0  # atno 27234 bound_to 7514
  228.6871   28.5952    9.5464 LP  0  0  0  0  0  0  0  0  0  0  0  0  # atno 27236 bound_to 17124
  227.0102   28.5593    9.9784 LP  0  0  0  0  0  0  0  0  0  0  0  0  # atno 27237 bound_to 17124
  226.6536   26.5621    7.6148 LP  0  0  0  0  0  0  0  0  0  0  0  0  # atno 27238 bound_to 17173
  224.6730   27.0290   11.4623 LP  0  0  0  0  0  0  0  0  0  0  0  0  # atno 27239 bound_to 17217
  224.9623   28.7824   11.6551 LP  0  0  0  0  0  0  0  0  0  0  0  0  # atno 27240 bound_to 18204
  223.6734   28.8933   10.5034 LP  0  0  0  0  0  0  0  0  0  0  0  0  # atno 27241 bound_to 18204
  225.1321   32.3263   11.4875 LP  0  0  0  0  0  0  0  0  0  0  0  0  # atno 27242 bound_to 18271
  228.2728   33.4965   11.3639 LP  0  0  0  0  0  0  0  0  0  0  0  0  # atno 27243 bound_to 18274
  226.5543   33.3403   11.2146 LP  0  0  0  0  0  0  0  0  0  0  0  0  # atno 27244 bound_to 18274
  228.6383   30.1075   11.3102 LP  0  0  0  0  0  0  0  0  0  0  0  0  # atno 27245 bound_to 18311
  230.1467   32.3058    8.7589 LP  0  0  0  0  0  0  0  0  0  0  0  0  # atno 27246 bound_to 18314
  231.2551   31.0530    8.3094 LP  0  0  0  0  0  0  0  0  0  0  0  0  # atno 27247 bound_to 18314
  232.3462   30.8826   11.6059 LP  0  0  0  0  0  0  0  0  0  0  0  0  # atno 27248 bound_to 18359
  233.7143   29.5888   12.1918 LP  0  0  0  0  0  0  0  0  0  0  0  0  # atno 27249 bound_to 18362
  233.6805   27.8666   12.0107 LP  0  0  0  0  0  0  0  0  0  0  0  0  # atno 27250 bound_to 18362
  234.8224   28.6550    9.0818 LP  0  0  0  0  0  0  0  0  0  0  0  0  # atno 27251 bound_to 18451
  235.9245   25.9448   10.9931 LP  0  0  0  0  0  0  0  0  0  0  0  0  # atno 27252 bound_to 18527
  223.4879   25.7061    7.9939 LP  0  0  0  0  0  0  0  0  0  0  0  0  # atno 27257 bound_to 17176
  223.0129   24.8025    9.3931 LP  0  0  0  0  0  0  0  0  0  0  0  0  # atno 27258 bound_to 17176
  220.5588   27.5831   11.4422 LP  0  0  0  0  0  0  0  0  0  0  0  0  # atno 27259 bound_to 17220
  222.1637   27.8907   12.0166 LP  0  0  0  0  0  0  0  0  0  0  0  0  # atno 27260 bound_to 17220
  228.4161   25.5540    4.9696 LP  0  0  0  0  0  0  0  0  0  0  0  0  # atno 27261 bound_to 17050
  227.1512   26.4408    5.7529 LP  0  0  0  0  0  0  0  0  0  0  0  0  # atno 27262 bound_to 17050
  230.7536   21.5277    8.1755 LP  0  0  0  0  0  0  0  0  0  0  0  0  # atno 27263 bound_to 18462
  230.5717   22.2801    6.7376 LP  0  0  0  0  0  0  0  0  0  0  0  0  # atno 27264 bound_to 18462
  221.8863   29.4850   11.0349 LP  0  0  0  0  0  0  0  0  0  0  0  0  # atno 27265 bound_to 18201
  226.9008   32.4710    8.0310 LP  0  0  0  0  0  0  0  0  0  0  0  0  # atno 27266 bound_to 18276
  225.9222   32.8138    9.2926 LP  0  0  0  0  0  0  0  0  0  0  0  0  # atno 27267 bound_to 18276
  230.2905   34.3758   12.7353 LP  0  0  0  0  0  0  0  0  0  0  0  0  # atno 27268 bound_to 10092
  230.7653   35.7292   13.5161 LP  0  0  0  0  0  0  0  0  0  0  0  0  # atno 27269 bound_to 10092
  225.0973   33.6240   11.4370 LP  0  0  0  0  0  0  0  0  0  0  0  0  # atno 27270 bound_to 10132
  223.4179   33.2165   11.3202 LP  0  0  0  0  0  0  0  0  0  0  0  0  # atno 27271 bound_to 10132
  221.9327   22.1321   11.5190 LP  0  0  0  0  0  0  0  0  0  0  0  0  # atno 27272 bound_to 11410
  220.8589   23.3275   10.8723 LP  0  0  0  0  0  0  0  0  0  0  0  0  # atno 27273 bound_to 11410
  221.5162   25.2660   10.7253 LP  0  0  0  0  0  0  0  0  0  0  0  0  # atno 27274 bound_to 17279
  227.7974   19.8036    5.8904 LP  0  0  0  0  0  0  0  0  0  0  0  0  # atno 27275 bound_to 16954
  227.5121   21.1807    6.7203 LP  0  0  0  0  0  0  0  0  0  0  0  0  # atno 27276 bound_to 16954
  221.8899   20.8545    8.7944 LP  0  0  0  0  0  0  0  0  0  0  0  0  # atno 27277 bound_to 11457
  221.6265   23.9417    7.0462 LP  0  0  0  0  0  0  0  0  0  0  0  0  # atno 27278 bound_to 11523
  226.4558   22.9335    4.6652 LP  0  0  0  0  0  0  0  0  0  0  0  0  # atno 27279 bound_to 11602
  225.9766   21.3362    5.1334 LP  0  0  0  0  0  0  0  0  0  0  0  0  # atno 27280 bound_to 11602
  223.3230   23.7377    5.1259 LP  0  0  0  0  0  0  0  0  0  0  0  0  # atno 27283 bound_to 11599
  221.6594   19.3744    8.7751 LP  0  0  0  0  0  0  0  0  0  0  0  0  # atno 27286 bound_to 11412
  221.1232   17.8680    9.1069 LP  0  0  0  0  0  0  0  0  0  0  0  0  # atno 27287 bound_to 11412
  234.9186   17.5401   10.9077 LP  0  0  0  0  0  0  0  0  0  0  0  0  # atno 27288 bound_to 18684
  233.4419   18.4303   10.7436 LP  0  0  0  0  0  0  0  0  0  0  0  0  # atno 27289 bound_to 18684

> <Gold.Score>
     Fitness  S(hb_ext) S(vdw_ext)  S(hb_int)    S(int)      intcor
     39.46       7.26      24.34       0.00      -1.26      -0.77

> <Gold.Goldscore.Fitness>
39.4573

> <Gold.Goldscore.Internal.Vdw>
-1.4954

> <Gold.Goldscore.Internal.Torsion>
-0.5338

> <Gold.Goldscore.External.Vdw>
24.3353

> <Gold.Goldscore.Internal.HBond>
0.0000

> <Gold.Goldscore.External.HBond>
7.2601

> <Gold.Goldscore.Internal.Correction>
-0.7653

> <Gold.Goldscore.Hbonds>
donor molecule, donor type, donor heavy atom, donor atom, acceptor molecule, acceptor atom, score
      P1  H 19343 19392       L1    17  0.94
      L1  H    10    23       P1 18462  0.82

> <Gold.Goldscore.Internal.Vdw.Weighted>
-1.4954

> <Gold.Goldscore.Internal.Torsion.Weighted>
-0.5338

> <Gold.Goldscore.External.Vdw.Weighted>
33.4611

> <Gold.Goldscore.Internal.HBond.Weighted>
0.0000

> <Gold.Goldscore.External.HBond.Weighted>
7.2601

> <Gold.Goldscore.Internal.Correction.Weighted>
-0.7653

> <Gold.Rescore>
     Score     S(PLP)   S(hbond)     S(cho)   S(metal)  DE(clash)   DE(tors)     intcor
     29.01     -28.34       0.99       0.00       0.00       2.05       0.12       ----

> <Gold.PLP.Fitness>
29.0120

> <Gold.PLP.PLP>
-28.3359

> <Gold.PLP.part.hbond>
-4.2960

> <Gold.PLP.part.metal>
0.0000

> <Gold.PLP.part.buried>
-3.8874

> <Gold.PLP.part.nonpolar>
-21.6076

> <Gold.PLP.part.repulsive>
0.9758

> <Gold.PLP.ligand.clash>
2.0528

> <Gold.PLP.ligand.torsion>
0.1235

> <Gold.PLP.Chemscore.Hbond>
0.9920

> <Gold.PLP.Chemscore.CHOScore>
0.0000

> <Gold.PLP.Chemscore.Metal>
0.0000

> <Gold.Chemscore.Hbonds>
donor molecule, donor type, donor heavy atom, donor atom, acceptor molecule, acceptor atom, score
      P1  H 19343 19392       L1    17  0.83

> <Gold.PLP.Chemscore.Internal.Correction>
   9.000000E+99

