#       Name:                CT1002167954
#       Creating user name   hitesit
#       Creation time:       Sun Apr 16 20:25:33 2023


#       File generated by GOLD software.
#

@<TRIPOS>MOLECULE
CT1002167954|ligand_prepared|mol2|1|dock5
    29    30     1
SMALL
NO_CHARGES


@<TRIPOS>ATOM
      1 C1         229.6145  20.4100  12.1861 C.3            1 RES1               0.0000
      2 C2         229.0419  21.8361  12.0543 C.ar           1 RES1               0.0000
      3 C3         228.4198  19.4622  12.1344 C.2            1 RES1               0.0000
      4 C4         230.5967  20.2364  11.0330 C.2            1 RES1               0.0000
      5 C5         230.3801  20.1637  13.5070 C.3            1 RES1               0.0000
      6 C6         228.9288  22.4417  10.8065 C.ar           1 RES1               0.0000
      7 C7         228.6210  22.5562  13.1692 C.ar           1 RES1               0.0000
      8 N8         228.2352  18.7400  10.9924 N.am           1 RES1               0.0000
      9 O9         227.6292  19.3792  13.0663 O.2            1 RES1               0.0000
     10 N10        230.2946  19.3141  10.0656 N.am           1 RES1               0.0000
     11 O11        231.6213  20.9017  10.9447 O.2            1 RES1               0.0000
     12 C12        231.1815  18.8715  13.5194 C.3            1 RES1               0.0000
     13 C13        228.4109  23.7197  10.6774 C.ar           1 RES1               0.0000
     14 C14        228.1036  23.8343  13.0379 C.ar           1 RES1               0.0000
     15 C15        229.1434  18.5799   9.9769 C.2            1 RES1               0.0000
     16 C16        227.9976  24.4167  11.7928 C.ar           1 RES1               0.0000
     17 O17        228.9203  17.8102   9.0469 O.2            1 RES1               0.0000
     18 H18        231.0629  21.0044  13.6814 H              1 RES1               0.0000
     19 H19        229.6594  20.1401  14.3338 H              1 RES1               0.0000
     20 H20        229.2512  21.9096   9.9176 H              1 RES1               0.0000
     21 H21        228.6960  22.1184  14.1588 H              1 RES1               0.0000
     22 H22        227.3390  18.2761  10.8833 H              1 RES1               0.0000
     23 H23        230.9927  19.1605   9.3449 H              1 RES1               0.0000
     24 H24        231.6989  18.7476  14.4685 H              1 RES1               0.0000
     25 H25        230.5302  18.0122  13.3738 H              1 RES1               0.0000
     26 H26        231.9254  18.8714  12.7254 H              1 RES1               0.0000
     27 H27        228.3309  24.1742   9.6954 H              1 RES1               0.0000
     28 H28        227.7801  24.3793  13.9185 H              1 RES1               0.0000
     29 H29        227.5916  25.4177  11.6913 H              1 RES1               0.0000
@<TRIPOS>BOND
    1    1    2 1     
    2    1    3 1     
    3    1    4 1     
    4    1    5 1     
    5    2    6 ar    
    6    2    7 ar    
    7    3    8 1     
    8    3    9 2     
    9    4   10 1     
   10    4   11 2     
   11    5   12 1     
   12    5   18 1     
   13    5   19 1     
   14    6   13 ar    
   15    6   20 1     
   16    7   14 ar    
   17    7   21 1     
   18    8   15 1     
   19    8   22 1     
   20   10   15 1     
   21   10   23 1     
   22   12   24 1     
   23   12   25 1     
   24   12   26 1     
   25   13   16 ar    
   26   13   27 1     
   27   14   16 ar    
   28   14   28 1     
   29   15   17 2     
   30   16   29 1     
@<TRIPOS>SUBSTRUCTURE
      1 RES1           1
@<TRIPOS>SET
DONOR_HYDROGENS      STATIC     ATOMS    <user>   **** ""
2 22 23
ATOM$RED        STATIC     ATOMS    COLORGROUP SYSTEM
2 22 23
@<TRIPOS>COMMENT
> <Gold.Version>
2022.3.0

> <Gold.Id.Protein>
unknown|4v3u_clean|pdb

> <Gold.Protein.RotatedTorsions>
[  594  544  543  542 ] final  -91.32 input   59.98 | X-H torsion
[  739  695  696  697 ] final  -83.53 input   98.51 | X-H torsion
[ 2556 2523 2524 2525 ] final   58.62 input  111.11 | X-H torsion
[ 2632 2595 2596 2597 ] final   21.75 input   53.40 | X-H torsion
[ 26082 26043 26042 26040 ] final   12.09 input   60.02 | X-H torsion
[ 27179 27119 27118 27114 ] final   97.14 input   60.01 | X-H torsion
[ 7425 7411 7412 7413 ] final   -1.30 input   83.97 | X-H torsion
[ 7476 7453 7454 7455 ] final   46.66 input   94.79 | X-H torsion
[ 7522 7511 7512 7513 ] final   70.10 input   85.82 | X-H torsion
[ 17193 17173 17174 17175 ] final  -31.76 input   42.33 | X-H torsion
[ 17249 17217 17218 17219 ] final -176.47 input  107.71 | X-H torsion
[ 18293 18271 18272 18273 ] final  136.77 input   26.15 | X-H torsion
[ 18325 18311 18312 18313 ] final   38.27 input   53.27 | X-H torsion
[ 18407 18359 18360 18361 ] final   70.67 input   33.85 | X-H torsion
[ 18493 18451 18452 18453 ] final   -9.88 input  113.35 | X-H torsion
[ 18561 18527 18528 18529 ] final   94.64 input   85.91 | X-H torsion
[ 18501 18462 18461 18459 ] final  122.18 input   59.98 | X-H torsion
[ 18241 18201 18202 18203 ] final -178.72 input   44.19 | X-H torsion
[ 18297 18276 18275 18272 ] final -167.01 input   59.98 | X-H torsion
[ 10103 10092 10091 10088 ] final   59.34 input   59.98 | X-H torsion
[ 17301 17279 17280 17281 ] final  -19.96 input   44.55 | X-H torsion
[ 16993 16954 16953 16951 ] final  -43.55 input   59.99 | X-H torsion
[ 11475 11457 11458 11459 ] final  -55.16 input   48.15 | X-H torsion
[ 11539 11523 11524 11525 ] final -153.16 input  117.79 | X-H torsion
[ 11615 11599 11600 11601 ] final  153.22 input   58.98 | X-H torsion
[ 11423 11412 11411 11408 ] final  113.56 input   60.01 | X-H torsion
[ 27181 27121 27120 27118 ] final -114.24 input   60.02 | X-H torsion
[ 10139 10129 10130 10131 ] final    4.07 input   28.23 | X-H torsion
[ 17355 17327 17328 17329 ] final   54.86 input   73.50 | X-H torsion
[ 27201  698  697  696 ] final   20.69 input    0.00 | X-H torsion
[ 27204 2526 2525 2524 ] final -163.28 input    0.00 | X-H torsion
[ 27228 7328 7327 7326 ] final  -70.42 input    0.00 | X-H torsion
[ 27233 7514 7513 7512 ] final  -70.61 input    0.00 | X-H torsion
[ 27236 17124 17123 17122 ] final -132.26 input    0.00 | X-H torsion
[ 27240 18204 18203 18202 ] final  156.21 input    0.00 | X-H torsion
[ 27243 18274 18273 18272 ] final -128.42 input    0.00 | X-H torsion
[ 27246 18314 18313 18312 ] final -112.87 input   -0.00 | X-H torsion
[ 27249 18362 18361 18360 ] final  -88.99 input    0.00 | X-H torsion
[ 27257 17176 17175 17174 ] final -141.29 input   -0.00 | X-H torsion
[ 27259 17220 17219 17218 ] final   86.35 input   -0.00 | X-H torsion
[ 27261 17050 17049 17048 ] final -101.88 input    0.00 | X-H torsion
[ 27270 10132 10131 10130 ] final -101.94 input    0.00 | X-H torsion
[ 27272 11410 11409 11408 ] final   30.32 input   -0.00 | X-H torsion
[ 27279 11602 11601 11600 ] final   48.47 input    0.00 | X-H torsion
[ 27288 18684 18683 18682 ] final   85.08 input   -0.00 | X-H torsion

> <Gold.Protein.ActiveResidues>
 LYS309  TRP311  GLU314  MET341  HIS342  TRP414  ALA417  ARG419  CYS420  VAL421 
 GLY422  ARG423  LEU460  SER462  ALA463  SER482  GLN483  LEU484  ILE485  ARG486 
 ALA502  TRP566  TYR567  LEU569  PRO570  ALA571  VAL572  SER573  ASN574  MET575 
 PHE589  SER590  GLY591  TRP592  TYR593  MET594  GLU597  ILE598  ARG601  ASP602 
 ASP605  ARG608  TRP683  PHE696  HIS697  GLU699  TYR711  ASP714  HEM750  H4B760 

> <Gold.Protein.RotatedAtoms>
  219.8321    7.7688   19.1378 H   0  0  0  0  0  0  0  0  0  0  0  0  # atno 594  bound_to 544 
  220.9500    8.9875   19.0284 H   0  0  0  0  0  0  0  0  0  0  0  0  # atno 595  bound_to 544 
  220.8217    7.8684   17.8120 H   0  0  0  0  0  0  0  0  0  0  0  0  # atno 596  bound_to 544 
  226.8314    6.3930   20.2631 H   0  0  0  0  0  0  0  0  0  0  0  0  # atno 739  bound_to 695 
  224.2657   13.2177   25.6104 H   0  0  0  0  0  0  0  0  0  0  0  0  # atno 2556 bound_to 2523
  222.5895   14.2133   25.4759 H   0  0  0  0  0  0  0  0  0  0  0  0  # atno 2632 bound_to 2595
  230.5204   26.5746   22.9139 H   0  0  0  0  0  0  0  0  0  0  0  0  # atno 7425 bound_to 7411
  232.6945   27.4533   19.5692 H   0  0  0  0  0  0  0  0  0  0  0  0  # atno 7476 bound_to 7453
  232.8126   29.2947   19.3706 H   0  0  0  0  0  0  0  0  0  0  0  0  # atno 7522 bound_to 7511
  230.9992   35.8714   12.1101 H   0  0  0  0  0  0  0  0  0  0  0  0  # atno 10103 bound_to 10092
  226.3887   34.6883   11.2443 H   0  0  0  0  0  0  0  0  0  0  0  0  # atno 10139 bound_to 10129
  222.4833   18.7397    9.7961 H   0  0  0  0  0  0  0  0  0  0  0  0  # atno 11423 bound_to 11412
  220.5078   21.9258    8.7373 H   0  0  0  0  0  0  0  0  0  0  0  0  # atno 11475 bound_to 11457
  221.5643   24.7547    7.4482 H   0  0  0  0  0  0  0  0  0  0  0  0  # atno 11539 bound_to 11523
  223.5682   25.2344    4.2637 H   0  0  0  0  0  0  0  0  0  0  0  0  # atno 11615 bound_to 11599
  228.7200   20.9414    6.9977 H   0  0  0  0  0  0  0  0  0  0  0  0  # atno 16993 bound_to 16954
  226.7874   25.7770    9.0830 H   0  0  0  0  0  0  0  0  0  0  0  0  # atno 17193 bound_to 17173
  225.0990   26.0278   11.0100 H   0  0  0  0  0  0  0  0  0  0  0  0  # atno 17249 bound_to 17217
  220.9699   24.6105   12.2442 H   0  0  0  0  0  0  0  0  0  0  0  0  # atno 17301 bound_to 17279
  219.6610   23.9371   13.0538 H   0  0  0  0  0  0  0  0  0  0  0  0  # atno 17355 bound_to 17327
  220.8571   30.4871   11.9971 H   0  0  0  0  0  0  0  0  0  0  0  0  # atno 18241 bound_to 18201
  224.3300   31.4459   10.6451 H   0  0  0  0  0  0  0  0  0  0  0  0  # atno 18293 bound_to 18271
  225.7898   32.1399    7.5830 H   0  0  0  0  0  0  0  0  0  0  0  0  # atno 18297 bound_to 18276
  228.7688   30.1055   10.7208 H   0  0  0  0  0  0  0  0  0  0  0  0  # atno 18325 bound_to 18311
  232.4564   31.2282   11.4712 H   0  0  0  0  0  0  0  0  0  0  0  0  # atno 18407 bound_to 18359
  234.5835   28.8955    9.9056 H   0  0  0  0  0  0  0  0  0  0  0  0  # atno 18493 bound_to 18451
  229.8523   22.9713    7.4667 H   0  0  0  0  0  0  0  0  0  0  0  0  # atno 18501 bound_to 18462
  235.2141   25.7435   12.4388 H   0  0  0  0  0  0  0  0  0  0  0  0  # atno 18561 bound_to 18527
  224.4682   20.4920   20.3353 H   0  0  0  0  0  0  0  0  0  0  0  0  # atno 26082 bound_to 26043
  231.4307   11.8742   21.7108 H   0  0  0  0  0  0  0  0  0  0  0  0  # atno 27179 bound_to 27119
  230.3048   14.1768   24.9874 H   0  0  0  0  0  0  0  0  0  0  0  0  # atno 27181 bound_to 27121
  227.9592    7.7079   20.4741 LP  0  0  0  0  0  0  0  0  0  0  0  0  # atno 27200 bound_to 695 
  226.4304    8.5194   16.2403 LP  0  0  0  0  0  0  0  0  0  0  0  0  # atno 27201 bound_to 698 
  227.1477    7.1202   15.5139 LP  0  0  0  0  0  0  0  0  0  0  0  0  # atno 27202 bound_to 698 
  225.7958   13.9581   26.0057 LP  0  0  0  0  0  0  0  0  0  0  0  0  # atno 27203 bound_to 2523
  222.6841   17.5398   25.0027 LP  0  0  0  0  0  0  0  0  0  0  0  0  # atno 27204 bound_to 2526
  224.1859   17.4857   24.1416 LP  0  0  0  0  0  0  0  0  0  0  0  0  # atno 27205 bound_to 2526
  223.0153   15.4769   24.3425 LP  0  0  0  0  0  0  0  0  0  0  0  0  # atno 27206 bound_to 2595
  224.3724   19.2298   21.3583 LP  0  0  0  0  0  0  0  0  0  0  0  0  # atno 27210 bound_to 26043
  224.3918   20.7557   21.9395 LP  0  0  0  0  0  0  0  0  0  0  0  0  # atno 27211 bound_to 26043
  231.0336   12.8465   20.4673 LP  0  0  0  0  0  0  0  0  0  0  0  0  # atno 27214 bound_to 27119
  230.0293   11.6399   20.9167 LP  0  0  0  0  0  0  0  0  0  0  0  0  # atno 27215 bound_to 27119
  231.6440   24.1877   21.7162 LP  0  0  0  0  0  0  0  0  0  0  0  0  # atno 27228 bound_to 7328
  230.4689   24.4548   20.4721 LP  0  0  0  0  0  0  0  0  0  0  0  0  # atno 27229 bound_to 7328
  229.1189   26.2310   21.9329 LP  0  0  0  0  0  0  0  0  0  0  0  0  # atno 27230 bound_to 7411
  232.4681   27.0890   21.2638 LP  0  0  0  0  0  0  0  0  0  0  0  0  # atno 27231 bound_to 7453
  234.5227   29.2062   19.7132 LP  0  0  0  0  0  0  0  0  0  0  0  0  # atno 27232 bound_to 7511
  234.0683   33.6754   18.0913 LP  0  0  0  0  0  0  0  0  0  0  0  0  # atno 27233 bound_to 7514
  232.3504   33.4848   18.2029 LP  0  0  0  0  0  0  0  0  0  0  0  0  # atno 27234 bound_to 7514
  227.3651   28.2276   10.3900 LP  0  0  0  0  0  0  0  0  0  0  0  0  # atno 27236 bound_to 17124
  228.3322   28.9269    9.1348 LP  0  0  0  0  0  0  0  0  0  0  0  0  # atno 27237 bound_to 17124
  226.9279   26.9455    7.7931 LP  0  0  0  0  0  0  0  0  0  0  0  0  # atno 27238 bound_to 17173
  223.8328   27.1332   10.5139 LP  0  0  0  0  0  0  0  0  0  0  0  0  # atno 27239 bound_to 17217
  224.9442   28.9944   10.5020 LP  0  0  0  0  0  0  0  0  0  0  0  0  # atno 27240 bound_to 18204
  223.6916   28.6813   11.6565 LP  0  0  0  0  0  0  0  0  0  0  0  0  # atno 27241 bound_to 18204
  225.1930   31.6448   12.1469 LP  0  0  0  0  0  0  0  0  0  0  0  0  # atno 27242 bound_to 18271
  228.0632   33.5924   10.7436 LP  0  0  0  0  0  0  0  0  0  0  0  0  # atno 27243 bound_to 18274
  226.7639   33.2445   11.8349 LP  0  0  0  0  0  0  0  0  0  0  0  0  # atno 27244 bound_to 18274
  227.8841   31.5341   11.2099 LP  0  0  0  0  0  0  0  0  0  0  0  0  # atno 27245 bound_to 18311
  230.6352   30.8297    8.3802 LP  0  0  0  0  0  0  0  0  0  0  0  0  # atno 27246 bound_to 18314
  230.7666   32.5291    8.6881 LP  0  0  0  0  0  0  0  0  0  0  0  0  # atno 27247 bound_to 18314
  231.1316   30.7041   10.4566 LP  0  0  0  0  0  0  0  0  0  0  0  0  # atno 27248 bound_to 18359
  234.4529   29.1488   12.1449 LP  0  0  0  0  0  0  0  0  0  0  0  0  # atno 27249 bound_to 18362
  232.9419   28.3066   12.0576 LP  0  0  0  0  0  0  0  0  0  0  0  0  # atno 27250 bound_to 18362
  233.5120   27.9848    8.8694 LP  0  0  0  0  0  0  0  0  0  0  0  0  # atno 27251 bound_to 18451
  236.0628   26.5512   11.1422 LP  0  0  0  0  0  0  0  0  0  0  0  0  # atno 27252 bound_to 18527
  222.5770   25.3766    9.2241 LP  0  0  0  0  0  0  0  0  0  0  0  0  # atno 27257 bound_to 17176
  223.9239   25.1320    8.1629 LP  0  0  0  0  0  0  0  0  0  0  0  0  # atno 27258 bound_to 17176
  221.5363   27.8288   10.8863 LP  0  0  0  0  0  0  0  0  0  0  0  0  # atno 27259 bound_to 17220
  221.1862   27.6450   12.5726 LP  0  0  0  0  0  0  0  0  0  0  0  0  # atno 27260 bound_to 17220
  227.1414   26.4710    5.6978 LP  0  0  0  0  0  0  0  0  0  0  0  0  # atno 27261 bound_to 17050
  228.4259   25.5238    5.0247 LP  0  0  0  0  0  0  0  0  0  0  0  0  # atno 27262 bound_to 17050
  230.3970   21.8698    8.5334 LP  0  0  0  0  0  0  0  0  0  0  0  0  # atno 27263 bound_to 18462
  230.8707   21.8026    6.9720 LP  0  0  0  0  0  0  0  0  0  0  0  0  # atno 27264 bound_to 18462
  221.9513   29.3487   11.2453 LP  0  0  0  0  0  0  0  0  0  0  0  0  # atno 27265 bound_to 18201
  226.9446   32.6903    8.5894 LP  0  0  0  0  0  0  0  0  0  0  0  0  # atno 27266 bound_to 18276
  225.3854   32.6541    9.0734 LP  0  0  0  0  0  0  0  0  0  0  0  0  # atno 27267 bound_to 18276
  230.3466   34.4101   12.4038 LP  0  0  0  0  0  0  0  0  0  0  0  0  # atno 27268 bound_to 10092
  230.6295   35.4437   13.6359 LP  0  0  0  0  0  0  0  0  0  0  0  0  # atno 27269 bound_to 10092
  223.8060   33.2183   10.6678 LP  0  0  0  0  0  0  0  0  0  0  0  0  # atno 27270 bound_to 10132
  224.7092   33.6222   12.0894 LP  0  0  0  0  0  0  0  0  0  0  0  0  # atno 27271 bound_to 10132
  221.2578   22.0891   11.7617 LP  0  0  0  0  0  0  0  0  0  0  0  0  # atno 27272 bound_to 11410
  221.5339   23.3705   10.6296 LP  0  0  0  0  0  0  0  0  0  0  0  0  # atno 27273 bound_to 11410
  221.5318   25.3455   10.7652 LP  0  0  0  0  0  0  0  0  0  0  0  0  # atno 27274 bound_to 17279
  228.3485   19.6958    6.0190 LP  0  0  0  0  0  0  0  0  0  0  0  0  # atno 27275 bound_to 16954
  227.2224   20.8243    6.3724 LP  0  0  0  0  0  0  0  0  0  0  0  0  # atno 27276 bound_to 16954
  221.9040   20.8774    8.8851 LP  0  0  0  0  0  0  0  0  0  0  0  0  # atno 27277 bound_to 11457
  223.0365   24.2004    6.6904 LP  0  0  0  0  0  0  0  0  0  0  0  0  # atno 27278 bound_to 11523
  225.7606   22.6698    5.4055 LP  0  0  0  0  0  0  0  0  0  0  0  0  # atno 27279 bound_to 11602
  226.6718   21.6000    4.3930 LP  0  0  0  0  0  0  0  0  0  0  0  0  # atno 27280 bound_to 11602
  223.2666   23.7294    5.0955 LP  0  0  0  0  0  0  0  0  0  0  0  0  # atno 27283 bound_to 11599
  221.4268   19.2260    8.6575 LP  0  0  0  0  0  0  0  0  0  0  0  0  # atno 27286 bound_to 11412
  221.2935   17.7379    9.3166 LP  0  0  0  0  0  0  0  0  0  0  0  0  # atno 27287 bound_to 11412
  233.4537   18.4263   10.6594 LP  0  0  0  0  0  0  0  0  0  0  0  0  # atno 27288 bound_to 18684
  234.9068   17.5442   10.9919 LP  0  0  0  0  0  0  0  0  0  0  0  0  # atno 27289 bound_to 18684

> <Gold.Score>
     Fitness  S(hb_ext) S(vdw_ext)  S(hb_int)    S(int)      intcor
     34.77       6.38      21.06       0.00      -0.57      -0.76

> <Gold.Goldscore.Fitness>
34.7655

> <Gold.Goldscore.Internal.Vdw>
-0.7553

> <Gold.Goldscore.Internal.Torsion>
-0.5844

> <Gold.Goldscore.External.Vdw>
21.0589

> <Gold.Goldscore.Internal.HBond>
0.0000

> <Gold.Goldscore.External.HBond>
6.3842

> <Gold.Goldscore.Internal.Correction>
-0.7650

> <Gold.Goldscore.Hbonds>
donor molecule, donor type, donor heavy atom, donor atom, acceptor molecule, acceptor atom, score
      P1  H 11464 11481       L1    17  0.11
      P1  H 19343 19392       L1    17  0.48
      L1  H    10    23       P1 19010  0.55

> <Gold.Goldscore.Internal.Vdw.Weighted>
-0.7553

> <Gold.Goldscore.Internal.Torsion.Weighted>
-0.5844

> <Gold.Goldscore.External.Vdw.Weighted>
28.9560

> <Gold.Goldscore.Internal.HBond.Weighted>
0.0000

> <Gold.Goldscore.External.HBond.Weighted>
6.3842

> <Gold.Goldscore.Internal.Correction.Weighted>
-0.7650

> <Gold.Rescore>
     Score     S(PLP)   S(hbond)     S(cho)   S(metal)  DE(clash)   DE(tors)     intcor
     29.84     -27.94       1.44       0.00       0.00       0.54       0.94       ----

> <Gold.PLP.Fitness>
29.8382

> <Gold.PLP.PLP>
-27.9410

> <Gold.PLP.part.hbond>
-5.0999

> <Gold.PLP.part.metal>
0.0000

> <Gold.PLP.part.buried>
1.0812

> <Gold.PLP.part.nonpolar>
-30.5199

> <Gold.PLP.part.repulsive>
5.5991

> <Gold.PLP.ligand.clash>
0.5356

> <Gold.PLP.ligand.torsion>
0.9434

> <Gold.PLP.Chemscore.Hbond>
1.4399

> <Gold.PLP.Chemscore.CHOScore>
0.0000

> <Gold.PLP.Chemscore.Metal>
0.0000

> <Gold.Chemscore.Hbonds>
donor molecule, donor type, donor heavy atom, donor atom, acceptor molecule, acceptor atom, score
      L1  H    10    23       P1 19010  0.40
      P1  H 19343 19392       L1    17  0.99

> <Gold.PLP.Chemscore.Internal.Correction>
   9.000000E+99

