#       Name:                GA Fitting Points
#       Creating user name   hitesit
#       Creation time:       Sun Apr 16 02:21:11 2023


#       Fitting Points Used by GA Software.
#

@<TRIPOS>MOLECULE
GA Fitting Points
   378    0    0
SMALL
NO_CHARGES


@<TRIPOS>ATOM
      1 ****        13.0000   3.2500   6.5000 Du        
      2 ****        13.0000   3.5000   6.5000 Du        
      3 ****        13.0000   3.7500   6.5000 Du        
      4 ****        13.2500   3.2500   6.2500 Du        
      5 ****        13.2500   3.2500   6.5000 Du        
      6 ****        13.2500   3.5000   6.0000 Du        
      7 ****        13.2500   3.5000   6.2500 Du        
      8 ****        13.2500   3.5000   6.5000 Du        
      9 ****        13.2500   3.5000   6.7500 Du        
     10 ****        13.2500   3.7500   6.0000 Du        
     11 ****        13.2500   3.7500   6.2500 Du        
     12 ****        13.2500   3.7500   6.5000 Du        
     13 ****        13.2500   3.7500   6.7500 Du        
     14 ****        13.2500   4.0000   6.0000 Du        
     15 ****        13.2500   4.0000   6.2500 Du        
     16 ****        13.2500   4.0000   6.5000 Du        
     17 ****        13.2500   4.2500   6.0000 Du        
     18 ****        13.2500   4.2500   6.2500 Du        
     19 ****        13.2500   4.2500   6.5000 Du        
     20 ****        13.5000   3.2500   6.5000 Du        
     21 ****        13.5000   3.2500   6.7500 Du        
     22 ****        13.5000   3.5000   6.2500 Du        
     23 ****        13.5000   3.5000   6.5000 Du        
     24 ****        13.5000   3.5000   6.7500 Du        
     25 ****        13.5000   3.7500   6.0000 Du        
     26 ****        13.5000   3.7500   6.2500 Du        
     27 ****        13.5000   3.7500   6.5000 Du        
     28 ****        13.5000   3.7500   6.7500 Du        
     29 ****        13.5000   4.0000   6.0000 Du        
     30 ****        13.5000   4.0000   6.2500 Du        
     31 ****        13.5000   4.0000   6.5000 Du        
     32 ****        13.5000   4.0000   6.7500 Du        
     33 ****        13.5000   4.2500   6.0000 Du        
     34 ****        13.5000   4.2500   6.2500 Du        
     35 ****        13.5000   4.2500   6.5000 Du        
     36 ****        13.5000   4.2500   6.7500 Du        
     37 ****        13.5000   4.5000   6.0000 Du        
     38 ****        13.5000   4.5000   6.2500 Du        
     39 ****        13.5000   4.5000   6.5000 Du        
     40 ****        13.5000   4.5000   6.7500 Du        
     41 ****        13.5000   4.7500   6.0000 Du        
     42 ****        13.5000   4.7500   6.2500 Du        
     43 ****        13.5000   4.7500   6.5000 Du        
     44 ****        13.5000   4.7500   6.7500 Du        
     45 ****        13.7500   3.2500   6.5000 Du        
     46 ****        13.7500   3.2500   6.7500 Du        
     47 ****        13.7500   3.5000   6.2500 Du        
     48 ****        13.7500   3.5000   6.5000 Du        
     49 ****        13.7500   3.5000   6.7500 Du        
     50 ****        13.7500   3.5000   7.0000 Du        
     51 ****        13.7500   3.7500   6.0000 Du        
     52 ****        13.7500   3.7500   6.2500 Du        
     53 ****        13.7500   3.7500   6.5000 Du        
     54 ****        13.7500   3.7500   6.7500 Du        
     55 ****        13.7500   3.7500   7.0000 Du        
     56 ****        13.7500   4.0000   6.0000 Du        
     57 ****        13.7500   4.0000   6.2500 Du        
     58 ****        13.7500   4.0000   6.5000 Du        
     59 ****        13.7500   4.0000   6.7500 Du        
     60 ****        13.7500   4.0000   7.0000 Du        
     61 ****        13.7500   4.2500   5.7500 Du        
     62 ****        13.7500   4.2500   6.0000 Du        
     63 ****        13.7500   4.2500   6.2500 Du        
     64 ****        13.7500   4.2500   6.5000 Du        
     65 ****        13.7500   4.2500   6.7500 Du        
     66 ****        13.7500   4.2500   7.0000 Du        
     67 ****        13.7500   4.5000   5.7500 Du        
     68 ****        13.7500   4.5000   6.0000 Du        
     69 ****        13.7500   4.5000   6.2500 Du        
     70 ****        13.7500   4.5000   6.5000 Du        
     71 ****        13.7500   4.5000   6.7500 Du        
     72 ****        13.7500   4.5000   7.0000 Du        
     73 ****        13.7500   4.7500   5.7500 Du        
     74 ****        13.7500   4.7500   6.0000 Du        
     75 ****        13.7500   4.7500   6.2500 Du        
     76 ****        13.7500   4.7500   6.5000 Du        
     77 ****        13.7500   4.7500   6.7500 Du        
     78 ****        13.7500   4.7500   7.0000 Du        
     79 ****        13.7500   5.0000   6.0000 Du        
     80 ****        13.7500   5.0000   6.2500 Du        
     81 ****        13.7500   5.0000   6.5000 Du        
     82 ****        13.7500   5.0000   6.7500 Du        
     83 ****        13.7500   5.0000   7.0000 Du        
     84 ****        14.0000   3.2500   6.5000 Du        
     85 ****        14.0000   3.2500   6.7500 Du        
     86 ****        14.0000   3.2500   7.0000 Du        
     87 ****        14.0000   3.5000   6.2500 Du        
     88 ****        14.0000   3.5000   6.5000 Du        
     89 ****        14.0000   3.5000   6.7500 Du        
     90 ****        14.0000   3.5000   7.0000 Du        
     91 ****        14.0000   3.7500   6.0000 Du        
     92 ****        14.0000   3.7500   6.2500 Du        
     93 ****        14.0000   3.7500   6.5000 Du        
     94 ****        14.0000   3.7500   6.7500 Du        
     95 ****        14.0000   3.7500   7.0000 Du        
     96 ****        14.0000   4.0000   6.0000 Du        
     97 ****        14.0000   4.0000   6.2500 Du        
     98 ****        14.0000   4.0000   6.5000 Du        
     99 ****        14.0000   4.0000   6.7500 Du        
    100 ****        14.0000   4.0000   7.0000 Du        
    101 ****        14.0000   4.0000   7.2500 Du        
    102 ****        14.0000   4.2500   5.7500 Du        
    103 ****        14.0000   4.2500   6.0000 Du        
    104 ****        14.0000   4.2500   6.2500 Du        
    105 ****        14.0000   4.2500   6.5000 Du        
    106 ****        14.0000   4.2500   6.7500 Du        
    107 ****        14.0000   4.2500   7.0000 Du        
    108 ****        14.0000   4.2500   7.2500 Du        
    109 ****        14.0000   4.5000   5.7500 Du        
    110 ****        14.0000   4.5000   6.0000 Du        
    111 ****        14.0000   4.5000   6.2500 Du        
    112 ****        14.0000   4.5000   6.5000 Du        
    113 ****        14.0000   4.5000   6.7500 Du        
    114 ****        14.0000   4.5000   7.0000 Du        
    115 ****        14.0000   4.5000   7.2500 Du        
    116 ****        14.0000   4.7500   5.7500 Du        
    117 ****        14.0000   4.7500   6.0000 Du        
    118 ****        14.0000   4.7500   6.2500 Du        
    119 ****        14.0000   4.7500   6.5000 Du        
    120 ****        14.0000   4.7500   6.7500 Du        
    121 ****        14.0000   4.7500   7.0000 Du        
    122 ****        14.0000   4.7500   7.2500 Du        
    123 ****        14.0000   5.0000   5.7500 Du        
    124 ****        14.0000   5.0000   6.0000 Du        
    125 ****        14.0000   5.0000   6.2500 Du        
    126 ****        14.0000   5.0000   6.5000 Du        
    127 ****        14.0000   5.0000   6.7500 Du        
    128 ****        14.0000   5.0000   7.0000 Du        
    129 ****        14.2500   3.2500   6.5000 Du        
    130 ****        14.2500   3.2500   6.7500 Du        
    131 ****        14.2500   3.2500   7.0000 Du        
    132 ****        14.2500   3.5000   6.2500 Du        
    133 ****        14.2500   3.5000   6.5000 Du        
    134 ****        14.2500   3.5000   6.7500 Du        
    135 ****        14.2500   3.5000   7.0000 Du        
    136 ****        14.2500   3.7500   6.0000 Du        
    137 ****        14.2500   3.7500   6.2500 Du        
    138 ****        14.2500   3.7500   6.5000 Du        
    139 ****        14.2500   3.7500   6.7500 Du        
    140 ****        14.2500   3.7500   7.0000 Du        
    141 ****        14.2500   3.7500   7.2500 Du        
    142 ****        14.2500   4.0000   6.0000 Du        
    143 ****        14.2500   4.0000   6.2500 Du        
    144 ****        14.2500   4.0000   6.5000 Du        
    145 ****        14.2500   4.0000   6.7500 Du        
    146 ****        14.2500   4.0000   7.0000 Du        
    147 ****        14.2500   4.0000   7.2500 Du        
    148 ****        14.2500   4.0000   7.5000 Du        
    149 ****        14.2500   4.2500   6.0000 Du        
    150 ****        14.2500   4.2500   6.2500 Du        
    151 ****        14.2500   4.2500   6.5000 Du        
    152 ****        14.2500   4.2500   6.7500 Du        
    153 ****        14.2500   4.2500   7.0000 Du        
    154 ****        14.2500   4.2500   7.2500 Du        
    155 ****        14.2500   4.2500   7.5000 Du        
    156 ****        14.2500   4.5000   6.0000 Du        
    157 ****        14.2500   4.5000   6.2500 Du        
    158 ****        14.2500   4.5000   6.5000 Du        
    159 ****        14.2500   4.5000   6.7500 Du        
    160 ****        14.2500   4.5000   7.0000 Du        
    161 ****        14.2500   4.5000   7.2500 Du        
    162 ****        14.2500   4.5000   7.5000 Du        
    163 ****        14.2500   4.7500   6.0000 Du        
    164 ****        14.2500   4.7500   6.2500 Du        
    165 ****        14.2500   4.7500   6.5000 Du        
    166 ****        14.2500   4.7500   6.7500 Du        
    167 ****        14.2500   4.7500   7.0000 Du        
    168 ****        14.2500   4.7500   7.2500 Du        
    169 ****        14.2500   5.0000   6.0000 Du        
    170 ****        14.2500   5.0000   6.2500 Du        
    171 ****        14.2500   5.0000   6.5000 Du        
    172 ****        14.2500   5.0000   6.7500 Du        
    173 ****        14.2500   5.0000   7.0000 Du        
    174 ****        14.5000   3.2500   6.7500 Du        
    175 ****        14.5000   3.5000   6.5000 Du        
    176 ****        14.5000   3.5000   6.7500 Du        
    177 ****        14.5000   3.5000   7.0000 Du        
    178 ****        14.5000   3.5000   7.2500 Du        
    179 ****        14.5000   3.7500   6.5000 Du        
    180 ****        14.5000   3.7500   6.7500 Du        
    181 ****        14.5000   3.7500   7.0000 Du        
    182 ****        14.5000   3.7500   7.2500 Du        
    183 ****        14.5000   3.7500   7.5000 Du        
    184 ****        14.5000   4.0000   6.2500 Du        
    185 ****        14.5000   4.0000   6.5000 Du        
    186 ****        14.5000   4.0000   6.7500 Du        
    187 ****        14.5000   4.0000   7.0000 Du        
    188 ****        14.5000   4.0000   7.2500 Du        
    189 ****        14.5000   4.0000   7.5000 Du        
    190 ****        14.5000   4.2500   6.2500 Du        
    191 ****        14.5000   4.2500   6.5000 Du        
    192 ****        14.5000   4.2500   6.7500 Du        
    193 ****        14.5000   4.2500   7.0000 Du        
    194 ****        14.5000   4.2500   7.2500 Du        
    195 ****        14.5000   4.2500   7.5000 Du        
    196 ****        14.5000   4.5000   6.0000 Du        
    197 ****        14.5000   4.5000   6.2500 Du        
    198 ****        14.5000   4.5000   6.5000 Du        
    199 ****        14.5000   4.5000   6.7500 Du        
    200 ****        14.5000   4.5000   7.0000 Du        
    201 ****        14.5000   4.5000   7.2500 Du        
    202 ****        14.5000   4.5000   7.5000 Du        
    203 ****        14.5000   4.7500   6.5000 Du        
    204 ****        14.5000   4.7500   6.7500 Du        
    205 ****        14.5000   4.7500   7.0000 Du        
    206 ****        14.5000   4.7500   7.2500 Du        
    207 ****        14.5000   4.7500   7.5000 Du        
    208 ****        14.7500   3.2500   7.0000 Du        
    209 ****        14.7500   3.2500   7.2500 Du        
    210 ****        14.7500   3.5000   6.5000 Du        
    211 ****        14.7500   3.5000   6.7500 Du        
    212 ****        14.7500   3.5000   7.0000 Du        
    213 ****        14.7500   3.5000   7.2500 Du        
    214 ****        14.7500   3.5000   7.5000 Du        
    215 ****        14.7500   3.7500   6.5000 Du        
    216 ****        14.7500   3.7500   6.7500 Du        
    217 ****        14.7500   3.7500   7.0000 Du        
    218 ****        14.7500   3.7500   7.2500 Du        
    219 ****        14.7500   3.7500   7.5000 Du        
    220 ****        14.7500   4.0000   6.2500 Du        
    221 ****        14.7500   4.0000   6.5000 Du        
    222 ****        14.7500   4.0000   6.7500 Du        
    223 ****        14.7500   4.0000   7.0000 Du        
    224 ****        14.7500   4.0000   7.2500 Du        
    225 ****        14.7500   4.0000   7.5000 Du        
    226 ****        14.7500   4.0000   7.7500 Du        
    227 ****        14.7500   4.2500   6.2500 Du        
    228 ****        14.7500   4.2500   6.5000 Du        
    229 ****        14.7500   4.2500   6.7500 Du        
    230 ****        14.7500   4.2500   7.0000 Du        
    231 ****        14.7500   4.2500   7.2500 Du        
    232 ****        14.7500   4.2500   7.5000 Du        
    233 ****        14.7500   4.2500   7.7500 Du        
    234 ****        14.7500   4.5000   6.5000 Du        
    235 ****        14.7500   4.5000   6.7500 Du        
    236 ****        14.7500   4.5000   7.0000 Du        
    237 ****        14.7500   4.5000   7.2500 Du        
    238 ****        14.7500   4.5000   7.5000 Du        
    239 ****        14.7500   4.5000   7.7500 Du        
    240 ****        14.7500   4.7500   7.2500 Du        
    241 ****        14.7500   4.7500   7.5000 Du        
    242 ****        15.0000   3.2500   7.0000 Du        
    243 ****        15.0000   3.2500   7.2500 Du        
    244 ****        15.0000   3.5000   6.7500 Du        
    245 ****        15.0000   3.5000   7.0000 Du        
    246 ****        15.0000   3.5000   7.2500 Du        
    247 ****        15.0000   3.5000   7.5000 Du        
    248 ****        15.0000   3.7500   6.5000 Du        
    249 ****        15.0000   3.7500   6.7500 Du        
    250 ****        15.0000   3.7500   7.0000 Du        
    251 ****        15.0000   3.7500   7.2500 Du        
    252 ****        15.0000   3.7500   7.5000 Du        
    253 ****        15.0000   3.7500   7.7500 Du        
    254 ****        15.0000   4.0000   6.5000 Du        
    255 ****        15.0000   4.0000   6.7500 Du        
    256 ****        15.0000   4.0000   7.0000 Du        
    257 ****        15.0000   4.0000   7.2500 Du        
    258 ****        15.0000   4.0000   7.5000 Du        
    259 ****        15.0000   4.0000   7.7500 Du        
    260 ****        15.0000   4.2500   6.5000 Du        
    261 ****        15.0000   4.2500   6.7500 Du        
    262 ****        15.0000   4.2500   7.0000 Du        
    263 ****        15.0000   4.2500   7.2500 Du        
    264 ****        15.0000   4.2500   7.5000 Du        
    265 ****        15.0000   4.2500   7.7500 Du        
    266 ****        15.0000   4.2500   8.0000 Du        
    267 ****        15.0000   4.5000   6.7500 Du        
    268 ****        15.0000   4.5000   7.0000 Du        
    269 ****        15.0000   4.5000   7.2500 Du        
    270 ****        15.0000   4.5000   7.5000 Du        
    271 ****        15.0000   4.5000   7.7500 Du        
    272 ****        15.0000   4.5000   8.0000 Du        
    273 ****        15.2500   3.2500   7.0000 Du        
    274 ****        15.2500   3.2500   7.2500 Du        
    275 ****        15.2500   3.2500   7.5000 Du        
    276 ****        15.2500   3.5000   6.7500 Du        
    277 ****        15.2500   3.5000   7.0000 Du        
    278 ****        15.2500   3.5000   7.2500 Du        
    279 ****        15.2500   3.5000   7.5000 Du        
    280 ****        15.2500   3.5000   7.7500 Du        
    281 ****        15.2500   3.7500   6.7500 Du        
    282 ****        15.2500   3.7500   7.0000 Du        
    283 ****        15.2500   3.7500   7.2500 Du        
    284 ****        15.2500   3.7500   7.5000 Du        
    285 ****        15.2500   3.7500   7.7500 Du        
    286 ****        15.2500   4.0000   6.7500 Du        
    287 ****        15.2500   4.0000   7.0000 Du        
    288 ****        15.2500   4.0000   7.2500 Du        
    289 ****        15.2500   4.0000   7.5000 Du        
    290 ****        15.2500   4.0000   7.7500 Du        
    291 ****        15.2500   4.0000   8.0000 Du        
    292 ****        15.2500   4.2500   6.7500 Du        
    293 ****        15.2500   4.2500   7.0000 Du        
    294 ****        15.2500   4.2500   7.2500 Du        
    295 ****        15.2500   4.2500   7.5000 Du        
    296 ****        15.2500   4.2500   7.7500 Du        
    297 ****        15.2500   4.2500   8.0000 Du        
    298 ****        15.2500   4.5000   7.5000 Du        
    299 ****        15.2500   4.5000   7.7500 Du        
    300 ****        15.5000   3.2500   7.5000 Du        
    301 ****        15.5000   3.5000   7.0000 Du        
    302 ****        15.5000   3.5000   7.2500 Du        
    303 ****        15.5000   3.5000   7.5000 Du        
    304 ****        15.5000   3.5000   7.7500 Du        
    305 ****        15.5000   3.7500   7.0000 Du        
    306 ****        15.5000   3.7500   7.2500 Du        
    307 ****        15.5000   3.7500   7.5000 Du        
    308 ****        15.5000   3.7500   7.7500 Du        
    309 ****        15.5000   3.7500   8.0000 Du        
    310 ****        15.5000   4.0000   7.0000 Du        
    311 ****        15.5000   4.0000   7.2500 Du        
    312 ****        15.5000   4.0000   7.5000 Du        
    313 ****        15.5000   4.0000   7.7500 Du        
    314 ****        15.5000   4.0000   8.0000 Du        
    315 ****        15.5000   4.2500   7.5000 Du        
    316 ****        15.5000   4.2500   7.7500 Du        
    317 ****        15.5000   4.2500   8.0000 Du        
    318 ****        15.7500   3.2500   7.5000 Du        
    319 ****        15.7500   3.2500   7.7500 Du        
    320 ****        15.7500   3.5000   7.2500 Du        
    321 ****        15.7500   3.5000   7.5000 Du        
    322 ****        15.7500   3.5000   7.7500 Du        
    323 ****        15.7500   3.5000   8.0000 Du        
    324 ****        15.7500   3.7500   7.0000 Du        
    325 ****        15.7500   3.7500   7.2500 Du        
    326 ****        15.7500   3.7500   7.5000 Du        
    327 ****        15.7500   3.7500   7.7500 Du        
    328 ****        15.7500   3.7500   8.0000 Du        
    329 ****        15.7500   4.0000   7.2500 Du        
    330 ****        15.7500   4.0000   7.5000 Du        
    331 ****        15.7500   4.0000   7.7500 Du        
    332 ****        15.7500   4.0000   8.0000 Du        
    333 ****        15.7500   4.2500   7.5000 Du        
    334 ****        15.7500   4.2500   7.7500 Du        
    335 ****        15.7500   4.2500   8.0000 Du        
    336 ****        16.0000   3.2500   7.5000 Du        
    337 ****        16.0000   3.2500   7.7500 Du        
    338 ****        16.0000   3.2500   8.0000 Du        
    339 ****        16.0000   3.5000   7.2500 Du        
    340 ****        16.0000   3.5000   7.5000 Du        
    341 ****        16.0000   3.5000   7.7500 Du        
    342 ****        16.0000   3.5000   8.0000 Du        
    343 ****        16.0000   3.7500   7.2500 Du        
    344 ****        16.0000   3.7500   7.5000 Du        
    345 ****        16.0000   3.7500   7.7500 Du        
    346 ****        16.0000   3.7500   8.0000 Du        
    347 ****        16.0000   3.7500   8.2500 Du        
    348 ****        16.0000   4.0000   7.5000 Du        
    349 ****        16.0000   4.0000   7.7500 Du        
    350 ****        16.0000   4.0000   8.0000 Du        
    351 ****        16.0000   4.0000   8.2500 Du        
    352 ****        16.2500   3.2500   7.5000 Du        
    353 ****        16.2500   3.2500   7.7500 Du        
    354 ****        16.2500   3.2500   8.0000 Du        
    355 ****        16.2500   3.5000   7.5000 Du        
    356 ****        16.2500   3.5000   7.7500 Du        
    357 ****        16.2500   3.5000   8.0000 Du        
    358 ****        16.2500   3.5000   8.2500 Du        
    359 ****        16.2500   3.7500   7.5000 Du        
    360 ****        16.2500   3.7500   7.7500 Du        
    361 ****        16.2500   3.7500   8.0000 Du        
    362 ****        16.2500   3.7500   8.2500 Du        
    363 ****        16.2500   4.0000   7.5000 Du        
    364 ****        16.2500   4.0000   7.7500 Du        
    365 ****        16.2500   4.0000   8.0000 Du        
    366 ****        16.2500   4.0000   8.2500 Du        
    367 ****        16.5000   3.2500   7.7500 Du        
    368 ****        16.5000   3.2500   8.0000 Du        
    369 ****        16.5000   3.2500   8.2500 Du        
    370 ****        16.5000   3.5000   7.5000 Du        
    371 ****        16.5000   3.5000   7.7500 Du        
    372 ****        16.5000   3.5000   8.0000 Du        
    373 ****        16.5000   3.5000   8.2500 Du        
    374 ****        16.5000   3.5000   8.5000 Du        
    375 ****        16.5000   3.7500   7.5000 Du        
    376 ****        16.5000   3.7500   7.7500 Du        
    377 ****        16.5000   3.7500   8.0000 Du        
    378 ****        16.5000   3.7500   8.2500 Du        
