#       Name:                CT1002167954
#       Creating user name   hitesit
#       Creation time:       Sun Apr 16 02:21:18 2023


#       File generated by GOLD software.
#

@<TRIPOS>MOLECULE
CT1002167954|ligand_prepared|mol2|1|dock8
    29    30     1
SMALL
NO_CHARGES


@<TRIPOS>ATOM
      1 C1          12.4901   1.9934   5.9627 C.3            1 RES1               0.0000
      2 C2          13.5677   2.7220   6.7913 C.ar           1 RES1               0.0000
      3 C3          11.5093   1.3950   6.9668 C.2            1 RES1               0.0000
      4 C4          11.8762   3.0437   5.0436 C.2            1 RES1               0.0000
      5 C5          13.0464   0.8522   5.0796 C.3            1 RES1               0.0000
      6 C6          14.7182   2.0547   7.2008 C.ar           1 RES1               0.0000
      7 C7          13.4269   4.0597   7.1511 C.ar           1 RES1               0.0000
      8 N8          10.2902   1.9932   7.0926 N.am           1 RES1               0.0000
      9 O9          11.8155   0.4371   7.6660 O.2            1 RES1               0.0000
     10 N10         10.5610   3.3762   5.2369 N.am           1 RES1               0.0000
     11 O11         12.5241   3.5983   4.1644 O.2            1 RES1               0.0000
     12 C12         12.0461   0.3171   4.0672 C.3            1 RES1               0.0000
     13 C13         15.6941   2.7019   7.9405 C.ar           1 RES1               0.0000
     14 C14         14.4039   4.7050   7.8911 C.ar           1 RES1               0.0000
     15 C15          9.7487   2.9209   6.2395 C.2            1 RES1               0.0000
     16 C16         15.5378   4.0274   8.2857 C.ar           1 RES1               0.0000
     17 O17          8.5923   3.3081   6.3805 O.2            1 RES1               0.0000
     18 H18         13.9298   1.2197   4.5429 H              1 RES1               0.0000
     19 H19         13.3672   0.0280   5.7286 H              1 RES1               0.0000
     20 H20         14.8575   1.0107   6.9406 H              1 RES1               0.0000
     21 H21         12.5426   4.6124   6.8525 H              1 RES1               0.0000
     22 H22          9.7292   1.7260   7.8953 H              1 RES1               0.0000
     23 H23         10.1492   4.0230   4.5717 H              1 RES1               0.0000
     24 H24         12.4871  -0.4813   3.4741 H              1 RES1               0.0000
     25 H25         11.1653  -0.0797   4.5678 H              1 RES1               0.0000
     26 H26         11.7245   1.1050   3.3892 H              1 RES1               0.0000
     27 H27         16.5840   2.1638   8.2498 H              1 RES1               0.0000
     28 H28         14.2764   5.7481   8.1610 H              1 RES1               0.0000
     29 H29         16.3026   4.5343   8.8649 H              1 RES1               0.0000
@<TRIPOS>BOND
    1    1    2 1     
    2    1    3 1     
    3    1    4 1     
    4    1    5 1     
    5    2    6 ar    
    6    2    7 ar    
    7    3    8 1     
    8    3    9 2     
    9    4   10 1     
   10    4   11 2     
   11    5   12 1     
   12    5   18 1     
   13    5   19 1     
   14    6   13 ar    
   15    6   20 1     
   16    7   14 ar    
   17    7   21 1     
   18    8   15 1     
   19    8   22 1     
   20   10   15 1     
   21   10   23 1     
   22   12   24 1     
   23   12   25 1     
   24   12   26 1     
   25   13   16 ar    
   26   13   27 1     
   27   14   16 ar    
   28   14   28 1     
   29   15   17 2     
   30   16   29 1     
@<TRIPOS>SUBSTRUCTURE
      1 RES1           1
@<TRIPOS>SET
DONOR_HYDROGENS      STATIC     ATOMS    <user>   **** ""
2 22 23
ATOM$RED        STATIC     ATOMS    COLORGROUP SYSTEM
2 22 23
@<TRIPOS>COMMENT
> <Gold.Version>
2022.3.0

> <Gold.Id.Protein>
unknown|4d5m_clean|pdb

> <Gold.Protein.RotatedTorsions>
[  410  374  373  371 ] final   60.58 input   60.01 | X-H torsion
[   57   38   37   33 ] final -161.89 input   59.98 | X-H torsion
[  833  808  809  810 ] final -111.40 input  -84.33 | X-H torsion
[  854  754  753  752 ] final -116.51 input    0.00 | X-H torsion
[  859  811  810  809 ] final  -98.20 input    0.00 | X-H torsion

> <Gold.Protein.ActiveResidues>
 PCA1    TYR5    DTR6    ARG8    PRO9    GLY10   NH211  

> <Gold.Protein.RotatedAtoms>
   19.0482    7.8174   14.6806 H   0  0  0  0  0  0  0  0  0  0  0  0  # atno 57   bound_to 38  
   17.5928    1.9096   11.4797 H   0  0  0  0  0  0  0  0  0  0  0  0  # atno 410  bound_to 374 
   15.1542    2.2600   13.3046 H   0  0  0  0  0  0  0  0  0  0  0  0  # atno 833  bound_to 808 
   18.3001    0.7397   10.5971 LP  0  0  0  0  0  0  0  0  0  0  0  0  # atno 852  bound_to 374 
   18.7916    1.0209   12.1287 LP  0  0  0  0  0  0  0  0  0  0  0  0  # atno 853  bound_to 374 
   16.3856    4.1531   10.6821 LP  0  0  0  0  0  0  0  0  0  0  0  0  # atno 854  bound_to 754 
   15.3036    5.4382   11.1036 LP  0  0  0  0  0  0  0  0  0  0  0  0  # atno 855  bound_to 754 
   17.6812    8.3261   15.4028 LP  0  0  0  0  0  0  0  0  0  0  0  0  # atno 856  bound_to 38  
   18.7382    7.3864   16.2191 LP  0  0  0  0  0  0  0  0  0  0  0  0  # atno 857  bound_to 38  
   15.0603    3.8408   12.5541 LP  0  0  0  0  0  0  0  0  0  0  0  0  # atno 858  bound_to 808 
   18.3960    4.2294   15.9733 LP  0  0  0  0  0  0  0  0  0  0  0  0  # atno 859  bound_to 811 
   18.8832    5.2053   14.6278 LP  0  0  0  0  0  0  0  0  0  0  0  0  # atno 860  bound_to 811 

> <Gold.Score>
     Fitness  S(hb_ext) S(vdw_ext)  S(hb_int)    S(int)      intcor
     26.64       0.00      19.82       0.00      -0.62      -0.76

> <Gold.Goldscore.Fitness>
26.6361

> <Gold.Goldscore.Internal.Vdw>
-0.8195

> <Gold.Goldscore.Internal.Torsion>
-0.5632

> <Gold.Goldscore.External.Vdw>
19.8209

> <Gold.Goldscore.Internal.HBond>
0.0000

> <Gold.Goldscore.External.HBond>
0.0000

> <Gold.Goldscore.Internal.Correction>
-0.7650

> <Gold.Goldscore.Internal.Vdw.Weighted>
-0.8195

> <Gold.Goldscore.Internal.Torsion.Weighted>
-0.5632

> <Gold.Goldscore.External.Vdw.Weighted>
27.2538

> <Gold.Goldscore.Internal.HBond.Weighted>
0.0000

> <Gold.Goldscore.External.HBond.Weighted>
0.0000

> <Gold.Goldscore.Internal.Correction.Weighted>
-0.7650

> <Gold.Rescore>
     Score     S(PLP)   S(hbond)     S(cho)   S(metal)  DE(clash)   DE(tors)     intcor
     24.58     -26.74       0.00       0.00       0.00       0.00       1.08       ----

> <Gold.PLP.Fitness>
24.5846

> <Gold.PLP.PLP>
-26.7431

> <Gold.PLP.part.hbond>
0.0000

> <Gold.PLP.part.metal>
0.0000

> <Gold.PLP.part.buried>
-2.9687

> <Gold.PLP.part.nonpolar>
-23.3696

> <Gold.PLP.part.repulsive>
0.0385

> <Gold.PLP.ligand.clash>
0.0000

> <Gold.PLP.ligand.torsion>
1.0793

> <Gold.PLP.Chemscore.Hbond>
0.0000

> <Gold.PLP.Chemscore.CHOScore>
0.0000

> <Gold.PLP.Chemscore.Metal>
0.0000

> <Gold.PLP.Chemscore.Internal.Correction>
   9.000000E+99

