#       Name:                CT1002167954
#       Creating user name   hitesit
#       Creation time:       Sun Apr 16 02:21:19 2023


#       File generated by GOLD software.
#

@<TRIPOS>MOLECULE
CT1002167954|ligand_prepared|mol2|1|dock9
    29    30     1
SMALL
NO_CHARGES


@<TRIPOS>ATOM
      1 C1          16.7812   1.6940   7.0376 C.3            1 RES1               0.0000
      2 C2          15.7673   2.8438   7.2078 C.ar           1 RES1               0.0000
      3 C3          17.4718   1.9268   5.6971 C.2            1 RES1               0.0000
      4 C4          17.7157   1.7679   8.2400 C.2            1 RES1               0.0000
      5 C5          16.1354   0.2890   7.0200 C.3            1 RES1               0.0000
      6 C6          14.6129   2.8912   6.4321 C.ar           1 RES1               0.0000
      7 C7          15.9710   3.8609   8.1366 C.ar           1 RES1               0.0000
      8 N8          18.7567   2.3836   5.7191 N.am           1 RES1               0.0000
      9 O9          16.8849   1.7500   4.6367 O.2            1 RES1               0.0000
     10 N10         19.0309   2.0786   8.0130 N.am           1 RES1               0.0000
     11 O11         17.3216   1.5761   9.3838 O.2            1 RES1               0.0000
     12 C12         17.1278  -0.8446   7.2259 C.3            1 RES1               0.0000
     13 C13         13.6939   3.9166   6.5814 C.ar           1 RES1               0.0000
     14 C14         15.0508   4.8855   8.2842 C.ar           1 RES1               0.0000
     15 C15         19.5871   2.4199   6.8103 C.2            1 RES1               0.0000
     16 C16         13.9119   4.9141   7.5077 C.ar           1 RES1               0.0000
     17 O17         20.7666   2.7403   6.6947 O.2            1 RES1               0.0000
     18 H18         15.3748   0.2401   7.8090 H              1 RES1               0.0000
     19 H19         15.6295   0.1449   6.0573 H              1 RES1               0.0000
     20 H20         14.4255   2.1163   5.6962 H              1 RES1               0.0000
     21 H21         16.8604   3.8594   8.7576 H              1 RES1               0.0000
     22 H22         19.1350   2.7302   4.8433 H              1 RES1               0.0000
     23 H23         19.6529   2.0529   8.8147 H              1 RES1               0.0000
     24 H24         16.6227  -1.8080   7.2048 H              1 RES1               0.0000
     25 H25         17.8845  -0.8415   6.4442 H              1 RES1               0.0000
     26 H26         17.6313  -0.7468   8.1855 H              1 RES1               0.0000
     27 H27         12.7999   3.9352   5.9669 H              1 RES1               0.0000
     28 H28         15.2268   5.6688   9.0141 H              1 RES1               0.0000
     29 H29         13.1916   5.7170   7.6248 H              1 RES1               0.0000
@<TRIPOS>BOND
    1    1    2 1     
    2    1    3 1     
    3    1    4 1     
    4    1    5 1     
    5    2    6 ar    
    6    2    7 ar    
    7    3    8 1     
    8    3    9 2     
    9    4   10 1     
   10    4   11 2     
   11    5   12 1     
   12    5   18 1     
   13    5   19 1     
   14    6   13 ar    
   15    6   20 1     
   16    7   14 ar    
   17    7   21 1     
   18    8   15 1     
   19    8   22 1     
   20   10   15 1     
   21   10   23 1     
   22   12   24 1     
   23   12   25 1     
   24   12   26 1     
   25   13   16 ar    
   26   13   27 1     
   27   14   16 ar    
   28   14   28 1     
   29   15   17 2     
   30   16   29 1     
@<TRIPOS>SUBSTRUCTURE
      1 RES1           1
@<TRIPOS>SET
DONOR_HYDROGENS      STATIC     ATOMS    <user>   **** ""
2 22 23
ATOM$RED        STATIC     ATOMS    COLORGROUP SYSTEM
2 22 23
@<TRIPOS>COMMENT
> <Gold.Version>
2022.3.0

> <Gold.Id.Protein>
unknown|4d5m_clean|pdb

> <Gold.Protein.RotatedTorsions>
[  410  374  373  371 ] final  -14.99 input   60.01 | X-H torsion
[   57   38   37   33 ] final   -4.13 input   59.98 | X-H torsion
[  833  808  809  810 ] final -178.60 input  -84.33 | X-H torsion
[  854  754  753  752 ] final  179.83 input    0.00 | X-H torsion
[  859  811  810  809 ] final -139.13 input    0.00 | X-H torsion

> <Gold.Protein.ActiveResidues>
 PCA1    TYR5    DTR6    ARG8    PRO9    GLY10   NH211  

> <Gold.Protein.RotatedAtoms>
   18.2053    7.6662   16.3070 H   0  0  0  0  0  0  0  0  0  0  0  0  # atno 57   bound_to 38  
   17.7948    1.2384   10.5713 H   0  0  0  0  0  0  0  0  0  0  0  0  # atno 410  bound_to 374 
   15.4096    2.4360   12.3660 H   0  0  0  0  0  0  0  0  0  0  0  0  # atno 833  bound_to 808 
   18.9172    0.6038   11.5642 LP  0  0  0  0  0  0  0  0  0  0  0  0  # atno 852  bound_to 374 
   17.9712    1.8325   12.0761 LP  0  0  0  0  0  0  0  0  0  0  0  0  # atno 853  bound_to 374 
   16.5619    4.7243   11.3728 LP  0  0  0  0  0  0  0  0  0  0  0  0  # atno 854  bound_to 754 
   15.1273    4.8669   10.4129 LP  0  0  0  0  0  0  0  0  0  0  0  0  # atno 855  bound_to 754 
   19.3068    7.4884   15.1221 LP  0  0  0  0  0  0  0  0  0  0  0  0  # atno 856  bound_to 38  
   17.9610    8.3763   14.8630 LP  0  0  0  0  0  0  0  0  0  0  0  0  # atno 857  bound_to 38  
   14.8146    3.6715   13.4570 LP  0  0  0  0  0  0  0  0  0  0  0  0  # atno 858  bound_to 808 
   18.2624    4.8113   16.0745 LP  0  0  0  0  0  0  0  0  0  0  0  0  # atno 859  bound_to 811 
   19.0168    4.6234   14.5267 LP  0  0  0  0  0  0  0  0  0  0  0  0  # atno 860  bound_to 811 

> <Gold.Score>
     Fitness  S(hb_ext) S(vdw_ext)  S(hb_int)    S(int)      intcor
     18.58       1.67      13.79       0.00      -2.06      -0.76

> <Gold.Goldscore.Fitness>
18.5790

> <Gold.Goldscore.Internal.Vdw>
-2.0957

> <Gold.Goldscore.Internal.Torsion>
-0.7250

> <Gold.Goldscore.External.Vdw>
13.7900

> <Gold.Goldscore.Internal.HBond>
0.0000

> <Gold.Goldscore.External.HBond>
1.6737

> <Gold.Goldscore.Internal.Correction>
-0.7650

> <Gold.Goldscore.Hbonds>
donor molecule, donor type, donor heavy atom, donor atom, acceptor molecule, acceptor atom, score
      P1  H   374   410       L1    11  0.84

> <Gold.Goldscore.Internal.Vdw.Weighted>
-2.0957

> <Gold.Goldscore.Internal.Torsion.Weighted>
-0.7250

> <Gold.Goldscore.External.Vdw.Weighted>
18.9612

> <Gold.Goldscore.Internal.HBond.Weighted>
0.0000

> <Gold.Goldscore.External.HBond.Weighted>
1.6737

> <Gold.Goldscore.Internal.Correction.Weighted>
-0.7650

> <Gold.Rescore>
     Score     S(PLP)   S(hbond)     S(cho)   S(metal)  DE(clash)   DE(tors)     intcor
     25.83     -24.77       1.00       0.00       0.00       0.80       0.57       ----

> <Gold.PLP.Fitness>
25.8325

> <Gold.PLP.PLP>
-24.7681

> <Gold.PLP.part.hbond>
-1.0000

> <Gold.PLP.part.metal>
0.0000

> <Gold.PLP.part.buried>
-2.0188

> <Gold.PLP.part.nonpolar>
-22.1662

> <Gold.PLP.part.repulsive>
0.0981

> <Gold.PLP.ligand.clash>
0.7952

> <Gold.PLP.ligand.torsion>
0.5702

> <Gold.PLP.Chemscore.Hbond>
1.0000

> <Gold.PLP.Chemscore.CHOScore>
0.0000

> <Gold.PLP.Chemscore.Metal>
0.0000

> <Gold.Chemscore.Hbonds>
donor molecule, donor type, donor heavy atom, donor atom, acceptor molecule, acceptor atom, score
      P1  H   374   410       L1    11  0.31

> <Gold.PLP.Chemscore.Internal.Correction>
   9.000000E+99

