#       Name:                CT1002167954
#       Creating user name   hitesit
#       Creation time:       Sun Apr 16 02:21:17 2023


#       File generated by GOLD software.
#

@<TRIPOS>MOLECULE
CT1002167954|ligand_prepared|mol2|1|dock7
    29    30     1
SMALL
NO_CHARGES


@<TRIPOS>ATOM
      1 C1          18.0082   3.8729   8.0850 C.3            1 RES1               0.0000
      2 C2          16.7624   4.3496   7.3107 C.ar           1 RES1               0.0000
      3 C3          18.4281   2.5511   7.4489 C.2            1 RES1               0.0000
      4 C4          19.0439   4.9839   7.9523 C.2            1 RES1               0.0000
      5 C5          17.7540   3.6342   9.5916 C.3            1 RES1               0.0000
      6 C6          15.5052   4.3255   7.9071 C.ar           1 RES1               0.0000
      7 C7          16.8547   4.8178   6.0027 C.ar           1 RES1               0.0000
      8 N8          19.5407   2.5547   6.6603 N.am           1 RES1               0.0000
      9 O9          17.7706   1.5295   7.6050 O.2            1 RES1               0.0000
     10 N10         20.1901   4.7129   7.2519 N.am           1 RES1               0.0000
     11 O11         18.8704   6.0967   8.4338 O.2            1 RES1               0.0000
     12 C12         19.0146   3.3294  10.3854 C.3            1 RES1               0.0000
     13 C13         14.3814   4.7566   7.2219 C.ar           1 RES1               0.0000
     14 C14         15.7295   5.2482   5.3191 C.ar           1 RES1               0.0000
     15 C15         20.4718   3.5584   6.5738 C.2            1 RES1               0.0000
     16 C16         14.4928   5.2186   5.9277 C.ar           1 RES1               0.0000
     17 O17         21.5007   3.4095   5.9208 O.2            1 RES1               0.0000
     18 H18         17.2772   4.5268  10.0151 H              1 RES1               0.0000
     19 H19         17.0552   2.7960   9.7033 H              1 RES1               0.0000
     20 H20         15.3977   3.9630   8.9240 H              1 RES1               0.0000
     21 H21         17.8172   4.8491   5.5035 H              1 RES1               0.0000
     22 H22         19.6947   1.7353   6.0812 H              1 RES1               0.0000
     23 H23         20.8991   5.4391   7.2345 H              1 RES1               0.0000
     24 H24         18.7800   3.1704  11.4358 H              1 RES1               0.0000
     25 H25         19.5012   2.4328  10.0073 H              1 RES1               0.0000
     26 H26         19.7220   4.1534  10.3171 H              1 RES1               0.0000
     27 H27         13.4102   4.7300   7.7049 H              1 RES1               0.0000
     28 H28         15.8218   5.6104   4.3005 H              1 RES1               0.0000
     29 H29         13.6124   5.5566   5.3913 H              1 RES1               0.0000
@<TRIPOS>BOND
    1    1    2 1     
    2    1    3 1     
    3    1    4 1     
    4    1    5 1     
    5    2    6 ar    
    6    2    7 ar    
    7    3    8 1     
    8    3    9 2     
    9    4   10 1     
   10    4   11 2     
   11    5   12 1     
   12    5   18 1     
   13    5   19 1     
   14    6   13 ar    
   15    6   20 1     
   16    7   14 ar    
   17    7   21 1     
   18    8   15 1     
   19    8   22 1     
   20   10   15 1     
   21   10   23 1     
   22   12   24 1     
   23   12   25 1     
   24   12   26 1     
   25   13   16 ar    
   26   13   27 1     
   27   14   16 ar    
   28   14   28 1     
   29   15   17 2     
   30   16   29 1     
@<TRIPOS>SUBSTRUCTURE
      1 RES1           1
@<TRIPOS>SET
DONOR_HYDROGENS      STATIC     ATOMS    <user>   **** ""
2 22 23
ATOM$RED        STATIC     ATOMS    COLORGROUP SYSTEM
2 22 23
@<TRIPOS>COMMENT
> <Gold.Version>
2022.3.0

> <Gold.Id.Protein>
unknown|4d5m_clean|pdb

> <Gold.Protein.RotatedTorsions>
[  410  374  373  371 ] final  -28.78 input   60.01 | X-H torsion
[   57   38   37   33 ] final   46.07 input   59.98 | X-H torsion
[  833  808  809  810 ] final -178.10 input  -84.33 | X-H torsion
[  854  754  753  752 ] final    7.31 input    0.00 | X-H torsion
[  859  811  810  809 ] final   86.87 input    0.00 | X-H torsion

> <Gold.Protein.ActiveResidues>
 PCA1    TYR5    DTR6    ARG8    PRO9    GLY10   NH211  

> <Gold.Protein.RotatedAtoms>
   17.7152    8.1217   15.8784 H   0  0  0  0  0  0  0  0  0  0  0  0  # atno 57   bound_to 38  
   17.9365    1.0700   10.5253 H   0  0  0  0  0  0  0  0  0  0  0  0  # atno 410  bound_to 374 
   15.4089    2.4306   12.3718 H   0  0  0  0  0  0  0  0  0  0  0  0  # atno 833  bound_to 808 
   18.9217    0.7031   11.7675 LP  0  0  0  0  0  0  0  0  0  0  0  0  # atno 852  bound_to 374 
   17.8240    1.9026   11.9190 LP  0  0  0  0  0  0  0  0  0  0  0  0  # atno 853  bound_to 374 
   15.1010    4.9550   10.4784 LP  0  0  0  0  0  0  0  0  0  0  0  0  # atno 854  bound_to 754 
   16.5882    4.6362   11.3072 LP  0  0  0  0  0  0  0  0  0  0  0  0  # atno 855  bound_to 754 
   19.1197    7.2993   15.8763 LP  0  0  0  0  0  0  0  0  0  0  0  0  # atno 856  bound_to 38  
   18.6412    8.1069   14.5401 LP  0  0  0  0  0  0  0  0  0  0  0  0  # atno 857  bound_to 38  
   14.8153    3.6767   13.4515 LP  0  0  0  0  0  0  0  0  0  0  0  0  # atno 858  bound_to 808 
   18.8562    5.2658   14.6663 LP  0  0  0  0  0  0  0  0  0  0  0  0  # atno 859  bound_to 811 
   18.4230    4.1690   15.9349 LP  0  0  0  0  0  0  0  0  0  0  0  0  # atno 860  bound_to 811 

> <Gold.Score>
     Fitness  S(hb_ext) S(vdw_ext)  S(hb_int)    S(int)      intcor
     27.35       6.20      15.87       0.00      -0.68      -0.76

> <Gold.Goldscore.Fitness>
27.3450

> <Gold.Goldscore.Internal.Vdw>
-0.9996

> <Gold.Goldscore.Internal.Torsion>
-0.4430

> <Gold.Goldscore.External.Vdw>
15.8732

> <Gold.Goldscore.Internal.HBond>
0.0000

> <Gold.Goldscore.External.HBond>
6.1970

> <Gold.Goldscore.Internal.Correction>
-0.7650

> <Gold.Goldscore.Hbonds>
donor molecule, donor type, donor heavy atom, donor atom, acceptor molecule, acceptor atom, score
      P1  H   374   410       L1     9  0.16
      P1  H   670   709       L1    11  0.95
      P1  H   671   699       L1    11  0.03

> <Gold.Goldscore.Internal.Vdw.Weighted>
-0.9996

> <Gold.Goldscore.Internal.Torsion.Weighted>
-0.4430

> <Gold.Goldscore.External.Vdw.Weighted>
21.8256

> <Gold.Goldscore.Internal.HBond.Weighted>
0.0000

> <Gold.Goldscore.External.HBond.Weighted>
6.1970

> <Gold.Goldscore.Internal.Correction.Weighted>
-0.7650

> <Gold.Rescore>
     Score     S(PLP)   S(hbond)     S(cho)   S(metal)  DE(clash)   DE(tors)     intcor
     24.81     -19.28       1.90       0.00       0.00       0.00       0.09       ----

> <Gold.PLP.Fitness>
24.8106

> <Gold.PLP.PLP>
-19.2833

> <Gold.PLP.part.hbond>
-2.0000

> <Gold.PLP.part.metal>
0.0000

> <Gold.PLP.part.buried>
-2.5875

> <Gold.PLP.part.nonpolar>
-15.0944

> <Gold.PLP.part.repulsive>
0.0153

> <Gold.PLP.ligand.clash>
0.0000

> <Gold.PLP.ligand.torsion>
0.0923

> <Gold.PLP.Chemscore.Hbond>
1.9040

> <Gold.PLP.Chemscore.CHOScore>
0.0000

> <Gold.PLP.Chemscore.Metal>
0.0000

> <Gold.Chemscore.Hbonds>
donor molecule, donor type, donor heavy atom, donor atom, acceptor molecule, acceptor atom, score
      P1  H   670   709       L1    11  0.96

> <Gold.PLP.Chemscore.Internal.Correction>
   9.000000E+99

