#       Name:                CT1002167954
#       Creating user name   hitesit
#       Creation time:       Sun Apr 16 02:21:26 2023


#       File generated by GOLD software.
#

@<TRIPOS>MOLECULE
CT1002167954|ligand_prepared|mol2|1|dock10
    29    30     1
SMALL
NO_CHARGES


@<TRIPOS>ATOM
      1 C1          -5.8439  -9.6909  -5.3341 C.3            1 RES1               0.0000
      2 C2          -5.0201 -10.0972  -4.0952 C.ar           1 RES1               0.0000
      3 C3          -5.0343 -10.1313  -6.5502 C.2            1 RES1               0.0000
      4 C4          -7.1921 -10.3898  -5.1979 C.2            1 RES1               0.0000
      5 C5          -6.1029  -8.1700  -5.4410 C.3            1 RES1               0.0000
      6 C6          -3.8722 -10.8724  -4.2305 C.ar           1 RES1               0.0000
      7 C7          -5.3931  -9.7028  -2.8130 C.ar           1 RES1               0.0000
      8 N8          -5.4737 -11.2224  -7.2404 N.am           1 RES1               0.0000
      9 O9          -4.0042  -9.5539  -6.8753 O.2            1 RES1               0.0000
     10 N10         -7.5125 -11.3520  -6.1195 N.am           1 RES1               0.0000
     11 O11         -7.9727 -10.1278  -4.2911 O.2            1 RES1               0.0000
     12 C12         -6.6067  -7.7283  -6.8060 C.3            1 RES1               0.0000
     13 C13         -3.1228 -11.2377  -3.1245 C.ar           1 RES1               0.0000
     14 C14         -4.6424 -10.0695  -1.7083 C.ar           1 RES1               0.0000
     15 C15         -6.7014 -11.8216  -7.1165 C.2            1 RES1               0.0000
     16 C16         -3.5070 -10.8362  -1.8629 C.ar           1 RES1               0.0000
     17 O17         -7.0400 -12.7278  -7.8723 O.2            1 RES1               0.0000
     18 H18         -6.8415  -7.8834  -4.6822 H              1 RES1               0.0000
     19 H19         -5.1703  -7.6366  -5.2193 H              1 RES1               0.0000
     20 H20         -3.5557 -11.1998  -5.2152 H              1 RES1               0.0000
     21 H21         -6.2832  -9.1002  -2.6674 H              1 RES1               0.0000
     22 H22         -4.8299 -11.6306  -7.9106 H              1 RES1               0.0000
     23 H23         -8.4418 -11.7555  -6.0566 H              1 RES1               0.0000
     24 H24         -6.7722  -6.6531  -6.8266 H              1 RES1               0.0000
     25 H25         -5.8851  -7.9751  -7.5819 H              1 RES1               0.0000
     26 H26         -7.5464  -8.2205  -7.0480 H              1 RES1               0.0000
     27 H27         -2.2309 -11.8424  -3.2514 H              1 RES1               0.0000
     28 H28         -4.9488  -9.7518  -0.7172 H              1 RES1               0.0000
     29 H29         -2.9196 -11.1222  -0.9967 H              1 RES1               0.0000
@<TRIPOS>BOND
    1    1    2 1     
    2    1    3 1     
    3    1    4 1     
    4    1    5 1     
    5    2    6 ar    
    6    2    7 ar    
    7    3    8 1     
    8    3    9 2     
    9    4   10 1     
   10    4   11 2     
   11    5   12 1     
   12    5   18 1     
   13    5   19 1     
   14    6   13 ar    
   15    6   20 1     
   16    7   14 ar    
   17    7   21 1     
   18    8   15 1     
   19    8   22 1     
   20   10   15 1     
   21   10   23 1     
   22   12   24 1     
   23   12   25 1     
   24   12   26 1     
   25   13   16 ar    
   26   13   27 1     
   27   14   16 ar    
   28   14   28 1     
   29   15   17 2     
   30   16   29 1     
@<TRIPOS>SUBSTRUCTURE
      1 RES1           1
@<TRIPOS>SET
DONOR_HYDROGENS      STATIC     ATOMS    <user>   **** ""
2 22 23
ATOM$RED        STATIC     ATOMS    COLORGROUP SYSTEM
2 22 23
@<TRIPOS>COMMENT
> <Gold.Version>
2022.3.0

> <Gold.Id.Protein>
unknown|3iw5_clean|pdb

> <Gold.Protein.RotatedTorsions>
[ 3945 3936 3935 3933 ] final -175.73 input   60.03 | X-H torsion
[ 4496 4491 4490 4487 ] final  123.36 input   59.97 | X-H torsion
[ 3078 3071 3069 3066 ] final    9.62 input   59.98 | X-H torsion
[ 3839 3834 3833 3830 ] final  -71.00 input   60.02 | X-H torsion
[ 3033 3024 3023 3021 ] final   97.72 input   60.00 | X-H torsion

> <Gold.Protein.ActiveResidues>
 ALA190  PRO191  GLU192  ILE193  MET194  LEU195  ASN196  TRP197  MET198  HIS199 
 TYR200  ASN201  GLN202  THR203  VAL204  TRP207  LEU232  LYS233  ILE235  LEU236 
 VAL239  GLY240  THR241  PRO242  GLY243  GLU245  LEU246  LEU247  LYS248  LYS249 
 ILE250  SER251  ALA255  TYR258  ILE259  LEU262  VAL290  LEU291  ASP292  SER293 
 ASP294  LYS295  ARG296 

> <Gold.Protein.RotatedAtoms>
    3.3682   -6.9556   -3.0634 H   0  0  0  0  0  0  0  0  0  0  0  0  # atno 3033 bound_to 3024
   -1.9827  -10.5532  -12.8527 H   0  0  0  0  0  0  0  0  0  0  0  0  # atno 3078 bound_to 3071
   -4.4134  -12.1817    2.3790 H   0  0  0  0  0  0  0  0  0  0  0  0  # atno 3839 bound_to 3834
   -9.5392    3.9988    0.8390 H   0  0  0  0  0  0  0  0  0  0  0  0  # atno 3945 bound_to 3936
   -3.4637  -11.7291   -9.5582 H   0  0  0  0  0  0  0  0  0  0  0  0  # atno 4496 bound_to 4491
   -8.9744    4.7884    2.1447 LP  0  0  0  0  0  0  0  0  0  0  0  0  # atno 5448 bound_to 3936
  -10.5822    4.6980    1.8737 LP  0  0  0  0  0  0  0  0  0  0  0  0  # atno 5449 bound_to 3936
   -5.0825  -11.6719   -9.4026 LP  0  0  0  0  0  0  0  0  0  0  0  0  # atno 5470 bound_to 4491
   -4.1437  -10.6067   -8.5961 LP  0  0  0  0  0  0  0  0  0  0  0  0  # atno 5471 bound_to 4491
   -2.8638  -11.8717  -13.2188 LP  0  0  0  0  0  0  0  0  0  0  0  0  # atno 5486 bound_to 3071
   -3.5065  -10.3812  -13.3976 LP  0  0  0  0  0  0  0  0  0  0  0  0  # atno 5487 bound_to 3071
   -3.6232  -13.1364    3.4337 LP  0  0  0  0  0  0  0  0  0  0  0  0  # atno 5499 bound_to 3834
   -4.4357  -11.8239    3.9664 LP  0  0  0  0  0  0  0  0  0  0  0  0  # atno 5500 bound_to 3834
    2.7071   -5.9446   -4.1531 LP  0  0  0  0  0  0  0  0  0  0  0  0  # atno 5505 bound_to 3024
    4.3161   -6.2230   -4.1640 LP  0  0  0  0  0  0  0  0  0  0  0  0  # atno 5506 bound_to 3024

> <Gold.Score>
     Fitness  S(hb_ext) S(vdw_ext)  S(hb_int)    S(int)      intcor
     36.15       1.64      27.33       0.00      -3.07      -0.76

> <Gold.Goldscore.Fitness>
36.1475

> <Gold.Goldscore.Internal.Vdw>
-3.1518

> <Gold.Goldscore.Internal.Torsion>
-0.6813

> <Gold.Goldscore.External.Vdw>
27.3284

> <Gold.Goldscore.Internal.HBond>
0.0000

> <Gold.Goldscore.External.HBond>
1.6389

> <Gold.Goldscore.Internal.Correction>
-0.7650

> <Gold.Goldscore.Hbonds>
donor molecule, donor type, donor heavy atom, donor atom, acceptor molecule, acceptor atom, score
      P1  H  4497  4505       L1    17  0.18
      P1  H  3796  3808       L1    17  0.16
      L1  H     8    22       P1  4491  0.16

> <Gold.Goldscore.Internal.Vdw.Weighted>
-3.1518

> <Gold.Goldscore.Internal.Torsion.Weighted>
-0.6813

> <Gold.Goldscore.External.Vdw.Weighted>
37.5766

> <Gold.Goldscore.Internal.HBond.Weighted>
0.0000

> <Gold.Goldscore.External.HBond.Weighted>
1.6389

> <Gold.Goldscore.Internal.Correction.Weighted>
-0.7650

> <Gold.Rescore>
     Score     S(PLP)   S(hbond)     S(cho)   S(metal)  DE(clash)   DE(tors)     intcor
     22.58     -19.55       1.91       0.00       0.00       1.76       0.46       ----

> <Gold.PLP.Fitness>
22.5823

> <Gold.PLP.PLP>
-19.5523

> <Gold.PLP.part.hbond>
-4.0000

> <Gold.PLP.part.metal>
0.0000

> <Gold.PLP.part.buried>
5.8720

> <Gold.PLP.part.nonpolar>
-30.1879

> <Gold.PLP.part.repulsive>
6.3894

> <Gold.PLP.ligand.clash>
1.7623

> <Gold.PLP.ligand.torsion>
0.4623

> <Gold.PLP.Chemscore.Hbond>
1.9056

> <Gold.PLP.Chemscore.CHOScore>
0.0000

> <Gold.PLP.Chemscore.Metal>
0.0000

> <Gold.Chemscore.Hbonds>
donor molecule, donor type, donor heavy atom, donor atom, acceptor molecule, acceptor atom, score
      L1  H     8    22       P1  4491  0.67
      P1  H  3796  3808       L1    17  0.36

> <Gold.PLP.Chemscore.Internal.Correction>
   9.000000E+99

