#       Name:                CT1002167954
#       Creating user name   hitesit
#       Creation time:       Sun Apr 16 02:23:49 2023


#       File generated by GOLD software.
#

@<TRIPOS>MOLECULE
CT1002167954|ligand_prepared|mol2|1|dock1
    29    30     1
SMALL
NO_CHARGES


@<TRIPOS>ATOM
      1 C1         128.8243 266.2583 370.5535 C.3            1 RES1               0.0000
      2 C2         129.5556 267.1365 371.5892 C.ar           1 RES1               0.0000
      3 C3         127.3504 266.6461 370.6273 C.2            1 RES1               0.0000
      4 C4         129.4782 266.5517 369.2078 C.2            1 RES1               0.0000
      5 C5         128.9470 264.7405 370.8234 C.3            1 RES1               0.0000
      6 C6         129.8451 266.6436 372.8580 C.ar           1 RES1               0.0000
      7 C7         129.9486 268.4384 371.2902 C.ar           1 RES1               0.0000
      8 N8         126.8417 267.3931 369.6060 N.am           1 RES1               0.0000
      9 O9         126.6550 266.3348 371.5864 O.2            1 RES1               0.0000
     10 N10        128.7191 267.1638 368.2449 N.am           1 RES1               0.0000
     11 O11        130.6487 266.2735 368.9782 O.2            1 RES1               0.0000
     12 C12        128.4925 263.8723 369.6608 C.3            1 RES1               0.0000
     13 C13        130.5062 267.4226 373.7930 C.ar           1 RES1               0.0000
     14 C14        130.6094 269.2159 372.2268 C.ar           1 RES1               0.0000
     15 C15        127.4397 267.6255 368.3935 C.2            1 RES1               0.0000
     16 C16        130.8892 268.7090 373.4780 C.ar           1 RES1               0.0000
     17 O17        126.8415 268.2150 367.4980 O.2            1 RES1               0.0000
     18 H18        129.9941 264.5059 371.0512 H              1 RES1               0.0000
     19 H19        128.3473 264.4894 371.7070 H              1 RES1               0.0000
     20 H20        129.5494 265.6344 373.1249 H              1 RES1               0.0000
     21 H21        129.7380 268.8584 370.3125 H              1 RES1               0.0000
     22 H22        125.9326 267.8184 369.7578 H              1 RES1               0.0000
     23 H23        129.1475 267.2864 367.3329 H              1 RES1               0.0000
     24 H24        128.5994 262.8170 369.9026 H              1 RES1               0.0000
     25 H25        127.4477 264.0614 369.4234 H              1 RES1               0.0000
     26 H26        129.0848 264.0778 368.7714 H              1 RES1               0.0000
     27 H27        130.7228 267.0195 374.7768 H              1 RES1               0.0000
     28 H28        130.9084 270.2279 371.9747 H              1 RES1               0.0000
     29 H29        131.4074 269.3190 374.2105 H              1 RES1               0.0000
@<TRIPOS>BOND
    1    1    2 1     
    2    1    3 1     
    3    1    4 1     
    4    1    5 1     
    5    2    6 ar    
    6    2    7 ar    
    7    3    8 1     
    8    3    9 2     
    9    4   10 1     
   10    4   11 2     
   11    5   12 1     
   12    5   18 1     
   13    5   19 1     
   14    6   13 ar    
   15    6   20 1     
   16    7   14 ar    
   17    7   21 1     
   18    8   15 1     
   19    8   22 1     
   20   10   15 1     
   21   10   23 1     
   22   12   24 1     
   23   12   25 1     
   24   12   26 1     
   25   13   16 ar    
   26   13   27 1     
   27   14   16 ar    
   28   14   28 1     
   29   15   17 2     
   30   16   29 1     
@<TRIPOS>SUBSTRUCTURE
      1 RES1           1
@<TRIPOS>SET
DONOR_HYDROGENS      STATIC     ATOMS    <user>   **** ""
2 22 23
ATOM$RED        STATIC     ATOMS    COLORGROUP SYSTEM
2 22 23
@<TRIPOS>COMMENT
> <Gold.Version>
2022.3.0

> <Gold.Id.Protein>
unknown|5uo4_clean|pdb

> <Gold.Protein.RotatedTorsions>
[ 13162 13141 13139 13136 ] final -144.98 input   60.01 | X-H torsion

> <Gold.Protein.ActiveResidues>
 GLU351  PRO715  TRP716  ASN717  THR718  HIS719  VAL720  TRP721 

> <Gold.Protein.RotatedAtoms>
  129.5658  264.2452  366.2909 H   0  0  0  0  0  0  0  0  0  0  0  0  # atno 13162 bound_to 13141
  129.9903  264.7885  367.7649 LP  0  0  0  0  0  0  0  0  0  0  0  0  # atno 13530 bound_to 13141
  131.0017  263.8184  366.9267 LP  0  0  0  0  0  0  0  0  0  0  0  0  # atno 13531 bound_to 13141

> <Gold.Score>
     Fitness  S(hb_ext) S(vdw_ext)  S(hb_int)    S(int)      intcor
     38.92       0.00      28.66       0.00      -0.48      -0.82

> <Gold.Goldscore.Fitness>
38.9214

> <Gold.Goldscore.Internal.Vdw>
-0.6989

> <Gold.Goldscore.Internal.Torsion>
-0.6029

> <Gold.Goldscore.External.Vdw>
28.6569

> <Gold.Goldscore.Internal.HBond>
0.0000

> <Gold.Goldscore.External.HBond>
0.0000

> <Gold.Goldscore.Internal.Correction>
-0.8199

> <Gold.Goldscore.Internal.Vdw.Weighted>
-0.6989

> <Gold.Goldscore.Internal.Torsion.Weighted>
-0.6029

> <Gold.Goldscore.External.Vdw.Weighted>
39.4032

> <Gold.Goldscore.Internal.HBond.Weighted>
0.0000

> <Gold.Goldscore.External.HBond.Weighted>
0.0000

> <Gold.Goldscore.Internal.Correction.Weighted>
-0.8199

> <Gold.Rescore>
     Score     S(PLP)   S(hbond)     S(cho)   S(metal)  DE(clash)   DE(tors)     intcor
     16.77     -17.83       0.08       0.00       0.00       0.00       0.66       ----

> <Gold.PLP.Fitness>
16.7669

> <Gold.PLP.PLP>
-17.8338

> <Gold.PLP.part.hbond>
-3.6736

> <Gold.PLP.part.metal>
0.0000

> <Gold.PLP.part.buried>
19.2117

> <Gold.PLP.part.nonpolar>
-40.2989

> <Gold.PLP.part.repulsive>
8.2156

> <Gold.PLP.ligand.clash>
0.0000

> <Gold.PLP.ligand.torsion>
0.6602

> <Gold.PLP.Chemscore.Hbond>
0.0845

> <Gold.PLP.Chemscore.CHOScore>
0.0000

> <Gold.PLP.Chemscore.Metal>
0.0000

> <Gold.PLP.Chemscore.Internal.Correction>
   9.000000E+99

