#       Name:                CT1002167954
#       Creating user name   hitesit
#       Creation time:       Sun Apr 16 02:23:49 2023


#       File generated by GOLD software.
#

@<TRIPOS>MOLECULE
CT1002167954|ligand_prepared|mol2|1|dock2
    29    30     1
SMALL
NO_CHARGES


@<TRIPOS>ATOM
      1 C1         128.8577 266.3162 370.1767 C.3            1 RES1               0.0000
      2 C2         129.5554 267.0146 371.3618 C.ar           1 RES1               0.0000
      3 C3         129.9466 265.5540 369.4273 C.2            1 RES1               0.0000
      4 C4         127.7787 265.4252 370.7819 C.2            1 RES1               0.0000
      5 C5         128.1741 267.2921 369.1910 C.3            1 RES1               0.0000
      6 C6         129.8283 266.3168 372.5346 C.ar           1 RES1               0.0000
      7 C7         129.9338 268.3529 371.2963 C.ar           1 RES1               0.0000
      8 N8         129.9725 264.1968 369.5589 N.am           1 RES1               0.0000
      9 O9         130.7936 266.1381 368.7628 O.2            1 RES1               0.0000
     10 N10        127.9148 264.0685 370.6449 N.am           1 RES1               0.0000
     11 O11        126.8204 265.8850 371.3906 O.2            1 RES1               0.0000
     12 C12        127.1582 266.6273 368.2755 C.3            1 RES1               0.0000
     13 C13        130.4593 266.9337 373.6021 C.ar           1 RES1               0.0000
     14 C14        130.5645 268.9680 372.3651 C.ar           1 RES1               0.0000
     15 C15        128.9786 263.4129 370.0875 C.2            1 RES1               0.0000
     16 C16        130.8282 268.2594 373.5180 C.ar           1 RES1               0.0000
     17 O17        129.0542 262.1881 370.0498 O.2            1 RES1               0.0000
     18 H18        127.6699 268.0789 369.7656 H              1 RES1               0.0000
     19 H19        128.9457 267.7694 368.5744 H              1 RES1               0.0000
     20 H20        129.5432 265.2735 372.6201 H              1 RES1               0.0000
     21 H21        129.7355 268.9303 370.3996 H              1 RES1               0.0000
     22 H22        130.8082 263.7207 369.2344 H              1 RES1               0.0000
     23 H23        127.1525 263.4942 370.9902 H              1 RES1               0.0000
     24 H24        126.7085 267.3562 367.6045 H              1 RES1               0.0000
     25 H25        127.6306 265.8561 367.6706 H              1 RES1               0.0000
     26 H26        126.3623 266.1637 368.8548 H              1 RES1               0.0000
     27 H27        130.6633 266.3720 374.5077 H              1 RES1               0.0000
     28 H28        130.8525 270.0117 372.2947 H              1 RES1               0.0000
     29 H29        131.3228 268.7423 374.3542 H              1 RES1               0.0000
@<TRIPOS>BOND
    1    1    2 1     
    2    1    3 1     
    3    1    4 1     
    4    1    5 1     
    5    2    6 ar    
    6    2    7 ar    
    7    3    8 1     
    8    3    9 2     
    9    4   10 1     
   10    4   11 2     
   11    5   12 1     
   12    5   18 1     
   13    5   19 1     
   14    6   13 ar    
   15    6   20 1     
   16    7   14 ar    
   17    7   21 1     
   18    8   15 1     
   19    8   22 1     
   20   10   15 1     
   21   10   23 1     
   22   12   24 1     
   23   12   25 1     
   24   12   26 1     
   25   13   16 ar    
   26   13   27 1     
   27   14   16 ar    
   28   14   28 1     
   29   15   17 2     
   30   16   29 1     
@<TRIPOS>SUBSTRUCTURE
      1 RES1           1
@<TRIPOS>SET
DONOR_HYDROGENS      STATIC     ATOMS    <user>   **** ""
2 22 23
ATOM$RED        STATIC     ATOMS    COLORGROUP SYSTEM
2 22 23
@<TRIPOS>COMMENT
> <Gold.Version>
2022.3.0

> <Gold.Id.Protein>
unknown|5uo4_clean|pdb

> <Gold.Protein.RotatedTorsions>
[ 13162 13141 13139 13136 ] final -114.85 input   60.01 | X-H torsion

> <Gold.Protein.ActiveResidues>
 GLU351  PRO715  TRP716  ASN717  THR718  HIS719  VAL720  TRP721 

> <Gold.Protein.RotatedAtoms>
  129.9405  263.9714  366.1443 H   0  0  0  0  0  0  0  0  0  0  0  0  # atno 13162 bound_to 13141
  129.5988  264.8431  367.4753 LP  0  0  0  0  0  0  0  0  0  0  0  0  # atno 13530 bound_to 13141
  131.0159  264.0394  367.3638 LP  0  0  0  0  0  0  0  0  0  0  0  0  # atno 13531 bound_to 13141

> <Gold.Score>
     Fitness  S(hb_ext) S(vdw_ext)  S(hb_int)    S(int)      intcor
     35.21       0.90      25.46       0.00      -0.69      -0.79

> <Gold.Goldscore.Fitness>
35.2075

> <Gold.Goldscore.Internal.Vdw>
-0.6722

> <Gold.Goldscore.Internal.Torsion>
-0.8060

> <Gold.Goldscore.External.Vdw>
25.4565

> <Gold.Goldscore.Internal.HBond>
0.0000

> <Gold.Goldscore.External.HBond>
0.8980

> <Gold.Goldscore.Internal.Correction>
-0.7850

> <Gold.Goldscore.Hbonds>
donor molecule, donor type, donor heavy atom, donor atom, acceptor molecule, acceptor atom, score
      L1  H     8    22       P1 13034  0.45

> <Gold.Goldscore.Internal.Vdw.Weighted>
-0.6722

> <Gold.Goldscore.Internal.Torsion.Weighted>
-0.8060

> <Gold.Goldscore.External.Vdw.Weighted>
35.0027

> <Gold.Goldscore.Internal.HBond.Weighted>
0.0000

> <Gold.Goldscore.External.HBond.Weighted>
0.8980

> <Gold.Goldscore.Internal.Correction.Weighted>
-0.7850

> <Gold.Rescore>
     Score     S(PLP)   S(hbond)     S(cho)   S(metal)  DE(clash)   DE(tors)     intcor
      5.05      -6.70       0.00       0.00       0.00       0.00       0.82       ----

> <Gold.PLP.Fitness>
5.0476

> <Gold.PLP.PLP>
-6.6952

> <Gold.PLP.part.hbond>
-2.2466

> <Gold.PLP.part.metal>
0.0000

> <Gold.PLP.part.buried>
21.4972

> <Gold.PLP.part.nonpolar>
-37.7370

> <Gold.PLP.part.repulsive>
11.4636

> <Gold.PLP.ligand.clash>
0.0000

> <Gold.PLP.ligand.torsion>
0.8238

> <Gold.PLP.Chemscore.Hbond>
0.0000

> <Gold.PLP.Chemscore.CHOScore>
0.0000

> <Gold.PLP.Chemscore.Metal>
0.0000

> <Gold.Chemscore.Hbonds>
donor molecule, donor type, donor heavy atom, donor atom, acceptor molecule, acceptor atom, score
      L1  H     8    22       P1 13034  0.03

> <Gold.PLP.Chemscore.Internal.Correction>
   9.000000E+99

