#       Name:                CT1002167954
#       Creating user name   hitesit
#       Creation time:       Sun Apr 16 02:23:54 2023


#       File generated by GOLD software.
#

@<TRIPOS>MOLECULE
CT1002167954|ligand_prepared|mol2|1|dock9
    29    30     1
SMALL
NO_CHARGES


@<TRIPOS>ATOM
      1 C1         129.4302 266.8540 371.8186 C.3            1 RES1               0.0000
      2 C2         129.3068 265.4738 371.1414 C.ar           1 RES1               0.0000
      3 C3         128.2842 266.9428 372.8221 C.2            1 RES1               0.0000
      4 C4         130.8164 266.8960 372.4520 C.2            1 RES1               0.0000
      5 C5         129.3170 268.0438 370.8373 C.3            1 RES1               0.0000
      6 C6         130.0649 265.1667 370.0154 C.ar           1 RES1               0.0000
      7 C7         128.4428 264.4983 371.6317 C.ar           1 RES1               0.0000
      8 N8         128.5927 266.8265 374.1455 N.am           1 RES1               0.0000
      9 O9         127.1227 267.0732 372.4558 O.2            1 RES1               0.0000
     10 N10        130.8964 266.9535 373.8188 N.am           1 RES1               0.0000
     11 O11        131.8403 266.8631 371.7806 O.2            1 RES1               0.0000
     12 C12        129.8906 269.3432 371.3803 C.3            1 RES1               0.0000
     13 C13        129.9651 263.9282 369.4035 C.ar           1 RES1               0.0000
     14 C14        128.3444 263.2604 371.0181 C.ar           1 RES1               0.0000
     15 C15        129.8478 266.8896 374.6954 C.2            1 RES1               0.0000
     16 C16        129.1053 262.9741 369.9046 C.ar           1 RES1               0.0000
     17 O17        130.0033 266.8920 375.9132 O.2            1 RES1               0.0000
     18 H18        129.8418 267.7870 369.9089 H              1 RES1               0.0000
     19 H19        128.2592 268.2001 370.5922 H              1 RES1               0.0000
     20 H20        130.7452 265.9057 369.6054 H              1 RES1               0.0000
     21 H21        127.8337 264.7017 372.5059 H              1 RES1               0.0000
     22 H22        127.8187 266.6788 374.7853 H              1 RES1               0.0000
     23 H23        131.8235 267.0533 374.2198 H              1 RES1               0.0000
     24 H24        129.7856 270.1451 370.6526 H              1 RES1               0.0000
     25 H25        129.3747 269.6419 372.2905 H              1 RES1               0.0000
     26 H26        130.9479 269.2313 371.6112 H              1 RES1               0.0000
     27 H27        130.5651 263.7083 368.5267 H              1 RES1               0.0000
     28 H28        127.6659 262.5128 371.4155 H              1 RES1               0.0000
     29 H29        129.0276 262.0038 369.4253 H              1 RES1               0.0000
@<TRIPOS>BOND
    1    1    2 1     
    2    1    3 1     
    3    1    4 1     
    4    1    5 1     
    5    2    6 ar    
    6    2    7 ar    
    7    3    8 1     
    8    3    9 2     
    9    4   10 1     
   10    4   11 2     
   11    5   12 1     
   12    5   18 1     
   13    5   19 1     
   14    6   13 ar    
   15    6   20 1     
   16    7   14 ar    
   17    7   21 1     
   18    8   15 1     
   19    8   22 1     
   20   10   15 1     
   21   10   23 1     
   22   12   24 1     
   23   12   25 1     
   24   12   26 1     
   25   13   16 ar    
   26   13   27 1     
   27   14   16 ar    
   28   14   28 1     
   29   15   17 2     
   30   16   29 1     
@<TRIPOS>SUBSTRUCTURE
      1 RES1           1
@<TRIPOS>SET
DONOR_HYDROGENS      STATIC     ATOMS    <user>   **** ""
2 22 23
ATOM$RED        STATIC     ATOMS    COLORGROUP SYSTEM
2 22 23
@<TRIPOS>COMMENT
> <Gold.Version>
2022.3.0

> <Gold.Id.Protein>
unknown|5uo4_clean|pdb

> <Gold.Protein.RotatedTorsions>
[ 13162 13141 13139 13136 ] final  -70.78 input   60.01 | X-H torsion

> <Gold.Protein.ActiveResidues>
 GLU351  PRO715  TRP716  ASN717  THR718  HIS719  VAL720  TRP721 

> <Gold.Protein.RotatedAtoms>
  130.5745  263.7393  366.3384 H   0  0  0  0  0  0  0  0  0  0  0  0  # atno 13162 bound_to 13141
  129.3306  264.6564  366.8480 LP  0  0  0  0  0  0  0  0  0  0  0  0  # atno 13530 bound_to 13141
  130.6458  264.4598  367.7957 LP  0  0  0  0  0  0  0  0  0  0  0  0  # atno 13531 bound_to 13141

> <Gold.Score>
     Fitness  S(hb_ext) S(vdw_ext)  S(hb_int)    S(int)      intcor
     31.72       0.91      25.90       0.00      -4.80      -0.76

> <Gold.Goldscore.Fitness>
31.7186

> <Gold.Goldscore.Internal.Vdw>
-4.6353

> <Gold.Goldscore.Internal.Torsion>
-0.9271

> <Gold.Goldscore.External.Vdw>
25.9004

> <Gold.Goldscore.Internal.HBond>
0.0000

> <Gold.Goldscore.External.HBond>
0.9094

> <Gold.Goldscore.Internal.Correction>
-0.7585

> <Gold.Goldscore.Hbonds>
donor molecule, donor type, donor heavy atom, donor atom, acceptor molecule, acceptor atom, score
      P1  H 13197 13223       L1    11  0.39
      L1  H    10    23       P1 13200  0.07

> <Gold.Goldscore.Internal.Vdw.Weighted>
-4.6353

> <Gold.Goldscore.Internal.Torsion.Weighted>
-0.9271

> <Gold.Goldscore.External.Vdw.Weighted>
35.6130

> <Gold.Goldscore.Internal.HBond.Weighted>
0.0000

> <Gold.Goldscore.External.HBond.Weighted>
0.9094

> <Gold.Goldscore.Internal.Correction.Weighted>
-0.7585

> <Gold.Rescore>
     Score     S(PLP)   S(hbond)     S(cho)   S(metal)  DE(clash)   DE(tors)     intcor
      1.49      -4.11       0.00       0.00       0.00       0.11       1.25       ----

> <Gold.PLP.Fitness>
1.4925

> <Gold.PLP.PLP>
-4.1082

> <Gold.PLP.part.hbond>
-5.5493

> <Gold.PLP.part.metal>
0.0000

> <Gold.PLP.part.buried>
24.5230

> <Gold.PLP.part.nonpolar>
-31.2559

> <Gold.PLP.part.repulsive>
8.9916

> <Gold.PLP.ligand.clash>
0.1067

> <Gold.PLP.ligand.torsion>
1.2545

> <Gold.PLP.Chemscore.Hbond>
0.0000

> <Gold.PLP.Chemscore.CHOScore>
0.0000

> <Gold.PLP.Chemscore.Metal>
0.0000

> <Gold.Chemscore.Hbonds>
donor molecule, donor type, donor heavy atom, donor atom, acceptor molecule, acceptor atom, score
      P1  H 13197 13223       L1    11  0.02

> <Gold.PLP.Chemscore.Internal.Correction>
   9.000000E+99

