#       Name:                CT1002167954
#       Creating user name   hitesit
#       Creation time:       Sun Apr 16 20:25:30 2023


#       File generated by GOLD software.
#

@<TRIPOS>MOLECULE
CT1002167954|ligand_prepared|mol2|1|dock2
    29    30     1
SMALL
NO_CHARGES


@<TRIPOS>ATOM
      1 C1         228.6631  32.0348  13.0865 C.3            1 RES1               0.0000
      2 C2         227.9666  30.7224  13.5005 C.ar           1 RES1               0.0000
      3 C3         227.8347  32.6179  11.9454 C.2            1 RES1               0.0000
      4 C4         228.7038  32.9085  14.3353 C.2            1 RES1               0.0000
      5 C5         230.1152  31.8420  12.5907 C.3            1 RES1               0.0000
      6 C6         227.9007  29.6468  12.6199 C.ar           1 RES1               0.0000
      7 C7         227.3889  30.5717  14.7584 C.ar           1 RES1               0.0000
      8 N8         227.0590  33.7056  12.2195 N.am           1 RES1               0.0000
      9 O9         227.8317  32.1072  10.8321 O.2            1 RES1               0.0000
     10 N10        227.9737  34.0681  14.3317 N.am           1 RES1               0.0000
     11 O11        229.3483  32.5950  15.3286 O.2            1 RES1               0.0000
     12 C12        230.8458  33.1460  12.3113 C.3            1 RES1               0.0000
     13 C13        227.2822  28.4624  12.9845 C.ar           1 RES1               0.0000
     14 C14        226.7707  29.3864  15.1209 C.ar           1 RES1               0.0000
     15 C15        227.1288  34.4909  13.3420 C.2            1 RES1               0.0000
     16 C16        226.7173  28.3312  14.2352 C.ar           1 RES1               0.0000
     17 O17        226.4638  35.5187  13.4349 O.2            1 RES1               0.0000
     18 H18        230.6749  31.2788  13.3475 H              1 RES1               0.0000
     19 H19        230.0980  31.2431  11.6718 H              1 RES1               0.0000
     20 H20        228.3375  29.7323  11.6305 H              1 RES1               0.0000
     21 H21        227.4180  31.3889  15.4710 H              1 RES1               0.0000
     22 H22        226.3626  33.9584  11.5257 H              1 RES1               0.0000
     23 H23        228.0690  34.6722  15.1419 H              1 RES1               0.0000
     24 H24        231.8596  32.9538  11.9663 H              1 RES1               0.0000
     25 H25        230.3302  33.7204  11.5445 H              1 RES1               0.0000
     26 H26        230.9037  33.7560  13.2104 H              1 RES1               0.0000
     27 H27        227.2417  27.6353  12.2834 H              1 RES1               0.0000
     28 H28        226.3268  29.2878  16.1060 H              1 RES1               0.0000
     29 H29        226.2332  27.4031  14.5207 H              1 RES1               0.0000
@<TRIPOS>BOND
    1    1    2 1     
    2    1    3 1     
    3    1    4 1     
    4    1    5 1     
    5    2    6 ar    
    6    2    7 ar    
    7    3    8 1     
    8    3    9 2     
    9    4   10 1     
   10    4   11 2     
   11    5   12 1     
   12    5   18 1     
   13    5   19 1     
   14    6   13 ar    
   15    6   20 1     
   16    7   14 ar    
   17    7   21 1     
   18    8   15 1     
   19    8   22 1     
   20   10   15 1     
   21   10   23 1     
   22   12   24 1     
   23   12   25 1     
   24   12   26 1     
   25   13   16 ar    
   26   13   27 1     
   27   14   16 ar    
   28   14   28 1     
   29   15   17 2     
   30   16   29 1     
@<TRIPOS>SUBSTRUCTURE
      1 RES1           1
@<TRIPOS>SET
DONOR_HYDROGENS      STATIC     ATOMS    <user>   **** ""
2 22 23
ATOM$RED        STATIC     ATOMS    COLORGROUP SYSTEM
2 22 23
@<TRIPOS>COMMENT
> <Gold.Version>
2022.3.0

> <Gold.Id.Protein>
unknown|4d1n_clean|pdb

> <Gold.Protein.RotatedTorsions>
[ 16995 16956 16955 16953 ] final  -91.85 input   60.02 | X-H torsion
[ 18503 18464 18463 18461 ] final  -56.73 input   59.99 | X-H torsion
[ 18563 18529 18530 18531 ] final   22.62 input   85.91 | X-H torsion
[ 18713 18683 18684 18685 ] final  -40.21 input  120.10 | X-H torsion
[ 18779 18741 18742 18743 ] final -176.74 input   94.66 | X-H torsion
[ 18963 18915 18916 18917 ] final  -24.14 input   99.61 | X-H torsion
[ 19029 19005 19006 19007 ] final  -69.56 input  120.28 | X-H torsion
[ 17195 17175 17176 17177 ] final   68.75 input   50.47 | X-H torsion
[ 17251 17219 17220 17221 ] final  121.85 input  121.85 | X-H torsion
[ 18823 18809 18810 18811 ] final  -87.22 input  109.66 | X-H torsion
[ 19103 19061 19062 19063 ] final  155.52 input   93.64 | X-H torsion
[ 18495 18453 18454 18455 ] final  -35.14 input  105.49 | X-H torsion
[ 18295 18273 18274 18275 ] final  173.77 input   34.55 | X-H torsion
[ 18327 18313 18314 18315 ] final  -19.40 input   52.32 | X-H torsion
[ 18409 18361 18362 18363 ] final  107.11 input   29.77 | X-H torsion
[ 7524 7513 7514 7515 ] final -105.66 input   82.77 | X-H torsion
[ 7475 7455 7456 7457 ] final  161.06 input   99.19 | X-H torsion
[ 18603 18589 18590 18591 ] final -113.02 input  124.64 | X-H torsion
[ 10105 10094 10093 10090 ] final  134.53 input   59.99 | X-H torsion
[ 18299 18278 18277 18274 ] final -156.57 input   60.00 | X-H torsion
[ 11477 11459 11460 11461 ] final  108.58 input   48.11 | X-H torsion
[ 18657 18629 18627 18624 ] final  -49.66 input   60.03 | X-H torsion
[ 11425 11414 11413 11410 ] final   65.65 input   60.02 | X-H torsion
[ 18875 18843 18844 18845 ] final -114.37 input   86.72 | X-H torsion
[ 17303 17281 17282 17283 ] final  139.03 input   51.85 | X-H torsion
[ 22447 22415 22416 22417 ] final  -63.33 input   56.20 | X-H torsion
[ 18243 18203 18204 18205 ] final   57.36 input   41.90 | X-H torsion
[ 11805 11781 11782 11783 ] final   29.65 input   87.31 | X-H torsion
[ 16987 16945 16946 16947 ] final  -80.19 input   84.34 | X-H torsion
[ 27198 18532 18531 18530 ] final -122.34 input   -0.00 | X-H torsion
[ 27200 18626 18625 18624 ] final   -1.41 input    0.00 | X-H torsion
[ 27203 18686 18685 18684 ] final  -94.22 input   -0.00 | X-H torsion
[ 27223 17126 17125 17124 ] final -115.31 input    0.00 | X-H torsion
[ 27227 11604 11603 11602 ] final   57.66 input    0.00 | X-H torsion
[ 27231 17052 17051 17050 ] final   63.28 input   -0.00 | X-H torsion
[ 27233 18744 18743 18742 ] final   53.44 input   -0.00 | X-H torsion
[ 27235 18592 18591 18590 ] final -113.91 input   -0.00 | X-H torsion
[ 27238 18918 18917 18916 ] final   50.63 input    0.00 | X-H torsion
[ 27240 19008 19007 19006 ] final  -91.41 input    0.00 | X-H torsion
[ 27243 17178 17177 17176 ] final   46.41 input    0.00 | X-H torsion
[ 27245 18364 18363 18362 ] final  -47.81 input    0.00 | X-H torsion
[ 27248 11412 11411 11410 ] final  106.87 input   -0.00 | X-H torsion
[ 27250 18206 18205 18204 ] final   32.34 input   -0.00 | X-H torsion
[ 27254 17222 17221 17220 ] final  -66.09 input   -0.00 | X-H torsion
[ 27259 18316 18315 18314 ] final  144.84 input   -0.00 | X-H torsion
[ 27261 18456 18455 18454 ] final -102.66 input    0.00 | X-H torsion
[ 27264 18276 18275 18274 ] final -136.41 input    0.00 | X-H torsion
[ 27267 17016 17015 17014 ] final  -12.66 input    0.00 | X-H torsion
[ 27275 16948 16947 16946 ] final  153.28 input   -0.00 | X-H torsion

> <Gold.Protein.ActiveResidues>
 TRP414  CYS420  VAL421  GLY422  LEU460  SER462  SER482  GLN483  ILE485  ARG486 
 TYR487  ASP500  ASN503  TRP566  TYR567  GLY568  LEU569  PRO570  ALA571  VAL572 
 SER573  ASN574  PHE589  SER590  GLY591  TRP592  TYR593  MET594  GLY595  THR596 
 GLU597  ILE598  GLY599  VAL600  ARG601  ASP602  TYR603  ARG608  ILE653  VAL654 
 TRP683  PRO687  HEM750  H4B760 

> <Gold.Protein.RotatedAtoms>
  232.6190   32.6516   20.5527 H   0  0  0  0  0  0  0  0  0  0  0  0  # atno 7475 bound_to 7455
  234.2467   35.5253   19.6044 H   0  0  0  0  0  0  0  0  0  0  0  0  # atno 7524 bound_to 7513
  230.2832   42.1579   12.8672 H   0  0  0  0  0  0  0  0  0  0  0  0  # atno 10105 bound_to 10094
  221.7406   25.3886    9.3579 H   0  0  0  0  0  0  0  0  0  0  0  0  # atno 11425 bound_to 11414
  221.5122   27.0141    8.4607 H   0  0  0  0  0  0  0  0  0  0  0  0  # atno 11477 bound_to 11459
  224.7067   23.6258    3.1004 H   0  0  0  0  0  0  0  0  0  0  0  0  # atno 11805 bound_to 11781
  232.2614   28.3793    1.0854 H   0  0  0  0  0  0  0  0  0  0  0  0  # atno 16987 bound_to 16945
  228.2400   26.7816    6.5606 H   0  0  0  0  0  0  0  0  0  0  0  0  # atno 16995 bound_to 16956
  225.5589   31.8404    7.4427 H   0  0  0  0  0  0  0  0  0  0  0  0  # atno 17195 bound_to 17175
  224.3920   32.7610   11.0660 H   0  0  0  0  0  0  0  0  0  0  0  0  # atno 17251 bound_to 17219
  220.9979   31.0451   10.3272 H   0  0  0  0  0  0  0  0  0  0  0  0  # atno 17303 bound_to 17281
  221.3914   35.2943   11.7473 H   0  0  0  0  0  0  0  0  0  0  0  0  # atno 18243 bound_to 18203
  223.7626   37.0629   10.6011 H   0  0  0  0  0  0  0  0  0  0  0  0  # atno 18295 bound_to 18273
  225.0749   38.2115    7.3758 H   0  0  0  0  0  0  0  0  0  0  0  0  # atno 18299 bound_to 18278
  228.0495   36.8131    9.9042 H   0  0  0  0  0  0  0  0  0  0  0  0  # atno 18327 bound_to 18313
  231.7887   37.7084   10.7748 H   0  0  0  0  0  0  0  0  0  0  0  0  # atno 18409 bound_to 18361
  233.7335   34.9660    9.8242 H   0  0  0  0  0  0  0  0  0  0  0  0  # atno 18495 bound_to 18453
  230.2575   27.6167    7.4149 H   0  0  0  0  0  0  0  0  0  0  0  0  # atno 18503 bound_to 18464
  234.9344   31.3784   11.1926 H   0  0  0  0  0  0  0  0  0  0  0  0  # atno 18563 bound_to 18529
  237.6492   30.9374   10.6921 H   0  0  0  0  0  0  0  0  0  0  0  0  # atno 18603 bound_to 18589
  238.1985   28.0471   14.1443 H   0  0  0  0  0  0  0  0  0  0  0  0  # atno 18657 bound_to 18629
  236.7725   26.0769   11.8739 H   0  0  0  0  0  0  0  0  0  0  0  0  # atno 18713 bound_to 18683
  234.5918   26.6920    9.7553 H   0  0  0  0  0  0  0  0  0  0  0  0  # atno 18779 bound_to 18741
  236.6096   24.2480    8.1153 H   0  0  0  0  0  0  0  0  0  0  0  0  # atno 18823 bound_to 18809
  238.7878   22.4117    9.7839 H   0  0  0  0  0  0  0  0  0  0  0  0  # atno 18875 bound_to 18843
  236.1539   21.4040   10.9684 H   0  0  0  0  0  0  0  0  0  0  0  0  # atno 18963 bound_to 18915
  233.4679   20.8730   10.6261 H   0  0  0  0  0  0  0  0  0  0  0  0  # atno 19029 bound_to 19005
  234.6977   21.3839    7.4698 H   0  0  0  0  0  0  0  0  0  0  0  0  # atno 19103 bound_to 19061
  239.3988   34.6656    9.2739 H   0  0  0  0  0  0  0  0  0  0  0  0  # atno 22447 bound_to 22415
  226.8656   26.3282    5.8172 LP  0  0  0  0  0  0  0  0  0  0  0  0  # atno 27193 bound_to 16956
  226.9373   27.7553    6.6075 LP  0  0  0  0  0  0  0  0  0  0  0  0  # atno 27194 bound_to 16956
  229.6973   28.7575    6.3992 LP  0  0  0  0  0  0  0  0  0  0  0  0  # atno 27195 bound_to 18464
  229.2251   28.7486    7.9624 LP  0  0  0  0  0  0  0  0  0  0  0  0  # atno 27196 bound_to 18464
  235.2145   33.0223   11.7264 LP  0  0  0  0  0  0  0  0  0  0  0  0  # atno 27197 bound_to 18529
  236.5674   28.5681   11.5874 LP  0  0  0  0  0  0  0  0  0  0  0  0  # atno 27198 bound_to 18532
  235.4738   29.6778   10.8307 LP  0  0  0  0  0  0  0  0  0  0  0  0  # atno 27199 bound_to 18532
  237.4330   23.9062   12.2350 LP  0  0  0  0  0  0  0  0  0  0  0  0  # atno 27200 bound_to 18626
  235.7473   24.2747   12.0848 LP  0  0  0  0  0  0  0  0  0  0  0  0  # atno 27201 bound_to 18626
  236.2307   27.6488   12.3977 LP  0  0  0  0  0  0  0  0  0  0  0  0  # atno 27202 bound_to 18683
  234.2354   23.5913   10.7777 LP  0  0  0  0  0  0  0  0  0  0  0  0  # atno 27203 bound_to 18686
  232.8502   24.5549   10.3868 LP  0  0  0  0  0  0  0  0  0  0  0  0  # atno 27204 bound_to 18686
  235.9057   25.6762   10.2986 LP  0  0  0  0  0  0  0  0  0  0  0  0  # atno 27209 bound_to 18741
  236.0477   22.2212   12.5043 LP  0  0  0  0  0  0  0  0  0  0  0  0  # atno 27210 bound_to 18915
  233.8991   22.4611   10.0424 LP  0  0  0  0  0  0  0  0  0  0  0  0  # atno 27211 bound_to 19005
  226.6905   34.0264   10.1471 LP  0  0  0  0  0  0  0  0  0  0  0  0  # atno 27223 bound_to 17126
  227.3646   34.8686    8.7920 LP  0  0  0  0  0  0  0  0  0  0  0  0  # atno 27224 bound_to 17126
  226.5023   32.7184    8.6149 LP  0  0  0  0  0  0  0  0  0  0  0  0  # atno 27225 bound_to 17175
  223.4212   32.3848    9.6572 LP  0  0  0  0  0  0  0  0  0  0  0  0  # atno 27226 bound_to 17219
  224.7010   28.9023    5.3755 LP  0  0  0  0  0  0  0  0  0  0  0  0  # atno 27227 bound_to 11604
  225.8721   28.0416    4.4333 LP  0  0  0  0  0  0  0  0  0  0  0  0  # atno 27228 bound_to 11604
  227.4351   31.7650    4.5865 LP  0  0  0  0  0  0  0  0  0  0  0  0  # atno 27231 bound_to 17052
  226.3728   32.5407    5.7134 LP  0  0  0  0  0  0  0  0  0  0  0  0  # atno 27232 bound_to 17052
  235.3940   22.7751    7.1385 LP  0  0  0  0  0  0  0  0  0  0  0  0  # atno 27233 bound_to 18744
  236.0804   22.1836    8.6146 LP  0  0  0  0  0  0  0  0  0  0  0  0  # atno 27234 bound_to 18744
  237.3496   26.4882    9.7085 LP  0  0  0  0  0  0  0  0  0  0  0  0  # atno 27235 bound_to 18592
  238.9582   26.6086    9.0776 LP  0  0  0  0  0  0  0  0  0  0  0  0  # atno 27236 bound_to 18592
  237.6586   25.2247    9.1140 LP  0  0  0  0  0  0  0  0  0  0  0  0  # atno 27237 bound_to 18809
  232.8356   18.8784   11.1885 LP  0  0  0  0  0  0  0  0  0  0  0  0  # atno 27238 bound_to 18918
  233.6236   18.9972    9.6507 LP  0  0  0  0  0  0  0  0  0  0  0  0  # atno 27239 bound_to 18918
  232.5428   18.5358    7.6966 LP  0  0  0  0  0  0  0  0  0  0  0  0  # atno 27240 bound_to 19008
  232.3084   19.5749    6.3308 LP  0  0  0  0  0  0  0  0  0  0  0  0  # atno 27241 bound_to 19008
  234.1612   20.0609    8.4763 LP  0  0  0  0  0  0  0  0  0  0  0  0  # atno 27242 bound_to 19061
  222.6422   31.4440    7.8610 LP  0  0  0  0  0  0  0  0  0  0  0  0  # atno 27243 bound_to 17178
  221.5467   31.9893    9.0869 LP  0  0  0  0  0  0  0  0  0  0  0  0  # atno 27244 bound_to 17178
  233.1222   35.6636   11.8924 LP  0  0  0  0  0  0  0  0  0  0  0  0  # atno 27245 bound_to 18364
  232.5765   34.0345   11.6732 LP  0  0  0  0  0  0  0  0  0  0  0  0  # atno 27246 bound_to 18364
  233.1577   34.1098    8.4137 LP  0  0  0  0  0  0  0  0  0  0  0  0  # atno 27247 bound_to 18453
  221.6641   28.3230   11.0984 LP  0  0  0  0  0  0  0  0  0  0  0  0  # atno 27248 bound_to 11412
  220.1375   29.1326   10.9793 LP  0  0  0  0  0  0  0  0  0  0  0  0  # atno 27249 bound_to 11412
  223.0706   34.8031   10.9506 LP  0  0  0  0  0  0  0  0  0  0  0  0  # atno 27250 bound_to 18206
  224.7712   34.9981   11.2150 LP  0  0  0  0  0  0  0  0  0  0  0  0  # atno 27251 bound_to 18206
  221.1722   33.6454   12.4882 LP  0  0  0  0  0  0  0  0  0  0  0  0  # atno 27254 bound_to 17222
  220.7014   33.8158   10.8301 LP  0  0  0  0  0  0  0  0  0  0  0  0  # atno 27255 bound_to 17222
  224.6530   38.2330   11.5397 LP  0  0  0  0  0  0  0  0  0  0  0  0  # atno 27256 bound_to 18273
  227.5905   37.1561   11.5566 LP  0  0  0  0  0  0  0  0  0  0  0  0  # atno 27257 bound_to 18313
  230.6444   36.4146   10.4905 LP  0  0  0  0  0  0  0  0  0  0  0  0  # atno 27258 bound_to 18361
  230.9881   37.9744    8.0836 LP  0  0  0  0  0  0  0  0  0  0  0  0  # atno 27259 bound_to 18316
  229.2924   37.7708    8.3722 LP  0  0  0  0  0  0  0  0  0  0  0  0  # atno 27260 bound_to 18316
  237.1080   33.4585    9.8843 LP  0  0  0  0  0  0  0  0  0  0  0  0  # atno 27261 bound_to 18456
  236.1767   34.7330   10.5974 LP  0  0  0  0  0  0  0  0  0  0  0  0  # atno 27262 bound_to 18456
  232.5482   35.4615   19.1958 LP  0  0  0  0  0  0  0  0  0  0  0  0  # atno 27263 bound_to 7513
  227.5998   39.7204   10.6009 LP  0  0  0  0  0  0  0  0  0  0  0  0  # atno 27264 bound_to 18276
  226.1429   39.3889   11.4770 LP  0  0  0  0  0  0  0  0  0  0  0  0  # atno 27265 bound_to 18276
  232.1017   34.2606   20.1073 LP  0  0  0  0  0  0  0  0  0  0  0  0  # atno 27266 bound_to 7455
  232.6038   33.8952    5.0198 LP  0  0  0  0  0  0  0  0  0  0  0  0  # atno 27267 bound_to 17016
  231.0717   34.4812    5.5758 LP  0  0  0  0  0  0  0  0  0  0  0  0  # atno 27268 bound_to 17016
  238.9088   30.4186   11.7841 LP  0  0  0  0  0  0  0  0  0  0  0  0  # atno 27269 bound_to 18589
  230.1214   41.4056   11.4341 LP  0  0  0  0  0  0  0  0  0  0  0  0  # atno 27270 bound_to 10094
  229.5837   40.6908   12.8003 LP  0  0  0  0  0  0  0  0  0  0  0  0  # atno 27271 bound_to 10094
  226.3589   38.8045    8.1812 LP  0  0  0  0  0  0  0  0  0  0  0  0  # atno 27272 bound_to 18278
  224.8885   38.7757    8.8911 LP  0  0  0  0  0  0  0  0  0  0  0  0  # atno 27273 bound_to 18278
  220.0712   27.9729    8.7585 LP  0  0  0  0  0  0  0  0  0  0  0  0  # atno 27274 bound_to 11459
  232.4577   31.0026    3.7881 LP  0  0  0  0  0  0  0  0  0  0  0  0  # atno 27275 bound_to 16948
  231.3587   29.6644    3.7535 LP  0  0  0  0  0  0  0  0  0  0  0  0  # atno 27276 bound_to 16948

> <Gold.Score>
     Fitness  S(hb_ext) S(vdw_ext)  S(hb_int)    S(int)      intcor
     32.32       2.44      23.56       0.00      -2.51      -0.80

> <Gold.Goldscore.Fitness>
32.3221

> <Gold.Goldscore.Internal.Vdw>
-2.8950

> <Gold.Goldscore.Internal.Torsion>
-0.4151

> <Gold.Goldscore.External.Vdw>
23.5567

> <Gold.Goldscore.Internal.HBond>
0.0000

> <Gold.Goldscore.External.HBond>
2.4384

> <Gold.Goldscore.Internal.Correction>
-0.8033

> <Gold.Goldscore.Hbonds>
donor molecule, donor type, donor heavy atom, donor atom, acceptor molecule, acceptor atom, score
      P1  M 26885 27277       L1    11  0.24
      L1  H     8    22       P1 18206  0.01

> <Gold.Goldscore.Internal.Vdw.Weighted>
-2.8950

> <Gold.Goldscore.Internal.Torsion.Weighted>
-0.4151

> <Gold.Goldscore.External.Vdw.Weighted>
32.3905

> <Gold.Goldscore.Internal.HBond.Weighted>
0.0000

> <Gold.Goldscore.External.HBond.Weighted>
2.4384

> <Gold.Goldscore.Internal.Correction.Weighted>
-0.8033

> <Gold.Rescore>
     Score     S(PLP)   S(hbond)     S(cho)   S(metal)  DE(clash)   DE(tors)     intcor
     33.46     -28.05       0.32       0.00       1.00       1.37       0.10       ----

> <Gold.PLP.Fitness>
33.4650

> <Gold.PLP.PLP>
-28.0487

> <Gold.PLP.part.hbond>
-2.8537

> <Gold.PLP.part.metal>
-0.8225

> <Gold.PLP.part.buried>
25.9181

> <Gold.PLP.part.nonpolar>
-57.2129

> <Gold.PLP.part.repulsive>
4.0714

> <Gold.PLP.ligand.clash>
1.3679

> <Gold.PLP.ligand.torsion>
0.0951

> <Gold.PLP.Chemscore.Hbond>
0.3248

> <Gold.PLP.Chemscore.CHOScore>
0.0000

> <Gold.PLP.Chemscore.Metal>
1.0000

> <Gold.Chemscore.Hbonds>
donor molecule, donor type, donor heavy atom, donor atom, acceptor molecule, acceptor atom, score
      L1  H     8    22       P1 17126  0.08
      P1  M 26885 26885       L1    11  1.00

> <Gold.PLP.Chemscore.Internal.Correction>
   9.000000E+99

