#       Name:                CT1002167954
#       Creating user name   hitesit
#       Creation time:       Sun Apr 16 20:25:33 2023


#       File generated by GOLD software.
#

@<TRIPOS>MOLECULE
CT1002167954|ligand_prepared|mol2|1|dock6
    29    30     1
SMALL
NO_CHARGES


@<TRIPOS>ATOM
      1 C1         229.3053  25.7592  12.3353 C.3            1 RES1               0.0000
      2 C2         228.1985  26.6099  12.9910 C.ar           1 RES1               0.0000
      3 C3         228.6678  24.4153  11.9949 C.2            1 RES1               0.0000
      4 C4         229.7847  26.5459  11.1204 C.2            1 RES1               0.0000
      5 C5         230.5247  25.5062  13.2521 C.3            1 RES1               0.0000
      6 C6         228.4151  27.9539  13.2798 C.ar           1 RES1               0.0000
      7 C7         226.9569  26.0663  13.3100 C.ar           1 RES1               0.0000
      8 N8         228.3938  24.1601  10.6835 N.am           1 RES1               0.0000
      9 O9         228.3737  23.6082  12.8679 O.2            1 RES1               0.0000
     10 N10        229.5561  26.0126   9.8790 N.am           1 RES1               0.0000
     11 O11        230.3434  27.6308  11.2262 O.2            1 RES1               0.0000
     12 C12        231.6225  24.6816  12.5987 C.3            1 RES1               0.0000
     13 C13        227.4255  28.7274  13.8636 C.ar           1 RES1               0.0000
     14 C14        225.9687  26.8415  13.8939 C.ar           1 RES1               0.0000
     15 C15        228.8551  24.8700   9.6042 C.2            1 RES1               0.0000
     16 C16        226.2017  28.1719  14.1706 C.ar           1 RES1               0.0000
     17 O17        228.6444  24.4833   8.4583 O.2            1 RES1               0.0000
     18 H18        230.9435  26.4730  13.5575 H              1 RES1               0.0000
     19 H19        230.1846  24.9874  14.1569 H              1 RES1               0.0000
     20 H20        229.3728  28.4078  13.0476 H              1 RES1               0.0000
     21 H21        226.7517  25.0217  13.1023 H              1 RES1               0.0000
     22 H22        227.7899  23.3682  10.4872 H              1 RES1               0.0000
     23 H23        229.9447  26.5136   9.0863 H              1 RES1               0.0000
     24 H24        232.4539  24.5337  13.2847 H              1 RES1               0.0000
     25 H25        231.2473  23.7035  12.3050 H              1 RES1               0.0000
     26 H26        232.0018  25.1803  11.7091 H              1 RES1               0.0000
     27 H27        227.6144  29.7735  14.0806 H              1 RES1               0.0000
     28 H28        225.0072  26.4001  14.1344 H              1 RES1               0.0000
     29 H29        225.4265  28.7781  14.6276 H              1 RES1               0.0000
@<TRIPOS>BOND
    1    1    2 1     
    2    1    3 1     
    3    1    4 1     
    4    1    5 1     
    5    2    6 ar    
    6    2    7 ar    
    7    3    8 1     
    8    3    9 2     
    9    4   10 1     
   10    4   11 2     
   11    5   12 1     
   12    5   18 1     
   13    5   19 1     
   14    6   13 ar    
   15    6   20 1     
   16    7   14 ar    
   17    7   21 1     
   18    8   15 1     
   19    8   22 1     
   20   10   15 1     
   21   10   23 1     
   22   12   24 1     
   23   12   25 1     
   24   12   26 1     
   25   13   16 ar    
   26   13   27 1     
   27   14   16 ar    
   28   14   28 1     
   29   15   17 2     
   30   16   29 1     
@<TRIPOS>SUBSTRUCTURE
      1 RES1           1
@<TRIPOS>SET
DONOR_HYDROGENS      STATIC     ATOMS    <user>   **** ""
2 22 23
ATOM$RED        STATIC     ATOMS    COLORGROUP SYSTEM
2 22 23
@<TRIPOS>COMMENT
> <Gold.Version>
2022.3.0

> <Gold.Id.Protein>
unknown|4d1n_clean|pdb

> <Gold.Protein.RotatedTorsions>
[ 16995 16956 16955 16953 ] final -144.51 input   60.02 | X-H torsion
[ 18503 18464 18463 18461 ] final -176.40 input   59.99 | X-H torsion
[ 18563 18529 18530 18531 ] final  -30.28 input   85.91 | X-H torsion
[ 18713 18683 18684 18685 ] final   68.06 input  120.10 | X-H torsion
[ 18779 18741 18742 18743 ] final  -13.53 input   94.66 | X-H torsion
[ 18963 18915 18916 18917 ] final   88.56 input   99.61 | X-H torsion
[ 19029 19005 19006 19007 ] final   65.62 input  120.28 | X-H torsion
[ 17195 17175 17176 17177 ] final  -72.69 input   50.47 | X-H torsion
[ 17251 17219 17220 17221 ] final   45.66 input  121.85 | X-H torsion
[ 18823 18809 18810 18811 ] final  -56.83 input  109.66 | X-H torsion
[ 19103 19061 19062 19063 ] final   86.01 input   93.64 | X-H torsion
[ 18495 18453 18454 18455 ] final    0.74 input  105.49 | X-H torsion
[ 18295 18273 18274 18275 ] final  -71.64 input   34.55 | X-H torsion
[ 18327 18313 18314 18315 ] final -154.33 input   52.32 | X-H torsion
[ 18409 18361 18362 18363 ] final -120.34 input   29.77 | X-H torsion
[ 7524 7513 7514 7515 ] final  -49.18 input   82.77 | X-H torsion
[ 7475 7455 7456 7457 ] final -139.99 input   99.19 | X-H torsion
[ 18603 18589 18590 18591 ] final   78.14 input  124.64 | X-H torsion
[ 10105 10094 10093 10090 ] final  -51.93 input   59.99 | X-H torsion
[ 18299 18278 18277 18274 ] final   98.11 input   60.00 | X-H torsion
[ 11477 11459 11460 11461 ] final  129.26 input   48.11 | X-H torsion
[ 18657 18629 18627 18624 ] final  -43.48 input   60.03 | X-H torsion
[ 11425 11414 11413 11410 ] final  -21.58 input   60.02 | X-H torsion
[ 18875 18843 18844 18845 ] final   25.24 input   86.72 | X-H torsion
[ 17303 17281 17282 17283 ] final  -40.79 input   51.85 | X-H torsion
[ 22447 22415 22416 22417 ] final   30.73 input   56.20 | X-H torsion
[ 18243 18203 18204 18205 ] final -177.76 input   41.90 | X-H torsion
[ 11805 11781 11782 11783 ] final  -86.33 input   87.31 | X-H torsion
[ 16987 16945 16946 16947 ] final   24.34 input   84.34 | X-H torsion
[ 27198 18532 18531 18530 ] final   -1.15 input   -0.00 | X-H torsion
[ 27200 18626 18625 18624 ] final   28.75 input    0.00 | X-H torsion
[ 27203 18686 18685 18684 ] final -163.50 input   -0.00 | X-H torsion
[ 27223 17126 17125 17124 ] final  -93.35 input    0.00 | X-H torsion
[ 27227 11604 11603 11602 ] final   82.18 input    0.00 | X-H torsion
[ 27231 17052 17051 17050 ] final -106.57 input   -0.00 | X-H torsion
[ 27233 18744 18743 18742 ] final   96.39 input   -0.00 | X-H torsion
[ 27235 18592 18591 18590 ] final -104.61 input   -0.00 | X-H torsion
[ 27238 18918 18917 18916 ] final  -63.69 input    0.00 | X-H torsion
[ 27240 19008 19007 19006 ] final  -80.39 input    0.00 | X-H torsion
[ 27243 17178 17177 17176 ] final   56.83 input    0.00 | X-H torsion
[ 27245 18364 18363 18362 ] final  -90.27 input    0.00 | X-H torsion
[ 27248 11412 11411 11410 ] final   45.51 input   -0.00 | X-H torsion
[ 27250 18206 18205 18204 ] final  167.24 input   -0.00 | X-H torsion
[ 27254 17222 17221 17220 ] final   45.04 input   -0.00 | X-H torsion
[ 27259 18316 18315 18314 ] final -102.09 input   -0.00 | X-H torsion
[ 27261 18456 18455 18454 ] final   95.77 input    0.00 | X-H torsion
[ 27264 18276 18275 18274 ] final   95.35 input    0.00 | X-H torsion
[ 27267 17016 17015 17014 ] final  167.13 input    0.00 | X-H torsion
[ 27275 16948 16947 16946 ] final  159.94 input   -0.00 | X-H torsion

> <Gold.Protein.ActiveResidues>
 TRP414  CYS420  VAL421  GLY422  LEU460  SER462  SER482  GLN483  ILE485  ARG486 
 TYR487  ASP500  ASN503  TRP566  TYR567  GLY568  LEU569  PRO570  ALA571  VAL572 
 SER573  ASN574  PHE589  SER590  GLY591  TRP592  TYR593  MET594  GLY595  THR596 
 GLU597  ILE598  GLY599  VAL600  ARG601  ASP602  TYR603  ARG608  ILE653  VAL654 
 TRP683  PRO687  HEM750  H4B760 

> <Gold.Protein.RotatedAtoms>
  232.3279   33.1936   21.1683 H   0  0  0  0  0  0  0  0  0  0  0  0  # atno 7475 bound_to 7455
  233.7070   35.9482   20.0858 H   0  0  0  0  0  0  0  0  0  0  0  0  # atno 7524 bound_to 7513
  229.6748   40.6422   11.9605 H   0  0  0  0  0  0  0  0  0  0  0  0  # atno 10105 bound_to 10094
  220.7885   25.1601    8.5153 H   0  0  0  0  0  0  0  0  0  0  0  0  # atno 11425 bound_to 11414
  221.5608   27.0976    8.7694 H   0  0  0  0  0  0  0  0  0  0  0  0  # atno 11477 bound_to 11459
  224.2137   24.6616    2.1060 H   0  0  0  0  0  0  0  0  0  0  0  0  # atno 11805 bound_to 11781
  231.7390   28.3625    2.3811 H   0  0  0  0  0  0  0  0  0  0  0  0  # atno 16987 bound_to 16945
  227.8573   26.1997    6.1089 H   0  0  0  0  0  0  0  0  0  0  0  0  # atno 16995 bound_to 16956
  226.3091   32.2327    8.8560 H   0  0  0  0  0  0  0  0  0  0  0  0  # atno 17195 bound_to 17175
  223.5221   33.3107   10.6741 H   0  0  0  0  0  0  0  0  0  0  0  0  # atno 17251 bound_to 17219
  220.5724   30.9902   12.0363 H   0  0  0  0  0  0  0  0  0  0  0  0  # atno 17303 bound_to 17281
  220.3871   36.4978   11.7393 H   0  0  0  0  0  0  0  0  0  0  0  0  # atno 18243 bound_to 18203
  224.4570   37.3711   11.8673 H   0  0  0  0  0  0  0  0  0  0  0  0  # atno 18295 bound_to 18273
  226.3501   38.7124    7.9597 H   0  0  0  0  0  0  0  0  0  0  0  0  # atno 18299 bound_to 18278
  227.3800   37.6439   11.1472 H   0  0  0  0  0  0  0  0  0  0  0  0  # atno 18327 bound_to 18313
  230.5591   36.9423   10.0309 H   0  0  0  0  0  0  0  0  0  0  0  0  # atno 18409 bound_to 18361
  234.1341   34.9619    9.4553 H   0  0  0  0  0  0  0  0  0  0  0  0  # atno 18495 bound_to 18453
  229.7028   28.7525    6.4044 H   0  0  0  0  0  0  0  0  0  0  0  0  # atno 18503 bound_to 18464
  235.3012   31.8588   10.6793 H   0  0  0  0  0  0  0  0  0  0  0  0  # atno 18563 bound_to 18529
  239.0175   30.5252   11.7073 H   0  0  0  0  0  0  0  0  0  0  0  0  # atno 18603 bound_to 18589
  238.1135   28.0247   14.0945 H   0  0  0  0  0  0  0  0  0  0  0  0  # atno 18657 bound_to 18629
  236.4517   27.3874   11.4353 H   0  0  0  0  0  0  0  0  0  0  0  0  # atno 18713 bound_to 18683
  235.7239   25.5177   10.3839 H   0  0  0  0  0  0  0  0  0  0  0  0  # atno 18779 bound_to 18741
  236.5458   24.0926    8.5466 H   0  0  0  0  0  0  0  0  0  0  0  0  # atno 18823 bound_to 18809
  237.3181   23.0031   10.2867 H   0  0  0  0  0  0  0  0  0  0  0  0  # atno 18875 bound_to 18843
  235.7310   22.6046   11.6761 H   0  0  0  0  0  0  0  0  0  0  0  0  # atno 18963 bound_to 18915
  234.3531   22.0078    9.8645 H   0  0  0  0  0  0  0  0  0  0  0  0  # atno 19029 bound_to 19005
  235.1829   21.0508    8.2860 H   0  0  0  0  0  0  0  0  0  0  0  0  # atno 19103 bound_to 19061
  238.4834   34.2131   10.0690 H   0  0  0  0  0  0  0  0  0  0  0  0  # atno 22447 bound_to 22415
  226.4554   27.0225    6.0387 LP  0  0  0  0  0  0  0  0  0  0  0  0  # atno 27193 bound_to 16956
  227.7330   27.6473    6.8411 LP  0  0  0  0  0  0  0  0  0  0  0  0  # atno 27194 bound_to 16956
  229.2232   28.7523    7.9591 LP  0  0  0  0  0  0  0  0  0  0  0  0  # atno 27195 bound_to 18464
  230.2579   27.6095    7.4205 LP  0  0  0  0  0  0  0  0  0  0  0  0  # atno 27196 bound_to 18464
  234.8597   32.5577   12.2228 LP  0  0  0  0  0  0  0  0  0  0  0  0  # atno 27197 bound_to 18529
  235.4442   29.5718   11.6740 LP  0  0  0  0  0  0  0  0  0  0  0  0  # atno 27198 bound_to 18532
  236.5971   28.6740   10.7441 LP  0  0  0  0  0  0  0  0  0  0  0  0  # atno 27199 bound_to 18532
  237.2802   23.9306   12.6582 LP  0  0  0  0  0  0  0  0  0  0  0  0  # atno 27200 bound_to 18626
  235.9001   24.2503   11.6616 LP  0  0  0  0  0  0  0  0  0  0  0  0  # atno 27201 bound_to 18626
  236.5488   26.3496   12.8326 LP  0  0  0  0  0  0  0  0  0  0  0  0  # atno 27202 bound_to 18683
  233.9489   23.8144    9.8625 LP  0  0  0  0  0  0  0  0  0  0  0  0  # atno 27203 bound_to 18686
  233.1366   24.3319   11.3021 LP  0  0  0  0  0  0  0  0  0  0  0  0  # atno 27204 bound_to 18686
  234.7987   26.8244    9.6840 LP  0  0  0  0  0  0  0  0  0  0  0  0  # atno 27209 bound_to 18741
  236.4673   21.0298   11.8019 LP  0  0  0  0  0  0  0  0  0  0  0  0  # atno 27210 bound_to 18915
  233.0292   21.3460   10.7908 LP  0  0  0  0  0  0  0  0  0  0  0  0  # atno 27211 bound_to 19005
  227.0109   33.9565   10.1828 LP  0  0  0  0  0  0  0  0  0  0  0  0  # atno 27223 bound_to 17126
  227.0442   34.9384    8.7563 LP  0  0  0  0  0  0  0  0  0  0  0  0  # atno 27224 bound_to 17126
  225.7551   32.3277    7.2071 LP  0  0  0  0  0  0  0  0  0  0  0  0  # atno 27225 bound_to 17175
  224.2587   31.8556   10.0345 LP  0  0  0  0  0  0  0  0  0  0  0  0  # atno 27226 bound_to 17219
  224.6246   28.5519    5.4571 LP  0  0  0  0  0  0  0  0  0  0  0  0  # atno 27227 bound_to 11604
  225.9485   28.3920    4.3517 LP  0  0  0  0  0  0  0  0  0  0  0  0  # atno 27228 bound_to 11604
  226.3434   32.6374    5.5983 LP  0  0  0  0  0  0  0  0  0  0  0  0  # atno 27231 bound_to 17052
  227.4645   31.6683    4.7016 LP  0  0  0  0  0  0  0  0  0  0  0  0  # atno 27232 bound_to 17052
  236.0000   22.6056    7.0611 LP  0  0  0  0  0  0  0  0  0  0  0  0  # atno 27233 bound_to 18744
  235.4743   22.3531    8.6920 LP  0  0  0  0  0  0  0  0  0  0  0  0  # atno 27234 bound_to 18744
  237.3164   26.5830    9.6105 LP  0  0  0  0  0  0  0  0  0  0  0  0  # atno 27235 bound_to 18592
  238.9915   26.5138    9.1755 LP  0  0  0  0  0  0  0  0  0  0  0  0  # atno 27236 bound_to 18592
  237.7211   25.3768    8.6920 LP  0  0  0  0  0  0  0  0  0  0  0  0  # atno 27237 bound_to 18809
  234.0684   18.7228   10.4313 LP  0  0  0  0  0  0  0  0  0  0  0  0  # atno 27238 bound_to 18918
  232.3908   19.1528   10.4079 LP  0  0  0  0  0  0  0  0  0  0  0  0  # atno 27239 bound_to 18918
  232.4028   18.6053    7.7533 LP  0  0  0  0  0  0  0  0  0  0  0  0  # atno 27240 bound_to 19008
  232.4483   19.5054    6.2741 LP  0  0  0  0  0  0  0  0  0  0  0  0  # atno 27241 bound_to 19008
  233.6861   20.3871    7.6772 LP  0  0  0  0  0  0  0  0  0  0  0  0  # atno 27242 bound_to 19061
  222.6557   31.3153    7.9506 LP  0  0  0  0  0  0  0  0  0  0  0  0  # atno 27243 bound_to 17178
  221.5332   32.1180    8.9973 LP  0  0  0  0  0  0  0  0  0  0  0  0  # atno 27244 bound_to 17178
  233.6021   35.2600   11.9035 LP  0  0  0  0  0  0  0  0  0  0  0  0  # atno 27245 bound_to 18364
  232.0967   34.4381   11.6621 LP  0  0  0  0  0  0  0  0  0  0  0  0  # atno 27246 bound_to 18364
  232.7664   34.1137    8.7741 LP  0  0  0  0  0  0  0  0  0  0  0  0  # atno 27247 bound_to 18453
  220.9571   28.0187   11.5327 LP  0  0  0  0  0  0  0  0  0  0  0  0  # atno 27248 bound_to 11412
  220.8445   29.4370   10.5449 LP  0  0  0  0  0  0  0  0  0  0  0  0  # atno 27249 bound_to 11412
  224.6081   35.0296   10.5718 LP  0  0  0  0  0  0  0  0  0  0  0  0  # atno 27250 bound_to 18206
  223.2337   34.7716   11.5938 LP  0  0  0  0  0  0  0  0  0  0  0  0  # atno 27251 bound_to 18206
  221.6136   33.9439   11.1627 LP  0  0  0  0  0  0  0  0  0  0  0  0  # atno 27254 bound_to 17222
  220.2600   33.5172   12.1556 LP  0  0  0  0  0  0  0  0  0  0  0  0  # atno 27255 bound_to 17222
  223.9670   37.9285   10.2887 LP  0  0  0  0  0  0  0  0  0  0  0  0  # atno 27256 bound_to 18273
  228.2414   36.3484   10.3482 LP  0  0  0  0  0  0  0  0  0  0  0  0  # atno 27257 bound_to 18313
  231.8345   37.1561   11.2106 LP  0  0  0  0  0  0  0  0  0  0  0  0  # atno 27258 bound_to 18361
  229.8721   37.0572    8.1130 LP  0  0  0  0  0  0  0  0  0  0  0  0  # atno 27259 bound_to 18316
  230.4085   38.6880    8.3427 LP  0  0  0  0  0  0  0  0  0  0  0  0  # atno 27260 bound_to 18316
  236.3239   34.6560   10.8194 LP  0  0  0  0  0  0  0  0  0  0  0  0  # atno 27261 bound_to 18456
  236.9608   33.5356    9.6623 LP  0  0  0  0  0  0  0  0  0  0  0  0  # atno 27262 bound_to 18456
  233.0742   35.0493   18.7265 LP  0  0  0  0  0  0  0  0  0  0  0  0  # atno 27263 bound_to 7513
  226.7797   39.3899   11.8842 LP  0  0  0  0  0  0  0  0  0  0  0  0  # atno 27264 bound_to 18276
  226.9630   39.7193   10.1937 LP  0  0  0  0  0  0  0  0  0  0  0  0  # atno 27265 bound_to 18276
  232.3859   33.7315   19.5064 LP  0  0  0  0  0  0  0  0  0  0  0  0  # atno 27266 bound_to 7455
  231.0722   34.4840    5.5743 LP  0  0  0  0  0  0  0  0  0  0  0  0  # atno 27267 bound_to 17016
  232.6032   33.8923    5.0213 LP  0  0  0  0  0  0  0  0  0  0  0  0  # atno 27268 bound_to 17016
  237.5644   30.8236   10.7866 LP  0  0  0  0  0  0  0  0  0  0  0  0  # atno 27269 bound_to 18589
  229.9202   41.5292   13.3018 LP  0  0  0  0  0  0  0  0  0  0  0  0  # atno 27270 bound_to 10094
  230.3980   42.0948   11.8463 LP  0  0  0  0  0  0  0  0  0  0  0  0  # atno 27271 bound_to 10094
  225.0946   38.8567    8.9854 LP  0  0  0  0  0  0  0  0  0  0  0  0  # atno 27272 bound_to 18278
  224.8690   38.2193    7.4990 LP  0  0  0  0  0  0  0  0  0  0  0  0  # atno 27273 bound_to 18278
  220.0251   27.8938    8.4656 LP  0  0  0  0  0  0  0  0  0  0  0  0  # atno 27274 bound_to 11459
  232.3843   31.0542    3.8334 LP  0  0  0  0  0  0  0  0  0  0  0  0  # atno 27275 bound_to 16948
  231.4321   29.6128    3.7082 LP  0  0  0  0  0  0  0  0  0  0  0  0  # atno 27276 bound_to 16948

> <Gold.Score>
     Fitness  S(hb_ext) S(vdw_ext)  S(hb_int)    S(int)      intcor
     34.00       6.32      24.26       0.00      -5.68      -0.76

> <Gold.Goldscore.Fitness>
33.9986

> <Gold.Goldscore.Internal.Vdw>
-6.0719

> <Gold.Goldscore.Internal.Torsion>
-0.3672

> <Gold.Goldscore.External.Vdw>
24.2607

> <Gold.Goldscore.Internal.HBond>
0.0000

> <Gold.Goldscore.External.HBond>
6.3206

> <Gold.Goldscore.Internal.Correction>
-0.7585

> <Gold.Goldscore.Hbonds>
donor molecule, donor type, donor heavy atom, donor atom, acceptor molecule, acceptor atom, score
      P1  H 19345 19394       L1    17  0.99
      L1  H    10    23       P1 18464  0.20

> <Gold.Goldscore.Internal.Vdw.Weighted>
-6.0719

> <Gold.Goldscore.Internal.Torsion.Weighted>
-0.3672

> <Gold.Goldscore.External.Vdw.Weighted>
33.3585

> <Gold.Goldscore.Internal.HBond.Weighted>
0.0000

> <Gold.Goldscore.External.HBond.Weighted>
6.3206

> <Gold.Goldscore.Internal.Correction.Weighted>
-0.7585

> <Gold.Rescore>
     Score     S(PLP)   S(hbond)     S(cho)   S(metal)  DE(clash)   DE(tors)     intcor
     16.17     -12.84       1.74       0.00       0.00       0.73       0.58       ----

> <Gold.PLP.Fitness>
16.1739

> <Gold.PLP.PLP>
-12.8393

> <Gold.PLP.part.hbond>
-4.0000

> <Gold.PLP.part.metal>
0.0000

> <Gold.PLP.part.buried>
8.6956

> <Gold.PLP.part.nonpolar>
-20.8755

> <Gold.PLP.part.repulsive>
2.6071

> <Gold.PLP.ligand.clash>
0.7305

> <Gold.PLP.ligand.torsion>
0.5838

> <Gold.PLP.Chemscore.Hbond>
1.7442

> <Gold.PLP.Chemscore.CHOScore>
0.0000

> <Gold.PLP.Chemscore.Metal>
0.0000

> <Gold.Chemscore.Hbonds>
donor molecule, donor type, donor heavy atom, donor atom, acceptor molecule, acceptor atom, score
      P1  H 19345 19394       L1    17  1.00

> <Gold.PLP.Chemscore.Internal.Correction>
   9.000000E+99

