#       Name:                CT1002167954
#       Creating user name   hitesit
#       Creation time:       Sun Apr 16 20:25:35 2023


#       File generated by GOLD software.
#

@<TRIPOS>MOLECULE
CT1002167954|ligand_prepared|mol2|1|dock9
    29    30     1
SMALL
NO_CHARGES


@<TRIPOS>ATOM
      1 C1         228.6042  25.5082  12.3904 C.3            1 RES1               0.0000
      2 C2         228.1702  26.9611  12.6724 C.ar           1 RES1               0.0000
      3 C3         227.3438  24.7586  11.9687 C.2            1 RES1               0.0000
      4 C4         229.6741  25.5852  11.3069 C.2            1 RES1               0.0000
      5 C5         229.2160  24.7899  13.6157 C.3            1 RES1               0.0000
      6 C6         227.6376  27.3143  13.9086 C.ar           1 RES1               0.0000
      7 C7         228.2984  27.9579  11.7088 C.ar           1 RES1               0.0000
      8 N8         227.2088  24.4418  10.6491 N.am           1 RES1               0.0000
      9 O9         226.4634  24.4846  12.7750 O.2            1 RES1               0.0000
     10 N10        229.3889  25.0390  10.0829 N.am           1 RES1               0.0000
     11 O11        230.7552  26.1287  11.4968 O.2            1 RES1               0.0000
     12 C12        229.9047  23.4774  13.2763 C.3            1 RES1               0.0000
     13 C13        227.2500  28.6174  14.1731 C.ar           1 RES1               0.0000
     14 C14        227.9100  29.2604  11.9753 C.ar           1 RES1               0.0000
     15 C15        228.1933  24.4981   9.6955 C.2            1 RES1               0.0000
     16 C16        227.3863  29.5913  13.2070 C.ar           1 RES1               0.0000
     17 O17        227.9957  24.0763   8.5596 O.2            1 RES1               0.0000
     18 H18        229.9449  25.4589  14.0896 H              1 RES1               0.0000
     19 H19        228.4193  24.5927  14.3436 H              1 RES1               0.0000
     20 H20        227.5205  26.5609  14.6804 H              1 RES1               0.0000
     21 H21        228.7068  27.7203  10.7324 H              1 RES1               0.0000
     22 H22        226.2911  24.1347  10.3430 H              1 RES1               0.0000
     23 H23        230.1372  25.0352   9.3971 H              1 RES1               0.0000
     24 H24        230.3162  23.0150  14.1711 H              1 RES1               0.0000
     25 H25        229.2027  22.7786  12.8260 H              1 RES1               0.0000
     26 H26        230.7193  23.6397  12.5735 H              1 RES1               0.0000
     27 H27        226.8372  28.8724  15.1436 H              1 RES1               0.0000
     28 H28        228.0184  30.0236  11.2117 H              1 RES1               0.0000
     29 H29        227.0830  30.6122  13.4145 H              1 RES1               0.0000
@<TRIPOS>BOND
    1    1    2 1     
    2    1    3 1     
    3    1    4 1     
    4    1    5 1     
    5    2    6 ar    
    6    2    7 ar    
    7    3    8 1     
    8    3    9 2     
    9    4   10 1     
   10    4   11 2     
   11    5   12 1     
   12    5   18 1     
   13    5   19 1     
   14    6   13 ar    
   15    6   20 1     
   16    7   14 ar    
   17    7   21 1     
   18    8   15 1     
   19    8   22 1     
   20   10   15 1     
   21   10   23 1     
   22   12   24 1     
   23   12   25 1     
   24   12   26 1     
   25   13   16 ar    
   26   13   27 1     
   27   14   16 ar    
   28   14   28 1     
   29   15   17 2     
   30   16   29 1     
@<TRIPOS>SUBSTRUCTURE
      1 RES1           1
@<TRIPOS>SET
DONOR_HYDROGENS      STATIC     ATOMS    <user>   **** ""
2 22 23
ATOM$RED        STATIC     ATOMS    COLORGROUP SYSTEM
2 22 23
@<TRIPOS>COMMENT
> <Gold.Version>
2022.3.0

> <Gold.Id.Protein>
unknown|4d1n_clean|pdb

> <Gold.Protein.RotatedTorsions>
[ 16995 16956 16955 16953 ] final  -28.47 input   60.02 | X-H torsion
[ 18503 18464 18463 18461 ] final   -4.72 input   59.99 | X-H torsion
[ 18563 18529 18530 18531 ] final  -41.13 input   85.91 | X-H torsion
[ 18713 18683 18684 18685 ] final   70.39 input  120.10 | X-H torsion
[ 18779 18741 18742 18743 ] final   13.52 input   94.66 | X-H torsion
[ 18963 18915 18916 18917 ] final  -85.36 input   99.61 | X-H torsion
[ 19029 19005 19006 19007 ] final -143.55 input  120.28 | X-H torsion
[ 17195 17175 17176 17177 ] final  119.73 input   50.47 | X-H torsion
[ 17251 17219 17220 17221 ] final   64.58 input  121.85 | X-H torsion
[ 18823 18809 18810 18811 ] final  -44.81 input  109.66 | X-H torsion
[ 19103 19061 19062 19063 ] final -173.33 input   93.64 | X-H torsion
[ 18495 18453 18454 18455 ] final -150.12 input  105.49 | X-H torsion
[ 18295 18273 18274 18275 ] final  -53.84 input   34.55 | X-H torsion
[ 18327 18313 18314 18315 ] final  153.89 input   52.32 | X-H torsion
[ 18409 18361 18362 18363 ] final  167.88 input   29.77 | X-H torsion
[ 7524 7513 7514 7515 ] final    4.23 input   82.77 | X-H torsion
[ 7475 7455 7456 7457 ] final -169.18 input   99.19 | X-H torsion
[ 18603 18589 18590 18591 ] final  -79.15 input  124.64 | X-H torsion
[ 10105 10094 10093 10090 ] final  169.78 input   59.99 | X-H torsion
[ 18299 18278 18277 18274 ] final -156.85 input   60.00 | X-H torsion
[ 11477 11459 11460 11461 ] final   10.32 input   48.11 | X-H torsion
[ 18657 18629 18627 18624 ] final   11.76 input   60.03 | X-H torsion
[ 11425 11414 11413 11410 ] final  114.99 input   60.02 | X-H torsion
[ 18875 18843 18844 18845 ] final  -30.51 input   86.72 | X-H torsion
[ 17303 17281 17282 17283 ] final  169.59 input   51.85 | X-H torsion
[ 22447 22415 22416 22417 ] final -164.90 input   56.20 | X-H torsion
[ 18243 18203 18204 18205 ] final -107.56 input   41.90 | X-H torsion
[ 11805 11781 11782 11783 ] final  -24.54 input   87.31 | X-H torsion
[ 16987 16945 16946 16947 ] final -154.66 input   84.34 | X-H torsion
[ 27198 18532 18531 18530 ] final   54.61 input   -0.00 | X-H torsion
[ 27200 18626 18625 18624 ] final   51.77 input    0.00 | X-H torsion
[ 27203 18686 18685 18684 ] final  -88.91 input   -0.00 | X-H torsion
[ 27223 17126 17125 17124 ] final   99.43 input    0.00 | X-H torsion
[ 27227 11604 11603 11602 ] final   -0.85 input    0.00 | X-H torsion
[ 27231 17052 17051 17050 ] final  -73.75 input   -0.00 | X-H torsion
[ 27233 18744 18743 18742 ] final -179.32 input   -0.00 | X-H torsion
[ 27235 18592 18591 18590 ] final -177.64 input   -0.00 | X-H torsion
[ 27238 18918 18917 18916 ] final  147.45 input    0.00 | X-H torsion
[ 27240 19008 19007 19006 ] final  162.80 input    0.00 | X-H torsion
[ 27243 17178 17177 17176 ] final   87.82 input    0.00 | X-H torsion
[ 27245 18364 18363 18362 ] final   56.93 input    0.00 | X-H torsion
[ 27248 11412 11411 11410 ] final   39.01 input   -0.00 | X-H torsion
[ 27250 18206 18205 18204 ] final   75.12 input   -0.00 | X-H torsion
[ 27254 17222 17221 17220 ] final -157.48 input   -0.00 | X-H torsion
[ 27259 18316 18315 18314 ] final  125.16 input   -0.00 | X-H torsion
[ 27261 18456 18455 18454 ] final  -55.83 input    0.00 | X-H torsion
[ 27264 18276 18275 18274 ] final  104.27 input    0.00 | X-H torsion
[ 27267 17016 17015 17014 ] final  -15.28 input    0.00 | X-H torsion
[ 27275 16948 16947 16946 ] final -151.70 input   -0.00 | X-H torsion

> <Gold.Protein.ActiveResidues>
 TRP414  CYS420  VAL421  GLY422  LEU460  SER462  SER482  GLN483  ILE485  ARG486 
 TYR487  ASP500  ASN503  TRP566  TYR567  GLY568  LEU569  PRO570  ALA571  VAL572 
 SER573  ASN574  PHE589  SER590  GLY591  TRP592  TYR593  MET594  GLY595  THR596 
 GLU597  ILE598  GLY599  VAL600  ARG601  ASP602  TYR603  ARG608  ILE653  VAL654 
 TRP683  PRO687  HEM750  H4B760 

> <Gold.Protein.RotatedAtoms>
  232.4888   32.8445   20.9428 H   0  0  0  0  0  0  0  0  0  0  0  0  # atno 7475 bound_to 7455
  232.9200   35.9785   19.9722 H   0  0  0  0  0  0  0  0  0  0  0  0  # atno 7524 bound_to 7513
  230.0526   41.7864   13.2275 H   0  0  0  0  0  0  0  0  0  0  0  0  # atno 10105 bound_to 10094
  221.8606   24.7782    9.8313 H   0  0  0  0  0  0  0  0  0  0  0  0  # atno 11425 bound_to 11414
  220.4145   27.4592    7.7881 H   0  0  0  0  0  0  0  0  0  0  0  0  # atno 11477 bound_to 11459
  224.0836   23.9955    2.7259 H   0  0  0  0  0  0  0  0  0  0  0  0  # atno 11805 bound_to 11781
  231.3860   27.8895    0.7161 H   0  0  0  0  0  0  0  0  0  0  0  0  # atno 16987 bound_to 16945
  227.7857   27.6087    6.8371 H   0  0  0  0  0  0  0  0  0  0  0  0  # atno 16995 bound_to 16956
  225.8746   32.4749    7.1938 H   0  0  0  0  0  0  0  0  0  0  0  0  # atno 17195 bound_to 17175
  223.7391   33.2771   10.8685 H   0  0  0  0  0  0  0  0  0  0  0  0  # atno 17251 bound_to 17219
  221.1002   31.4671   10.4917 H   0  0  0  0  0  0  0  0  0  0  0  0  # atno 17303 bound_to 17281
  220.6565   36.5425   10.7599 H   0  0  0  0  0  0  0  0  0  0  0  0  # atno 18243 bound_to 18203
  224.5586   37.6227   11.8781 H   0  0  0  0  0  0  0  0  0  0  0  0  # atno 18295 bound_to 18273
  225.0791   38.2116    7.3738 H   0  0  0  0  0  0  0  0  0  0  0  0  # atno 18299 bound_to 18278
  227.6435   37.0790   11.6069 H   0  0  0  0  0  0  0  0  0  0  0  0  # atno 18327 bound_to 18313
  231.1800   37.7759   10.1156 H   0  0  0  0  0  0  0  0  0  0  0  0  # atno 18409 bound_to 18361
  232.6158   34.2251    9.1724 H   0  0  0  0  0  0  0  0  0  0  0  0  # atno 18495 bound_to 18453
  229.8412   27.9035    8.0612 H   0  0  0  0  0  0  0  0  0  0  0  0  # atno 18503 bound_to 18464
  235.3638   32.0114   10.6461 H   0  0  0  0  0  0  0  0  0  0  0  0  # atno 18563 bound_to 18529
  237.4389   30.5948   11.0109 H   0  0  0  0  0  0  0  0  0  0  0  0  # atno 18603 bound_to 18589
  237.3857   27.5550   14.0340 H   0  0  0  0  0  0  0  0  0  0  0  0  # atno 18657 bound_to 18629
  236.4412   27.4140   11.4567 H   0  0  0  0  0  0  0  0  0  0  0  0  # atno 18713 bound_to 18683
  236.0135   25.7743   10.2390 H   0  0  0  0  0  0  0  0  0  0  0  0  # atno 18779 bound_to 18741
  236.5662   24.0794    8.7299 H   0  0  0  0  0  0  0  0  0  0  0  0  # atno 18823 bound_to 18809
  237.6064   22.4582    9.7338 H   0  0  0  0  0  0  0  0  0  0  0  0  # atno 18875 bound_to 18843
  236.4731   21.0233   11.7077 H   0  0  0  0  0  0  0  0  0  0  0  0  # atno 18963 bound_to 18915
  232.9288   21.7738   10.7712 H   0  0  0  0  0  0  0  0  0  0  0  0  # atno 19029 bound_to 19005
  234.2937   21.2312    7.2746 H   0  0  0  0  0  0  0  0  0  0  0  0  # atno 19103 bound_to 19061
  238.8377   35.8682    9.6156 H   0  0  0  0  0  0  0  0  0  0  0  0  # atno 22447 bound_to 22415
  227.8082   26.1700    6.0776 LP  0  0  0  0  0  0  0  0  0  0  0  0  # atno 27193 bound_to 16956
  226.4525   27.0803    6.0686 LP  0  0  0  0  0  0  0  0  0  0  0  0  # atno 27194 bound_to 16956
  230.1795   28.0911    6.4809 LP  0  0  0  0  0  0  0  0  0  0  0  0  # atno 27195 bound_to 18464
  229.1623   29.1261    7.2297 LP  0  0  0  0  0  0  0  0  0  0  0  0  # atno 27196 bound_to 18464
  234.7992   32.4101   12.2549 LP  0  0  0  0  0  0  0  0  0  0  0  0  # atno 27197 bound_to 18529
  235.4564   29.6870   10.8723 LP  0  0  0  0  0  0  0  0  0  0  0  0  # atno 27198 bound_to 18532
  236.5848   28.5588   11.5459 LP  0  0  0  0  0  0  0  0  0  0  0  0  # atno 27199 bound_to 18532
  237.0337   23.9791   12.8953 LP  0  0  0  0  0  0  0  0  0  0  0  0  # atno 27200 bound_to 18626
  236.1466   24.2018   11.4244 LP  0  0  0  0  0  0  0  0  0  0  0  0  # atno 27201 bound_to 18626
  236.5592   26.3233   12.8114 LP  0  0  0  0  0  0  0  0  0  0  0  0  # atno 27202 bound_to 18683
  234.2165   23.6021   10.8549 LP  0  0  0  0  0  0  0  0  0  0  0  0  # atno 27203 bound_to 18686
  232.8691   24.5441   10.3097 LP  0  0  0  0  0  0  0  0  0  0  0  0  # atno 27204 bound_to 18686
  234.5156   26.5735    9.8256 LP  0  0  0  0  0  0  0  0  0  0  0  0  # atno 27209 bound_to 18741
  235.7309   22.5991   11.7706 LP  0  0  0  0  0  0  0  0  0  0  0  0  # atno 27210 bound_to 18915
  234.4289   21.5759    9.8998 LP  0  0  0  0  0  0  0  0  0  0  0  0  # atno 27211 bound_to 19005
  226.8535   34.9465    8.7835 LP  0  0  0  0  0  0  0  0  0  0  0  0  # atno 27223 bound_to 17126
  227.2016   33.9485   10.1556 LP  0  0  0  0  0  0  0  0  0  0  0  0  # atno 27224 bound_to 17126
  226.1878   32.0864    8.8629 LP  0  0  0  0  0  0  0  0  0  0  0  0  # atno 27225 bound_to 17175
  224.0497   31.8880    9.8473 LP  0  0  0  0  0  0  0  0  0  0  0  0  # atno 27226 bound_to 17219
  225.2461   29.3370    4.8956 LP  0  0  0  0  0  0  0  0  0  0  0  0  # atno 27227 bound_to 11604
  225.3270   27.6069    4.9133 LP  0  0  0  0  0  0  0  0  0  0  0  0  # atno 27228 bound_to 11604
  226.3693   32.8341    5.1509 LP  0  0  0  0  0  0  0  0  0  0  0  0  # atno 27231 bound_to 17052
  227.4386   31.4716    5.1490 LP  0  0  0  0  0  0  0  0  0  0  0  0  # atno 27232 bound_to 17052
  236.5455   22.1949    8.0016 LP  0  0  0  0  0  0  0  0  0  0  0  0  # atno 27233 bound_to 18744
  234.9288   22.7638    7.7515 LP  0  0  0  0  0  0  0  0  0  0  0  0  # atno 27234 bound_to 18744
  238.0415   25.9998   10.0537 LP  0  0  0  0  0  0  0  0  0  0  0  0  # atno 27235 bound_to 18592
  238.2663   27.0969    8.7324 LP  0  0  0  0  0  0  0  0  0  0  0  0  # atno 27236 bound_to 18592
  237.7011   25.3897    8.5127 LP  0  0  0  0  0  0  0  0  0  0  0  0  # atno 27237 bound_to 18809
  232.5393   19.2057    9.9705 LP  0  0  0  0  0  0  0  0  0  0  0  0  # atno 27238 bound_to 18918
  233.9199   18.6699   10.8687 LP  0  0  0  0  0  0  0  0  0  0  0  0  # atno 27239 bound_to 18918
  233.0877   18.8947    6.4791 LP  0  0  0  0  0  0  0  0  0  0  0  0  # atno 27240 bound_to 19008
  231.7635   19.2159    7.5483 LP  0  0  0  0  0  0  0  0  0  0  0  0  # atno 27241 bound_to 19008
  234.5567   20.2104    8.6675 LP  0  0  0  0  0  0  0  0  0  0  0  0  # atno 27242 bound_to 19061
  222.5878   31.0253    8.3047 LP  0  0  0  0  0  0  0  0  0  0  0  0  # atno 27243 bound_to 17178
  221.6011   32.4080    8.6432 LP  0  0  0  0  0  0  0  0  0  0  0  0  # atno 27244 bound_to 17178
  231.9900   34.9140   11.6978 LP  0  0  0  0  0  0  0  0  0  0  0  0  # atno 27245 bound_to 18364
  233.7088   34.7841   11.8678 LP  0  0  0  0  0  0  0  0  0  0  0  0  # atno 27246 bound_to 18364
  234.2495   34.8335    9.0504 LP  0  0  0  0  0  0  0  0  0  0  0  0  # atno 27247 bound_to 18453
  220.8618   28.0316   11.5524 LP  0  0  0  0  0  0  0  0  0  0  0  0  # atno 27248 bound_to 11412
  220.9398   29.4240   10.5253 LP  0  0  0  0  0  0  0  0  0  0  0  0  # atno 27249 bound_to 11412
  223.3802   34.8868   10.4065 LP  0  0  0  0  0  0  0  0  0  0  0  0  # atno 27250 bound_to 18206
  224.4616   34.9144   11.7592 LP  0  0  0  0  0  0  0  0  0  0  0  0  # atno 27251 bound_to 18206
  220.1148   33.5369   11.8508 LP  0  0  0  0  0  0  0  0  0  0  0  0  # atno 27254 bound_to 17222
  221.7589   33.9242   11.4674 LP  0  0  0  0  0  0  0  0  0  0  0  0  # atno 27255 bound_to 17222
  223.8666   37.6799   10.2780 LP  0  0  0  0  0  0  0  0  0  0  0  0  # atno 27256 bound_to 18273
  227.9852   36.8976    9.9013 LP  0  0  0  0  0  0  0  0  0  0  0  0  # atno 27257 bound_to 18313
  231.2336   36.3493   11.1285 LP  0  0  0  0  0  0  0  0  0  0  0  0  # atno 27258 bound_to 18361
  230.9151   38.2524    8.1547 LP  0  0  0  0  0  0  0  0  0  0  0  0  # atno 27259 bound_to 18316
  229.3654   37.4928    8.3010 LP  0  0  0  0  0  0  0  0  0  0  0  0  # atno 27260 bound_to 18316
  236.6764   33.7621    9.4424 LP  0  0  0  0  0  0  0  0  0  0  0  0  # atno 27261 bound_to 18456
  236.6083   34.4294   11.0393 LP  0  0  0  0  0  0  0  0  0  0  0  0  # atno 27262 bound_to 18456
  233.8413   35.0198   18.8373 LP  0  0  0  0  0  0  0  0  0  0  0  0  # atno 27263 bound_to 7513
  226.9135   39.4045   11.8908 LP  0  0  0  0  0  0  0  0  0  0  0  0  # atno 27264 bound_to 18276
  226.8291   39.7047   10.1871 LP  0  0  0  0  0  0  0  0  0  0  0  0  # atno 27265 bound_to 18276
  232.2288   34.0723   19.7265 LP  0  0  0  0  0  0  0  0  0  0  0  0  # atno 27266 bound_to 7455
  232.5962   33.8608    5.0379 LP  0  0  0  0  0  0  0  0  0  0  0  0  # atno 27267 bound_to 17016
  231.0793   34.5156    5.5577 LP  0  0  0  0  0  0  0  0  0  0  0  0  # atno 27268 bound_to 17016
  239.1154   30.7552   11.4708 LP  0  0  0  0  0  0  0  0  0  0  0  0  # atno 27269 bound_to 18589
  230.3332   41.8986   11.6291 LP  0  0  0  0  0  0  0  0  0  0  0  0  # atno 27270 bound_to 10094
  229.6042   40.5722   12.2422 LP  0  0  0  0  0  0  0  0  0  0  0  0  # atno 27271 bound_to 10094
  226.3583   38.8061    8.1856 LP  0  0  0  0  0  0  0  0  0  0  0  0  # atno 27272 bound_to 18278
  224.8848   38.7740    8.8887 LP  0  0  0  0  0  0  0  0  0  0  0  0  # atno 27273 bound_to 18278
  221.1130   27.5505    9.3969 LP  0  0  0  0  0  0  0  0  0  0  0  0  # atno 27274 bound_to 11459
  231.7302   31.1138    4.1017 LP  0  0  0  0  0  0  0  0  0  0  0  0  # atno 27275 bound_to 16948
  232.0862   29.5533    3.4398 LP  0  0  0  0  0  0  0  0  0  0  0  0  # atno 27276 bound_to 16948

> <Gold.Score>
     Fitness  S(hb_ext) S(vdw_ext)  S(hb_int)    S(int)      intcor
     29.12       4.25      18.66       0.00      -0.79      -0.75

> <Gold.Goldscore.Fitness>
29.1248

> <Gold.Goldscore.Internal.Vdw>
-0.9542

> <Gold.Goldscore.Internal.Torsion>
-0.5901

> <Gold.Goldscore.External.Vdw>
18.6629

> <Gold.Goldscore.Internal.HBond>
0.0000

> <Gold.Goldscore.External.HBond>
4.2530

> <Gold.Goldscore.Internal.Correction>
-0.7546

> <Gold.Goldscore.Hbonds>
donor molecule, donor type, donor heavy atom, donor atom, acceptor molecule, acceptor atom, score
      P1  H 11693 11717       L1    17  0.07
      P1  H 19345 19394       L1    17  0.04
      L1  H    10    23       P1 19012  0.59

> <Gold.Goldscore.Internal.Vdw.Weighted>
-0.9542

> <Gold.Goldscore.Internal.Torsion.Weighted>
-0.5901

> <Gold.Goldscore.External.Vdw.Weighted>
25.6615

> <Gold.Goldscore.Internal.HBond.Weighted>
0.0000

> <Gold.Goldscore.External.HBond.Weighted>
4.2530

> <Gold.Goldscore.Internal.Correction.Weighted>
-0.7546

> <Gold.Rescore>
     Score     S(PLP)   S(hbond)     S(cho)   S(metal)  DE(clash)   DE(tors)     intcor
      6.10      -3.20       1.75       0.00       0.00       0.00       1.18       ----

> <Gold.PLP.Fitness>
6.0967

> <Gold.PLP.PLP>
-3.1971

> <Gold.PLP.part.hbond>
-4.1849

> <Gold.PLP.part.metal>
0.0000

> <Gold.PLP.part.buried>
11.8278

> <Gold.PLP.part.nonpolar>
-19.2899

> <Gold.PLP.part.repulsive>
8.3043

> <Gold.PLP.ligand.clash>
0.0000

> <Gold.PLP.ligand.torsion>
1.1798

> <Gold.PLP.Chemscore.Hbond>
1.7531

> <Gold.PLP.Chemscore.CHOScore>
0.0000

> <Gold.PLP.Chemscore.Metal>
0.0000

> <Gold.Chemscore.Hbonds>
donor molecule, donor type, donor heavy atom, donor atom, acceptor molecule, acceptor atom, score
      L1  H    10    23       P1 19012  0.20
      P1  H 11693 11717       L1    17  0.69
      P1  H 19345 19394       L1    17  0.85

> <Gold.PLP.Chemscore.Internal.Correction>
   9.000000E+99

