#       Name:                CT1002167954
#       Creating user name   hitesit
#       Creation time:       Sun Apr 16 20:25:29 2023


#       File generated by GOLD software.
#

@<TRIPOS>MOLECULE
CT1002167954|ligand_prepared|mol2|1|dock1
    29    30     1
SMALL
NO_CHARGES


@<TRIPOS>ATOM
      1 C1         225.8811  25.8231  13.2231 C.3            1 RES1               0.0000
      2 C2         226.9857  26.7392  12.6580 C.ar           1 RES1               0.0000
      3 C3         225.7665  26.1560  14.7079 C.2            1 RES1               0.0000
      4 C4         224.6221  26.1267  12.4186 C.2            1 RES1               0.0000
      5 C5         226.1872  24.3140  13.0802 C.3            1 RES1               0.0000
      6 C6         226.9237  28.1179  12.8376 C.ar           1 RES1               0.0000
      7 C7         228.0723  26.2211  11.9583 C.ar           1 RES1               0.0000
      8 N8         224.6790  26.8724  15.1127 N.am           1 RES1               0.0000
      9 O9         226.6370  25.8289  15.5051 O.2            1 RES1               0.0000
     10 N10        223.5637  26.6994  13.0740 N.am           1 RES1               0.0000
     11 O11        224.5430  25.8903  11.2193 O.2            1 RES1               0.0000
     12 C12        225.1441  23.4133  13.7228 C.3            1 RES1               0.0000
     13 C13        227.9135  28.9482  12.3386 C.ar           1 RES1               0.0000
     14 C14        229.0610  27.0533  11.4599 C.ar           1 RES1               0.0000
     15 C15        223.5462  27.1142  14.3778 C.2            1 RES1               0.0000
     16 C16        228.9829  28.4166  11.6499 C.ar           1 RES1               0.0000
     17 O17        222.5749  27.6712  14.8812 O.2            1 RES1               0.0000
     18 H18        226.2577  24.0675  12.0137 H              1 RES1               0.0000
     19 H19        227.1625  24.1067  13.5375 H              1 RES1               0.0000
     20 H20        226.0885  28.5546  13.3749 H              1 RES1               0.0000
     21 H21        228.1539  25.1517  11.7959 H              1 RES1               0.0000
     22 H22        224.7109  27.2647  16.0483 H              1 RES1               0.0000
     23 H23        222.7098  26.8283  12.5406 H              1 RES1               0.0000
     24 H24        225.4070  22.3655  13.5937 H              1 RES1               0.0000
     25 H25        225.0654  23.6140  14.7893 H              1 RES1               0.0000
     26 H26        224.1660  23.5750  13.2744 H              1 RES1               0.0000
     27 H27        227.8468  30.0206  12.4896 H              1 RES1               0.0000
     28 H28        229.9005  26.6306  10.9179 H              1 RES1               0.0000
     29 H29        229.7584  29.0672  11.2594 H              1 RES1               0.0000
@<TRIPOS>BOND
    1    1    2 1     
    2    1    3 1     
    3    1    4 1     
    4    1    5 1     
    5    2    6 ar    
    6    2    7 ar    
    7    3    8 1     
    8    3    9 2     
    9    4   10 1     
   10    4   11 2     
   11    5   12 1     
   12    5   18 1     
   13    5   19 1     
   14    6   13 ar    
   15    6   20 1     
   16    7   14 ar    
   17    7   21 1     
   18    8   15 1     
   19    8   22 1     
   20   10   15 1     
   21   10   23 1     
   22   12   24 1     
   23   12   25 1     
   24   12   26 1     
   25   13   16 ar    
   26   13   27 1     
   27   14   16 ar    
   28   14   28 1     
   29   15   17 2     
   30   16   29 1     
@<TRIPOS>SUBSTRUCTURE
      1 RES1           1
@<TRIPOS>SET
DONOR_HYDROGENS      STATIC     ATOMS    <user>   **** ""
2 22 23
ATOM$RED        STATIC     ATOMS    COLORGROUP SYSTEM
2 22 23
@<TRIPOS>COMMENT
> <Gold.Version>
2022.3.0

> <Gold.Id.Protein>
unknown|4d1n_clean|pdb

> <Gold.Protein.RotatedTorsions>
[ 16995 16956 16955 16953 ] final -127.66 input   60.02 | X-H torsion
[ 18503 18464 18463 18461 ] final   21.09 input   59.99 | X-H torsion
[ 18563 18529 18530 18531 ] final -149.45 input   85.91 | X-H torsion
[ 18713 18683 18684 18685 ] final  -90.08 input  120.10 | X-H torsion
[ 18779 18741 18742 18743 ] final  107.86 input   94.66 | X-H torsion
[ 18963 18915 18916 18917 ] final  175.53 input   99.61 | X-H torsion
[ 19029 19005 19006 19007 ] final  161.17 input  120.28 | X-H torsion
[ 17195 17175 17176 17177 ] final   60.40 input   50.47 | X-H torsion
[ 17251 17219 17220 17221 ] final  -43.61 input  121.85 | X-H torsion
[ 18823 18809 18810 18811 ] final   24.51 input  109.66 | X-H torsion
[ 19103 19061 19062 19063 ] final   70.51 input   93.64 | X-H torsion
[ 18495 18453 18454 18455 ] final  -87.45 input  105.49 | X-H torsion
[ 18295 18273 18274 18275 ] final   31.11 input   34.55 | X-H torsion
[ 18327 18313 18314 18315 ] final   29.23 input   52.32 | X-H torsion
[ 18409 18361 18362 18363 ] final   36.28 input   29.77 | X-H torsion
[ 7524 7513 7514 7515 ] final  -54.25 input   82.77 | X-H torsion
[ 7475 7455 7456 7457 ] final  -85.74 input   99.19 | X-H torsion
[ 18603 18589 18590 18591 ] final  -37.95 input  124.64 | X-H torsion
[ 10105 10094 10093 10090 ] final   23.94 input   59.99 | X-H torsion
[ 18299 18278 18277 18274 ] final  -27.88 input   60.00 | X-H torsion
[ 11477 11459 11460 11461 ] final  117.61 input   48.11 | X-H torsion
[ 18657 18629 18627 18624 ] final  -42.35 input   60.03 | X-H torsion
[ 11425 11414 11413 11410 ] final   77.25 input   60.02 | X-H torsion
[ 18875 18843 18844 18845 ] final -119.12 input   86.72 | X-H torsion
[ 17303 17281 17282 17283 ] final -167.76 input   51.85 | X-H torsion
[ 22447 22415 22416 22417 ] final  -52.20 input   56.20 | X-H torsion
[ 18243 18203 18204 18205 ] final    4.28 input   41.90 | X-H torsion
[ 11805 11781 11782 11783 ] final  115.98 input   87.31 | X-H torsion
[ 16987 16945 16946 16947 ] final  162.32 input   84.34 | X-H torsion
[ 27198 18532 18531 18530 ] final   69.82 input   -0.00 | X-H torsion
[ 27200 18626 18625 18624 ] final   51.26 input    0.00 | X-H torsion
[ 27203 18686 18685 18684 ] final   79.26 input   -0.00 | X-H torsion
[ 27223 17126 17125 17124 ] final -143.01 input    0.00 | X-H torsion
[ 27227 11604 11603 11602 ] final  113.97 input    0.00 | X-H torsion
[ 27231 17052 17051 17050 ] final  -17.86 input   -0.00 | X-H torsion
[ 27233 18744 18743 18742 ] final   72.38 input   -0.00 | X-H torsion
[ 27235 18592 18591 18590 ] final   51.85 input   -0.00 | X-H torsion
[ 27238 18918 18917 18916 ] final  -49.17 input    0.00 | X-H torsion
[ 27240 19008 19007 19006 ] final -159.53 input    0.00 | X-H torsion
[ 27243 17178 17177 17176 ] final   28.95 input    0.00 | X-H torsion
[ 27245 18364 18363 18362 ] final  -28.85 input    0.00 | X-H torsion
[ 27248 11412 11411 11410 ] final   99.42 input   -0.00 | X-H torsion
[ 27250 18206 18205 18204 ] final -158.41 input   -0.00 | X-H torsion
[ 27254 17222 17221 17220 ] final  111.94 input   -0.00 | X-H torsion
[ 27259 18316 18315 18314 ] final  172.35 input   -0.00 | X-H torsion
[ 27261 18456 18455 18454 ] final  159.85 input    0.00 | X-H torsion
[ 27264 18276 18275 18274 ] final -126.38 input    0.00 | X-H torsion
[ 27267 17016 17015 17014 ] final -155.91 input    0.00 | X-H torsion
[ 27275 16948 16947 16946 ] final  144.18 input   -0.00 | X-H torsion

> <Gold.Protein.ActiveResidues>
 TRP414  CYS420  VAL421  GLY422  LEU460  SER462  SER482  GLN483  ILE485  ARG486 
 TYR487  ASP500  ASN503  TRP566  TYR567  GLY568  LEU569  PRO570  ALA571  VAL572 
 SER573  ASN574  PHE589  SER590  GLY591  TRP592  TYR593  MET594  GLY595  THR596 
 GLU597  ILE598  GLY599  VAL600  ARG601  ASP602  TYR603  ARG608  ILE653  VAL654 
 TRP683  PRO687  HEM750  H4B760 

> <Gold.Protein.RotatedAtoms>
  232.0804   33.9460   21.0165 H   0  0  0  0  0  0  0  0  0  0  0  0  # atno 7475 bound_to 7455
  233.7782   35.9230   20.0649 H   0  0  0  0  0  0  0  0  0  0  0  0  # atno 7524 bound_to 7513
  230.1825   41.5448   11.4601 H   0  0  0  0  0  0  0  0  0  0  0  0  # atno 10105 bound_to 10094
  221.8129   25.2794    9.4946 H   0  0  0  0  0  0  0  0  0  0  0  0  # atno 11425 bound_to 11414
  221.5456   27.0429    8.5955 H   0  0  0  0  0  0  0  0  0  0  0  0  # atno 11477 bound_to 11459
  225.7656   24.0968    2.7043 H   0  0  0  0  0  0  0  0  0  0  0  0  # atno 11805 bound_to 11781
  230.8998   27.7267    1.1119 H   0  0  0  0  0  0  0  0  0  0  0  0  # atno 16987 bound_to 16945
  228.0478   26.3359    6.2516 H   0  0  0  0  0  0  0  0  0  0  0  0  # atno 16995 bound_to 16956
  225.5385   31.7565    7.5358 H   0  0  0  0  0  0  0  0  0  0  0  0  # atno 17195 bound_to 17175
  223.2757   32.5499    9.7081 H   0  0  0  0  0  0  0  0  0  0  0  0  # atno 17251 bound_to 17219
  221.1203   31.7050   10.7421 H   0  0  0  0  0  0  0  0  0  0  0  0  # atno 17303 bound_to 17281
  221.5446   35.3987   10.9792 H   0  0  0  0  0  0  0  0  0  0  0  0  # atno 18243 bound_to 18203
  224.5122   38.4753   11.0565 H   0  0  0  0  0  0  0  0  0  0  0  0  # atno 18295 bound_to 18273
  225.0103   38.8219    8.9487 H   0  0  0  0  0  0  0  0  0  0  0  0  # atno 18299 bound_to 18278
  228.2715   36.3131   10.3879 H   0  0  0  0  0  0  0  0  0  0  0  0  # atno 18327 bound_to 18313
  231.7427   36.8248   11.3037 H   0  0  0  0  0  0  0  0  0  0  0  0  # atno 18409 bound_to 18361
  233.0054   34.6906    9.8629 H   0  0  0  0  0  0  0  0  0  0  0  0  # atno 18495 bound_to 18453
  229.5763   28.2086    8.1680 H   0  0  0  0  0  0  0  0  0  0  0  0  # atno 18503 bound_to 18464
  235.2885   33.0621   11.6325 H   0  0  0  0  0  0  0  0  0  0  0  0  # atno 18563 bound_to 18529
  237.5691   30.2267   11.4921 H   0  0  0  0  0  0  0  0  0  0  0  0  # atno 18603 bound_to 18589
  238.0977   28.0198   14.0863 H   0  0  0  0  0  0  0  0  0  0  0  0  # atno 18657 bound_to 18629
  236.6577   26.1404   12.6003 H   0  0  0  0  0  0  0  0  0  0  0  0  # atno 18713 bound_to 18683
  235.6522   26.8676    9.6443 H   0  0  0  0  0  0  0  0  0  0  0  0  # atno 18779 bound_to 18741
  237.0865   24.5133    9.4713 H   0  0  0  0  0  0  0  0  0  0  0  0  # atno 18823 bound_to 18809
  238.8400   22.4448    9.8233 H   0  0  0  0  0  0  0  0  0  0  0  0  # atno 18875 bound_to 18843
  236.1982   21.9792   12.5928 H   0  0  0  0  0  0  0  0  0  0  0  0  # atno 18963 bound_to 18915
  233.2633   22.4399   10.4360 H   0  0  0  0  0  0  0  0  0  0  0  0  # atno 19029 bound_to 19005
  235.1537   20.8811    8.4506 H   0  0  0  0  0  0  0  0  0  0  0  0  # atno 19103 bound_to 19061
  239.3438   34.5146    9.3339 H   0  0  0  0  0  0  0  0  0  0  0  0  # atno 22447 bound_to 22415
  226.5151   26.7761    5.9287 LP  0  0  0  0  0  0  0  0  0  0  0  0  # atno 27193 bound_to 16956
  227.4814   27.7564    6.8073 LP  0  0  0  0  0  0  0  0  0  0  0  0  # atno 27194 bound_to 16956
  230.3047   27.8105    6.7688 LP  0  0  0  0  0  0  0  0  0  0  0  0  # atno 27195 bound_to 18464
  229.3040   29.0993    6.8340 LP  0  0  0  0  0  0  0  0  0  0  0  0  # atno 27196 bound_to 18464
  234.8720   31.3941   11.3010 LP  0  0  0  0  0  0  0  0  0  0  0  0  # atno 27197 bound_to 18529
  235.5583   29.6255   10.6764 LP  0  0  0  0  0  0  0  0  0  0  0  0  # atno 27198 bound_to 18532
  236.4829   28.6203   11.7417 LP  0  0  0  0  0  0  0  0  0  0  0  0  # atno 27199 bound_to 18532
  237.0400   23.9778   12.8913 LP  0  0  0  0  0  0  0  0  0  0  0  0  # atno 27200 bound_to 18626
  236.1403   24.2031   11.4285 LP  0  0  0  0  0  0  0  0  0  0  0  0  # atno 27201 bound_to 18626
  236.3446   27.5859   11.6776 LP  0  0  0  0  0  0  0  0  0  0  0  0  # atno 27202 bound_to 18683
  232.8351   24.5625   10.4838 LP  0  0  0  0  0  0  0  0  0  0  0  0  # atno 27203 bound_to 18686
  234.2504   23.5837   10.6807 LP  0  0  0  0  0  0  0  0  0  0  0  0  # atno 27204 bound_to 18686
  234.8688   25.5045   10.4071 LP  0  0  0  0  0  0  0  0  0  0  0  0  # atno 27209 bound_to 18741
  236.0037   21.6504   10.8922 LP  0  0  0  0  0  0  0  0  0  0  0  0  # atno 27210 bound_to 18915
  234.1002   20.9214   10.2292 LP  0  0  0  0  0  0  0  0  0  0  0  0  # atno 27211 bound_to 19005
  226.3612   34.1994    9.9639 LP  0  0  0  0  0  0  0  0  0  0  0  0  # atno 27223 bound_to 17126
  227.6939   34.6955    8.9751 LP  0  0  0  0  0  0  0  0  0  0  0  0  # atno 27224 bound_to 17126
  226.5227   32.8020    8.5222 LP  0  0  0  0  0  0  0  0  0  0  0  0  # atno 27225 bound_to 17175
  224.4959   32.5881   10.9645 LP  0  0  0  0  0  0  0  0  0  0  0  0  # atno 27226 bound_to 17219
  224.7027   28.0859    5.4145 LP  0  0  0  0  0  0  0  0  0  0  0  0  # atno 27227 bound_to 11604
  225.8704   28.8580    4.3944 LP  0  0  0  0  0  0  0  0  0  0  0  0  # atno 27228 bound_to 11604
  226.7741   32.6692    4.4669 LP  0  0  0  0  0  0  0  0  0  0  0  0  # atno 27231 bound_to 17052
  227.0338   31.6365    5.8329 LP  0  0  0  0  0  0  0  0  0  0  0  0  # atno 27232 bound_to 17052
  235.6575   22.7161    7.0473 LP  0  0  0  0  0  0  0  0  0  0  0  0  # atno 27233 bound_to 18744
  235.8169   22.2426    8.7058 LP  0  0  0  0  0  0  0  0  0  0  0  0  # atno 27234 bound_to 18744
  238.8667   26.7499    8.9443 LP  0  0  0  0  0  0  0  0  0  0  0  0  # atno 27235 bound_to 18592
  237.4412   26.3468    9.8418 LP  0  0  0  0  0  0  0  0  0  0  0  0  # atno 27236 bound_to 18592
  237.1920   24.9651    7.7871 LP  0  0  0  0  0  0  0  0  0  0  0  0  # atno 27237 bound_to 18809
  234.0283   18.6890   10.6437 LP  0  0  0  0  0  0  0  0  0  0  0  0  # atno 27238 bound_to 18918
  232.4309   19.1866   10.1955 LP  0  0  0  0  0  0  0  0  0  0  0  0  # atno 27239 bound_to 18918
  233.1385   18.5705    6.9318 LP  0  0  0  0  0  0  0  0  0  0  0  0  # atno 27240 bound_to 19008
  231.7127   19.5401    7.0956 LP  0  0  0  0  0  0  0  0  0  0  0  0  # atno 27241 bound_to 19008
  233.7147   20.5532    7.5161 LP  0  0  0  0  0  0  0  0  0  0  0  0  # atno 27242 bound_to 19061
  222.5795   31.6774    7.7576 LP  0  0  0  0  0  0  0  0  0  0  0  0  # atno 27243 bound_to 17178
  221.6094   31.7560    9.1903 LP  0  0  0  0  0  0  0  0  0  0  0  0  # atno 27244 bound_to 17178
  232.8420   35.7109   11.8673 LP  0  0  0  0  0  0  0  0  0  0  0  0  # atno 27245 bound_to 18364
  232.8567   33.9872   11.6983 LP  0  0  0  0  0  0  0  0  0  0  0  0  # atno 27246 bound_to 18364
  233.8690   34.3787    8.3759 LP  0  0  0  0  0  0  0  0  0  0  0  0  # atno 27247 bound_to 18453
  221.6119   28.2503   11.1666 LP  0  0  0  0  0  0  0  0  0  0  0  0  # atno 27248 bound_to 11412
  220.1897   29.2053   10.9110 LP  0  0  0  0  0  0  0  0  0  0  0  0  # atno 27249 bound_to 11412
  224.7792   35.0122   11.0535 LP  0  0  0  0  0  0  0  0  0  0  0  0  # atno 27250 bound_to 18206
  223.0626   34.7890   11.1122 LP  0  0  0  0  0  0  0  0  0  0  0  0  # atno 27251 bound_to 18206
  220.7295   33.8224   10.8233 LP  0  0  0  0  0  0  0  0  0  0  0  0  # atno 27254 bound_to 17222
  221.1441   33.6387   12.4949 LP  0  0  0  0  0  0  0  0  0  0  0  0  # atno 27255 bound_to 17222
  223.9124   36.8376   11.0897 LP  0  0  0  0  0  0  0  0  0  0  0  0  # atno 27256 bound_to 18273
  227.3747   37.6422   11.0864 LP  0  0  0  0  0  0  0  0  0  0  0  0  # atno 27257 bound_to 18313
  230.6890   37.2699    9.9786 LP  0  0  0  0  0  0  0  0  0  0  0  0  # atno 27258 bound_to 18361
  230.9243   37.5735    8.0139 LP  0  0  0  0  0  0  0  0  0  0  0  0  # atno 27259 bound_to 18316
  229.3562   38.1716    8.4419 LP  0  0  0  0  0  0  0  0  0  0  0  0  # atno 27260 bound_to 18316
  236.9684   34.0397   11.0412 LP  0  0  0  0  0  0  0  0  0  0  0  0  # atno 27261 bound_to 18456
  236.3163   34.1518    9.4405 LP  0  0  0  0  0  0  0  0  0  0  0  0  # atno 27262 bound_to 18456
  233.0048   35.0739   18.7470 LP  0  0  0  0  0  0  0  0  0  0  0  0  # atno 27263 bound_to 7513
  227.5090   39.7316   10.4804 LP  0  0  0  0  0  0  0  0  0  0  0  0  # atno 27264 bound_to 18276
  226.2336   39.3777   11.5975 LP  0  0  0  0  0  0  0  0  0  0  0  0  # atno 27265 bound_to 18276
  232.6275   32.9971   19.6545 LP  0  0  0  0  0  0  0  0  0  0  0  0  # atno 27266 bound_to 7455
  231.1347   33.9688    5.7535 LP  0  0  0  0  0  0  0  0  0  0  0  0  # atno 27267 bound_to 17016
  232.5407   34.4076    4.8421 LP  0  0  0  0  0  0  0  0  0  0  0  0  # atno 27268 bound_to 17016
  238.9875   31.1168   10.9981 LP  0  0  0  0  0  0  0  0  0  0  0  0  # atno 27269 bound_to 18589
  229.5736   40.6292   12.6588 LP  0  0  0  0  0  0  0  0  0  0  0  0  # atno 27270 bound_to 10094
  230.2329   42.0851   12.9937 LP  0  0  0  0  0  0  0  0  0  0  0  0  # atno 27271 bound_to 10094
  224.9481   38.2128    7.4406 LP  0  0  0  0  0  0  0  0  0  0  0  0  # atno 27272 bound_to 18278
  226.3643   38.7529    8.0482 LP  0  0  0  0  0  0  0  0  0  0  0  0  # atno 27273 bound_to 18278
  220.0395   27.9457    8.6306 LP  0  0  0  0  0  0  0  0  0  0  0  0  # atno 27274 bound_to 11459
  232.5460   30.9176    3.7259 LP  0  0  0  0  0  0  0  0  0  0  0  0  # atno 27275 bound_to 16948
  231.2704   29.7494    3.8157 LP  0  0  0  0  0  0  0  0  0  0  0  0  # atno 27276 bound_to 16948

> <Gold.Score>
     Fitness  S(hb_ext) S(vdw_ext)  S(hb_int)    S(int)      intcor
     34.50       6.96      20.04       0.00      -0.00      -0.81

> <Gold.Goldscore.Fitness>
34.5035

> <Gold.Goldscore.Internal.Vdw>
-0.4229

> <Gold.Goldscore.Internal.Torsion>
-0.3942

> <Gold.Goldscore.External.Vdw>
20.0356

> <Gold.Goldscore.Internal.HBond>
0.0000

> <Gold.Goldscore.External.HBond>
6.9578

> <Gold.Goldscore.Internal.Correction>
-0.8139

> <Gold.Goldscore.Hbonds>
donor molecule, donor type, donor heavy atom, donor atom, acceptor molecule, acceptor atom, score
      P1  H 11466 11484       L1    11  0.28
      P1  H 17335 17361       L1    17  1.00
      L1  H     8    22       P1 26869  0.71
      L1  H    10    23       P1 11412  0.05

> <Gold.Goldscore.Internal.Vdw.Weighted>
-0.4229

> <Gold.Goldscore.Internal.Torsion.Weighted>
-0.3942

> <Gold.Goldscore.External.Vdw.Weighted>
27.5489

> <Gold.Goldscore.Internal.HBond.Weighted>
0.0000

> <Gold.Goldscore.External.HBond.Weighted>
6.9578

> <Gold.Goldscore.Internal.Correction.Weighted>
-0.8139

> <Gold.Rescore>
     Score     S(PLP)   S(hbond)     S(cho)   S(metal)  DE(clash)   DE(tors)     intcor
     31.67     -22.86       3.00       0.00       0.00       0.00       0.10       ----

> <Gold.PLP.Fitness>
31.6673

> <Gold.PLP.PLP>
-22.8646

> <Gold.PLP.part.hbond>
-3.7469

> <Gold.PLP.part.metal>
0.0000

> <Gold.PLP.part.buried>
-6.0219

> <Gold.PLP.part.nonpolar>
-16.5156

> <Gold.PLP.part.repulsive>
2.2886

> <Gold.PLP.ligand.clash>
0.0000

> <Gold.PLP.ligand.torsion>
0.0987

> <Gold.PLP.Chemscore.Hbond>
3.0000

> <Gold.PLP.Chemscore.CHOScore>
0.0000

> <Gold.PLP.Chemscore.Metal>
0.0000

> <Gold.Chemscore.Hbonds>
donor molecule, donor type, donor heavy atom, donor atom, acceptor molecule, acceptor atom, score
      L1  H     8    22       P1 26869  1.00
      P1  H 11466 11484       L1    11  0.65
      P1  H 17335 17361       L1    17  1.00

> <Gold.PLP.Chemscore.Internal.Correction>
   9.000000E+99

