#       Name:                CT1002167954
#       Creating user name   hitesit
#       Creation time:       Sun Apr 16 20:25:31 2023


#       File generated by GOLD software.
#

@<TRIPOS>MOLECULE
CT1002167954|ligand_prepared|mol2|1|dock4
    29    30     1
SMALL
NO_CHARGES


@<TRIPOS>ATOM
      1 C1         228.4398  32.1044  13.3636 C.3            1 RES1               0.0000
      2 C2         228.4441  30.7616  12.6049 C.ar           1 RES1               0.0000
      3 C3         229.8432  32.2770  13.9371 C.2            1 RES1               0.0000
      4 C4         228.0490  33.1690  12.3445 C.2            1 RES1               0.0000
      5 C5         227.4231  32.1612  14.5275 C.3            1 RES1               0.0000
      6 C6         229.4157  30.4930  11.6454 C.ar           1 RES1               0.0000
      7 C7         227.4863  29.7825  12.8549 C.ar           1 RES1               0.0000
      8 N8         230.6609  33.1920  13.3421 N.am           1 RES1               0.0000
      9 O9         230.2400  31.5925  14.8722 O.2            1 RES1               0.0000
     10 N10        228.9837  34.1148  12.0134 N.am           1 RES1               0.0000
     11 O11        226.9457  33.1875  11.8128 O.2            1 RES1               0.0000
     12 C12        227.5195  33.4269  15.3646 C.3            1 RES1               0.0000
     13 C13        229.4311  29.2880  10.9627 C.ar           1 RES1               0.0000
     14 C14        227.5034  28.5782  12.1709 C.ar           1 RES1               0.0000
     15 C15        230.2821  34.1564  12.4430 C.2            1 RES1               0.0000
     16 C16        228.4754  28.3297  11.2253 C.ar           1 RES1               0.0000
     17 O17        231.0788  35.0074  12.0580 O.2            1 RES1               0.0000
     18 H18        226.4095  32.0871  14.1148 H              1 RES1               0.0000
     19 H19        227.5840  31.2937  15.1794 H              1 RES1               0.0000
     20 H20        230.1745  31.2360  11.4236 H              1 RES1               0.0000
     21 H21        226.7115  29.9566  13.5938 H              1 RES1               0.0000
     22 H22        231.6449  33.1559  13.5883 H              1 RES1               0.0000
     23 H23        228.6837  34.8567  11.3889 H              1 RES1               0.0000
     24 H24        226.7847  33.4157  16.1669 H              1 RES1               0.0000
     25 H25        228.5073  33.5199  15.8111 H              1 RES1               0.0000
     26 H26        227.3398  34.3085  14.7528 H              1 RES1               0.0000
     27 H27        230.1974  29.0978  10.2185 H              1 RES1               0.0000
     28 H28        226.7489  27.8271  12.3803 H              1 RES1               0.0000
     29 H29        228.4879  27.3856  10.6906 H              1 RES1               0.0000
@<TRIPOS>BOND
    1    1    2 1     
    2    1    3 1     
    3    1    4 1     
    4    1    5 1     
    5    2    6 ar    
    6    2    7 ar    
    7    3    8 1     
    8    3    9 2     
    9    4   10 1     
   10    4   11 2     
   11    5   12 1     
   12    5   18 1     
   13    5   19 1     
   14    6   13 ar    
   15    6   20 1     
   16    7   14 ar    
   17    7   21 1     
   18    8   15 1     
   19    8   22 1     
   20   10   15 1     
   21   10   23 1     
   22   12   24 1     
   23   12   25 1     
   24   12   26 1     
   25   13   16 ar    
   26   13   27 1     
   27   14   16 ar    
   28   14   28 1     
   29   15   17 2     
   30   16   29 1     
@<TRIPOS>SUBSTRUCTURE
      1 RES1           1
@<TRIPOS>SET
DONOR_HYDROGENS      STATIC     ATOMS    <user>   **** ""
2 22 23
ATOM$RED        STATIC     ATOMS    COLORGROUP SYSTEM
2 22 23
@<TRIPOS>COMMENT
> <Gold.Version>
2022.3.0

> <Gold.Id.Protein>
unknown|4d1n_clean|pdb

> <Gold.Protein.RotatedTorsions>
[ 16995 16956 16955 16953 ] final -175.65 input   60.02 | X-H torsion
[ 18503 18464 18463 18461 ] final  171.98 input   59.99 | X-H torsion
[ 18563 18529 18530 18531 ] final  -29.39 input   85.91 | X-H torsion
[ 18713 18683 18684 18685 ] final -163.73 input  120.10 | X-H torsion
[ 18779 18741 18742 18743 ] final  116.38 input   94.66 | X-H torsion
[ 18963 18915 18916 18917 ] final -116.29 input   99.61 | X-H torsion
[ 19029 19005 19006 19007 ] final   19.56 input  120.28 | X-H torsion
[ 17195 17175 17176 17177 ] final -107.60 input   50.47 | X-H torsion
[ 17251 17219 17220 17221 ] final  -19.40 input  121.85 | X-H torsion
[ 18823 18809 18810 18811 ] final  141.18 input  109.66 | X-H torsion
[ 19103 19061 19062 19063 ] final  -88.55 input   93.64 | X-H torsion
[ 18495 18453 18454 18455 ] final  -71.43 input  105.49 | X-H torsion
[ 18295 18273 18274 18275 ] final   89.88 input   34.55 | X-H torsion
[ 18327 18313 18314 18315 ] final  -92.87 input   52.32 | X-H torsion
[ 18409 18361 18362 18363 ] final  -12.03 input   29.77 | X-H torsion
[ 7524 7513 7514 7515 ] final  -66.72 input   82.77 | X-H torsion
[ 7475 7455 7456 7457 ] final  -91.83 input   99.19 | X-H torsion
[ 18603 18589 18590 18591 ] final -179.08 input  124.64 | X-H torsion
[ 10105 10094 10093 10090 ] final   25.23 input   59.99 | X-H torsion
[ 18299 18278 18277 18274 ] final  147.72 input   60.00 | X-H torsion
[ 11477 11459 11460 11461 ] final  -65.63 input   48.11 | X-H torsion
[ 18657 18629 18627 18624 ] final  171.32 input   60.03 | X-H torsion
[ 11425 11414 11413 11410 ] final  139.19 input   60.02 | X-H torsion
[ 18875 18843 18844 18845 ] final -101.48 input   86.72 | X-H torsion
[ 17303 17281 17282 17283 ] final -173.05 input   51.85 | X-H torsion
[ 22447 22415 22416 22417 ] final   30.93 input   56.20 | X-H torsion
[ 18243 18203 18204 18205 ] final -153.50 input   41.90 | X-H torsion
[ 11805 11781 11782 11783 ] final  111.19 input   87.31 | X-H torsion
[ 16987 16945 16946 16947 ] final  136.38 input   84.34 | X-H torsion
[ 27198 18532 18531 18530 ] final  -22.60 input   -0.00 | X-H torsion
[ 27200 18626 18625 18624 ] final   63.27 input    0.00 | X-H torsion
[ 27203 18686 18685 18684 ] final    2.61 input   -0.00 | X-H torsion
[ 27223 17126 17125 17124 ] final -112.89 input    0.00 | X-H torsion
[ 27227 11604 11603 11602 ] final  -76.05 input    0.00 | X-H torsion
[ 27231 17052 17051 17050 ] final  143.18 input   -0.00 | X-H torsion
[ 27233 18744 18743 18742 ] final  -80.30 input   -0.00 | X-H torsion
[ 27235 18592 18591 18590 ] final  -83.01 input   -0.00 | X-H torsion
[ 27238 18918 18917 18916 ] final  -35.45 input    0.00 | X-H torsion
[ 27240 19008 19007 19006 ] final -171.69 input    0.00 | X-H torsion
[ 27243 17178 17177 17176 ] final   45.73 input    0.00 | X-H torsion
[ 27245 18364 18363 18362 ] final  -65.24 input    0.00 | X-H torsion
[ 27248 11412 11411 11410 ] final -129.64 input   -0.00 | X-H torsion
[ 27250 18206 18205 18204 ] final  -71.94 input   -0.00 | X-H torsion
[ 27254 17222 17221 17220 ] final  -14.27 input   -0.00 | X-H torsion
[ 27259 18316 18315 18314 ] final    7.97 input   -0.00 | X-H torsion
[ 27261 18456 18455 18454 ] final -177.65 input    0.00 | X-H torsion
[ 27264 18276 18275 18274 ] final  -67.30 input    0.00 | X-H torsion
[ 27267 17016 17015 17014 ] final  -11.77 input    0.00 | X-H torsion
[ 27275 16948 16947 16946 ] final -149.83 input   -0.00 | X-H torsion

> <Gold.Protein.ActiveResidues>
 TRP414  CYS420  VAL421  GLY422  LEU460  SER462  SER482  GLN483  ILE485  ARG486 
 TYR487  ASP500  ASN503  TRP566  TYR567  GLY568  LEU569  PRO570  ALA571  VAL572 
 SER573  ASN574  PHE589  SER590  GLY591  TRP592  TYR593  MET594  GLY595  THR596 
 GLU597  ILE598  GLY599  VAL600  ARG601  ASP602  TYR603  ARG608  ILE653  VAL654 
 TRP683  PRO687  HEM750  H4B760 

> <Gold.Protein.RotatedAtoms>
  232.0991   33.8709   21.0699 H   0  0  0  0  0  0  0  0  0  0  0  0  # atno 7475 bound_to 7455
  233.9389   35.8474   19.9916 H   0  0  0  0  0  0  0  0  0  0  0  0  # atno 7524 bound_to 7513
  230.1910   41.5636   11.4647 H   0  0  0  0  0  0  0  0  0  0  0  0  # atno 10105 bound_to 10094
  221.7368   24.4148    9.9134 H   0  0  0  0  0  0  0  0  0  0  0  0  # atno 11425 bound_to 11414
  220.0362   28.0224    8.6647 H   0  0  0  0  0  0  0  0  0  0  0  0  # atno 11477 bound_to 11459
  225.7411   24.0447    2.7522 H   0  0  0  0  0  0  0  0  0  0  0  0  # atno 11805 bound_to 11781
  230.7673   27.7306    1.4856 H   0  0  0  0  0  0  0  0  0  0  0  0  # atno 16987 bound_to 16945
  227.4056   26.1233    5.9026 H   0  0  0  0  0  0  0  0  0  0  0  0  # atno 16995 bound_to 16956
  226.5120   32.6677    8.6470 H   0  0  0  0  0  0  0  0  0  0  0  0  # atno 17195 bound_to 17175
  223.1824   32.8582    9.8987 H   0  0  0  0  0  0  0  0  0  0  0  0  # atno 17251 bound_to 17219
  221.1203   31.6578   10.6759 H   0  0  0  0  0  0  0  0  0  0  0  0  # atno 17303 bound_to 17281
  220.3891   36.6260   11.3905 H   0  0  0  0  0  0  0  0  0  0  0  0  # atno 18243 bound_to 18203
  224.0844   38.1681   10.3753 H   0  0  0  0  0  0  0  0  0  0  0  0  # atno 18295 bound_to 18273
  225.9312   38.3927    7.3767 H   0  0  0  0  0  0  0  0  0  0  0  0  # atno 18299 bound_to 18278
  227.5051   37.6555   10.2497 H   0  0  0  0  0  0  0  0  0  0  0  0  # atno 18327 bound_to 18313
  231.2480   36.3185   11.1334 H   0  0  0  0  0  0  0  0  0  0  0  0  # atno 18409 bound_to 18361
  233.2169   34.8021    9.9220 H   0  0  0  0  0  0  0  0  0  0  0  0  # atno 18495 bound_to 18453
  229.5840   28.8766    6.4841 H   0  0  0  0  0  0  0  0  0  0  0  0  # atno 18503 bound_to 18464
  235.2958   31.8468   10.6833 H   0  0  0  0  0  0  0  0  0  0  0  0  # atno 18563 bound_to 18529
  238.5481   31.2720   10.6508 H   0  0  0  0  0  0  0  0  0  0  0  0  # atno 18603 bound_to 18589
  238.2647   27.0150   15.5615 H   0  0  0  0  0  0  0  0  0  0  0  0  # atno 18657 bound_to 18629
  236.3397   27.0681   12.9735 H   0  0  0  0  0  0  0  0  0  0  0  0  # atno 18713 bound_to 18683
  235.5309   26.9121    9.6216 H   0  0  0  0  0  0  0  0  0  0  0  0  # atno 18779 bound_to 18741
  237.6961   25.3974    8.4198 H   0  0  0  0  0  0  0  0  0  0  0  0  # atno 18823 bound_to 18809
  238.6266   22.3388    9.6931 H   0  0  0  0  0  0  0  0  0  0  0  0  # atno 18875 bound_to 18843
  236.4978   21.1547   12.1547 H   0  0  0  0  0  0  0  0  0  0  0  0  # atno 18963 bound_to 18915
  234.4087   21.3286    9.9669 H   0  0  0  0  0  0  0  0  0  0  0  0  # atno 19029 bound_to 19005
  233.6744   20.3242    7.7331 H   0  0  0  0  0  0  0  0  0  0  0  0  # atno 19103 bound_to 19061
  238.4812   34.2145   10.0707 H   0  0  0  0  0  0  0  0  0  0  0  0  # atno 22447 bound_to 22415
  226.5463   27.4468    6.2992 LP  0  0  0  0  0  0  0  0  0  0  0  0  # atno 27193 bound_to 16956
  228.0973   27.2999    6.7884 LP  0  0  0  0  0  0  0  0  0  0  0  0  # atno 27194 bound_to 16956
  229.2984   28.6114    8.0637 LP  0  0  0  0  0  0  0  0  0  0  0  0  # atno 27195 bound_to 18464
  230.3026   27.6253    7.2356 LP  0  0  0  0  0  0  0  0  0  0  0  0  # atno 27196 bound_to 18464
  234.8650   32.5693   12.2189 LP  0  0  0  0  0  0  0  0  0  0  0  0  # atno 27197 bound_to 18529
  235.5902   29.4030   11.9064 LP  0  0  0  0  0  0  0  0  0  0  0  0  # atno 27198 bound_to 18532
  236.4510   28.8428   10.5117 LP  0  0  0  0  0  0  0  0  0  0  0  0  # atno 27199 bound_to 18532
  236.8810   24.0106   12.9717 LP  0  0  0  0  0  0  0  0  0  0  0  0  # atno 27200 bound_to 18626
  236.2992   24.1703   11.3481 LP  0  0  0  0  0  0  0  0  0  0  0  0  # atno 27201 bound_to 18626
  236.6598   26.6662   11.3077 LP  0  0  0  0  0  0  0  0  0  0  0  0  # atno 27202 bound_to 18683
  233.2894   24.2242   11.3965 LP  0  0  0  0  0  0  0  0  0  0  0  0  # atno 27203 bound_to 18686
  233.7962   23.9221    9.7680 LP  0  0  0  0  0  0  0  0  0  0  0  0  # atno 27204 bound_to 18686
  234.9874   25.4610   10.4294 LP  0  0  0  0  0  0  0  0  0  0  0  0  # atno 27209 bound_to 18741
  235.7064   22.4687   11.3269 LP  0  0  0  0  0  0  0  0  0  0  0  0  # atno 27210 bound_to 18915
  232.9746   22.0134   10.6902 LP  0  0  0  0  0  0  0  0  0  0  0  0  # atno 27211 bound_to 19005
  226.7242   34.0154   10.1560 LP  0  0  0  0  0  0  0  0  0  0  0  0  # atno 27223 bound_to 17126
  227.3309   34.8796    8.7830 LP  0  0  0  0  0  0  0  0  0  0  0  0  # atno 27224 bound_to 17126
  225.5529   31.8944    7.4153 LP  0  0  0  0  0  0  0  0  0  0  0  0  # atno 27225 bound_to 17175
  224.5857   32.2913   10.7810 LP  0  0  0  0  0  0  0  0  0  0  0  0  # atno 27226 bound_to 17219
  225.9162   28.7174    4.3628 LP  0  0  0  0  0  0  0  0  0  0  0  0  # atno 27227 bound_to 11604
  224.6569   28.2265    5.4460 LP  0  0  0  0  0  0  0  0  0  0  0  0  # atno 27228 bound_to 11604
  227.2081   31.5108    5.6451 LP  0  0  0  0  0  0  0  0  0  0  0  0  # atno 27231 bound_to 17052
  226.5998   32.7950    4.6548 LP  0  0  0  0  0  0  0  0  0  0  0  0  # atno 27232 bound_to 17052
  235.4293   22.3706    8.6787 LP  0  0  0  0  0  0  0  0  0  0  0  0  # atno 27233 bound_to 18744
  236.0450   22.5881    7.0744 LP  0  0  0  0  0  0  0  0  0  0  0  0  # atno 27234 bound_to 18744
  237.3244   26.7955    9.3655 LP  0  0  0  0  0  0  0  0  0  0  0  0  # atno 27235 bound_to 18592
  238.9835   26.3012    9.4206 LP  0  0  0  0  0  0  0  0  0  0  0  0  # atno 27236 bound_to 18592
  236.5955   24.0999    8.8160 LP  0  0  0  0  0  0  0  0  0  0  0  0  # atno 27237 bound_to 18809
  233.9433   18.6716   10.8316 LP  0  0  0  0  0  0  0  0  0  0  0  0  # atno 27238 bound_to 18918
  232.5159   19.2039   10.0076 LP  0  0  0  0  0  0  0  0  0  0  0  0  # atno 27239 bound_to 18918
  233.1562   18.6584    6.7717 LP  0  0  0  0  0  0  0  0  0  0  0  0  # atno 27240 bound_to 19008
  231.6950   19.4523    7.2557 LP  0  0  0  0  0  0  0  0  0  0  0  0  # atno 27241 bound_to 19008
  235.1631   21.0984    8.2185 LP  0  0  0  0  0  0  0  0  0  0  0  0  # atno 27242 bound_to 19061
  222.6407   31.4528    7.8559 LP  0  0  0  0  0  0  0  0  0  0  0  0  # atno 27243 bound_to 17178
  221.5483   31.9806    9.0920 LP  0  0  0  0  0  0  0  0  0  0  0  0  # atno 27244 bound_to 17178
  233.3544   35.5419   11.9051 LP  0  0  0  0  0  0  0  0  0  0  0  0  # atno 27245 bound_to 18364
  232.3444   34.1562   11.6606 LP  0  0  0  0  0  0  0  0  0  0  0  0  # atno 27246 bound_to 18364
  233.6623   34.2698    8.3182 LP  0  0  0  0  0  0  0  0  0  0  0  0  # atno 27247 bound_to 18453
  220.7738   29.4407   10.5638 LP  0  0  0  0  0  0  0  0  0  0  0  0  # atno 27248 bound_to 11412
  221.0278   28.0149   11.5139 LP  0  0  0  0  0  0  0  0  0  0  0  0  # atno 27249 bound_to 11412
  224.0117   34.8423   11.9421 LP  0  0  0  0  0  0  0  0  0  0  0  0  # atno 27250 bound_to 18206
  223.8302   34.9589   10.2235 LP  0  0  0  0  0  0  0  0  0  0  0  0  # atno 27251 bound_to 18206
  221.7243   33.8318   12.0050 LP  0  0  0  0  0  0  0  0  0  0  0  0  # atno 27254 bound_to 17222
  220.1494   33.6293   11.3132 LP  0  0  0  0  0  0  0  0  0  0  0  0  # atno 27255 bound_to 17222
  224.3351   37.1411   11.7628 LP  0  0  0  0  0  0  0  0  0  0  0  0  # atno 27256 bound_to 18273
  228.1198   36.3372   11.2208 LP  0  0  0  0  0  0  0  0  0  0  0  0  # atno 27257 bound_to 18313
  231.1677   37.7599   10.1434 LP  0  0  0  0  0  0  0  0  0  0  0  0  # atno 27258 bound_to 18361
  229.4740   38.3745    8.4605 LP  0  0  0  0  0  0  0  0  0  0  0  0  # atno 27259 bound_to 18316
  230.8066   37.3706    7.9952 LP  0  0  0  0  0  0  0  0  0  0  0  0  # atno 27260 bound_to 18316
  237.1398   33.7952   10.8829 LP  0  0  0  0  0  0  0  0  0  0  0  0  # atno 27261 bound_to 18456
  236.1449   34.3964    9.5988 LP  0  0  0  0  0  0  0  0  0  0  0  0  # atno 27262 bound_to 18456
  232.8482   35.1475   18.8184 LP  0  0  0  0  0  0  0  0  0  0  0  0  # atno 27263 bound_to 7513
  226.7037   39.6876   10.1998 LP  0  0  0  0  0  0  0  0  0  0  0  0  # atno 27264 bound_to 18276
  227.0390   39.4217   11.8781 LP  0  0  0  0  0  0  0  0  0  0  0  0  # atno 27265 bound_to 18276
  232.6093   33.0703   19.6024 LP  0  0  0  0  0  0  0  0  0  0  0  0  # atno 27266 bound_to 7455
  232.6060   33.9069    5.0138 LP  0  0  0  0  0  0  0  0  0  0  0  0  # atno 27267 bound_to 17016
  231.0695   34.4694    5.5818 LP  0  0  0  0  0  0  0  0  0  0  0  0  # atno 27268 bound_to 17016
  238.0257   30.0898   11.8246 LP  0  0  0  0  0  0  0  0  0  0  0  0  # atno 27269 bound_to 18589
  229.5731   40.6223   12.6387 LP  0  0  0  0  0  0  0  0  0  0  0  0  # atno 27270 bound_to 10094
  230.2249   42.0731   13.0092 LP  0  0  0  0  0  0  0  0  0  0  0  0  # atno 27271 bound_to 10094
  225.8700   38.9833    8.8921 LP  0  0  0  0  0  0  0  0  0  0  0  0  # atno 27272 bound_to 18278
  224.5154   38.4145    8.1793 LP  0  0  0  0  0  0  0  0  0  0  0  0  # atno 27273 bound_to 18278
  221.4721   27.0160    8.5649 LP  0  0  0  0  0  0  0  0  0  0  0  0  # atno 27274 bound_to 11459
  231.7043   31.1045    4.1085 LP  0  0  0  0  0  0  0  0  0  0  0  0  # atno 27275 bound_to 16948
  232.1121   29.5625    3.4331 LP  0  0  0  0  0  0  0  0  0  0  0  0  # atno 27276 bound_to 16948

> <Gold.Score>
     Fitness  S(hb_ext) S(vdw_ext)  S(hb_int)    S(int)      intcor
     36.86       2.82      24.81       0.00      -0.08      -0.76

> <Gold.Goldscore.Fitness>
36.8575

> <Gold.Goldscore.Internal.Vdw>
-0.4149

> <Gold.Goldscore.Internal.Torsion>
-0.4275

> <Gold.Goldscore.External.Vdw>
24.8147

> <Gold.Goldscore.Internal.HBond>
0.0000

> <Gold.Goldscore.External.HBond>
2.8212

> <Gold.Goldscore.Internal.Correction>
-0.7585

> <Gold.Goldscore.Hbonds>
donor molecule, donor type, donor heavy atom, donor atom, acceptor molecule, acceptor atom, score
      P1  H 18361 18409       L1    17  0.63
      L1  H    10    23       P1 18313  0.26

> <Gold.Goldscore.Internal.Vdw.Weighted>
-0.4149

> <Gold.Goldscore.Internal.Torsion.Weighted>
-0.4275

> <Gold.Goldscore.External.Vdw.Weighted>
34.1203

> <Gold.Goldscore.Internal.HBond.Weighted>
0.0000

> <Gold.Goldscore.External.HBond.Weighted>
2.8212

> <Gold.Goldscore.Internal.Correction.Weighted>
-0.7585

> <Gold.Rescore>
     Score     S(PLP)   S(hbond)     S(cho)   S(metal)  DE(clash)   DE(tors)     intcor
     28.58     -24.52       1.41       0.00       0.00       0.00       0.08       ----

> <Gold.PLP.Fitness>
28.5754

> <Gold.PLP.PLP>
-24.5183

> <Gold.PLP.part.hbond>
-4.0000

> <Gold.PLP.part.metal>
0.0000

> <Gold.PLP.part.buried>
13.8713

> <Gold.PLP.part.nonpolar>
-37.9239

> <Gold.PLP.part.repulsive>
0.8558

> <Gold.PLP.ligand.clash>
0.0000

> <Gold.PLP.ligand.torsion>
0.0835

> <Gold.PLP.Chemscore.Hbond>
1.4080

> <Gold.PLP.Chemscore.CHOScore>
0.0000

> <Gold.PLP.Chemscore.Metal>
0.0000

> <Gold.Chemscore.Hbonds>
donor molecule, donor type, donor heavy atom, donor atom, acceptor molecule, acceptor atom, score
      L1  H    10    23       P1 18313  0.02
      P1  H 18361 18409       L1    17  1.00

> <Gold.PLP.Chemscore.Internal.Correction>
   9.000000E+99

