#       Name:                CT1002167954
#       Creating user name   hitesit
#       Creation time:       Sun Apr 16 20:25:36 2023


#       File generated by GOLD software.
#

@<TRIPOS>MOLECULE
CT1002167954|ligand_prepared|mol2|1|dock10
    29    30     1
SMALL
NO_CHARGES


@<TRIPOS>ATOM
      1 C1         227.3388  25.0001  13.6405 C.3            1 RES1               0.0000
      2 C2         227.5023  26.5307  13.5443 C.ar           1 RES1               0.0000
      3 C3         228.1063  24.4122  12.4599 C.2            1 RES1               0.0000
      4 C4         227.8900  24.5970  15.0037 C.2            1 RES1               0.0000
      5 C5         225.8703  24.5222  13.5586 C.3            1 RES1               0.0000
      6 C6         228.2946  27.0977  12.5506 C.ar           1 RES1               0.0000
      7 C7         226.8661  27.3872  14.4389 C.ar           1 RES1               0.0000
      8 N8         229.2944  23.7963  12.7224 N.am           1 RES1               0.0000
      9 O9         227.6946  24.5221  11.3116 O.2            1 RES1               0.0000
     10 N10        229.0154  23.8158  15.0358 N.am           1 RES1               0.0000
     11 O11        227.3696  24.9626  16.0505 O.2            1 RES1               0.0000
     12 C12        225.7118  23.0119  13.6365 C.3            1 RES1               0.0000
     13 C13        228.4432  28.4712  12.4528 C.ar           1 RES1               0.0000
     14 C14        227.0162  28.7605  14.3394 C.ar           1 RES1               0.0000
     15 C15        229.7602  23.4227  13.9574 C.2            1 RES1               0.0000
     16 C16        227.8039  29.3035  13.3467 C.ar           1 RES1               0.0000
     17 O17        230.7914  22.7661  14.0703 O.2            1 RES1               0.0000
     18 H18        225.3039  24.9795  14.3792 H              1 RES1               0.0000
     19 H19        225.4364  24.8745  12.6146 H              1 RES1               0.0000
     20 H20        228.8075  26.4585  11.8396 H              1 RES1               0.0000
     21 H21        226.2424  26.9823  15.2286 H              1 RES1               0.0000
     22 H22        229.8919  23.5949  11.9269 H              1 RES1               0.0000
     23 H23        229.3266  23.4977  15.9481 H              1 RES1               0.0000
     24 H24        224.6626  22.7305  13.5744 H              1 RES1               0.0000
     25 H25        226.2419  22.5258  12.8201 H              1 RES1               0.0000
     26 H26        226.1101  22.6301  14.5742 H              1 RES1               0.0000
     27 H27        229.0653  28.8935  11.6705 H              1 RES1               0.0000
     28 H28        226.5117  29.4118  15.0455 H              1 RES1               0.0000
     29 H29        227.9201  30.3795  13.2696 H              1 RES1               0.0000
@<TRIPOS>BOND
    1    1    2 1     
    2    1    3 1     
    3    1    4 1     
    4    1    5 1     
    5    2    6 ar    
    6    2    7 ar    
    7    3    8 1     
    8    3    9 2     
    9    4   10 1     
   10    4   11 2     
   11    5   12 1     
   12    5   18 1     
   13    5   19 1     
   14    6   13 ar    
   15    6   20 1     
   16    7   14 ar    
   17    7   21 1     
   18    8   15 1     
   19    8   22 1     
   20   10   15 1     
   21   10   23 1     
   22   12   24 1     
   23   12   25 1     
   24   12   26 1     
   25   13   16 ar    
   26   13   27 1     
   27   14   16 ar    
   28   14   28 1     
   29   15   17 2     
   30   16   29 1     
@<TRIPOS>SUBSTRUCTURE
      1 RES1           1
@<TRIPOS>SET
DONOR_HYDROGENS      STATIC     ATOMS    <user>   **** ""
2 22 23
ATOM$RED        STATIC     ATOMS    COLORGROUP SYSTEM
2 22 23
@<TRIPOS>COMMENT
> <Gold.Version>
2022.3.0

> <Gold.Id.Protein>
unknown|4d1n_clean|pdb

> <Gold.Protein.RotatedTorsions>
[ 16995 16956 16955 16953 ] final  -75.38 input   60.02 | X-H torsion
[ 18503 18464 18463 18461 ] final  134.21 input   59.99 | X-H torsion
[ 18563 18529 18530 18531 ] final  138.67 input   85.91 | X-H torsion
[ 18713 18683 18684 18685 ] final  -66.14 input  120.10 | X-H torsion
[ 18779 18741 18742 18743 ] final  108.99 input   94.66 | X-H torsion
[ 18963 18915 18916 18917 ] final  -31.30 input   99.61 | X-H torsion
[ 19029 19005 19006 19007 ] final  -86.13 input  120.28 | X-H torsion
[ 17195 17175 17176 17177 ] final -164.70 input   50.47 | X-H torsion
[ 17251 17219 17220 17221 ] final -161.13 input  121.85 | X-H torsion
[ 18823 18809 18810 18811 ] final -130.80 input  109.66 | X-H torsion
[ 19103 19061 19062 19063 ] final  117.48 input   93.64 | X-H torsion
[ 18495 18453 18454 18455 ] final  135.16 input  105.49 | X-H torsion
[ 18295 18273 18274 18275 ] final  171.13 input   34.55 | X-H torsion
[ 18327 18313 18314 18315 ] final -133.04 input   52.32 | X-H torsion
[ 18409 18361 18362 18363 ] final -106.43 input   29.77 | X-H torsion
[ 7524 7513 7514 7515 ] final   97.00 input   82.77 | X-H torsion
[ 7475 7455 7456 7457 ] final   65.68 input   99.19 | X-H torsion
[ 18603 18589 18590 18591 ] final  178.45 input  124.64 | X-H torsion
[ 10105 10094 10093 10090 ] final   -1.52 input   59.99 | X-H torsion
[ 18299 18278 18277 18274 ] final  -51.05 input   60.00 | X-H torsion
[ 11477 11459 11460 11461 ] final -161.46 input   48.11 | X-H torsion
[ 18657 18629 18627 18624 ] final  -89.17 input   60.03 | X-H torsion
[ 11425 11414 11413 11410 ] final   90.27 input   60.02 | X-H torsion
[ 18875 18843 18844 18845 ] final  147.31 input   86.72 | X-H torsion
[ 17303 17281 17282 17283 ] final  160.11 input   51.85 | X-H torsion
[ 22447 22415 22416 22417 ] final   22.30 input   56.20 | X-H torsion
[ 18243 18203 18204 18205 ] final  114.81 input   41.90 | X-H torsion
[ 11805 11781 11782 11783 ] final -178.43 input   87.31 | X-H torsion
[ 16987 16945 16946 16947 ] final   31.97 input   84.34 | X-H torsion
[ 27198 18532 18531 18530 ] final   81.48 input   -0.00 | X-H torsion
[ 27200 18626 18625 18624 ] final  143.29 input    0.00 | X-H torsion
[ 27203 18686 18685 18684 ] final  -91.81 input   -0.00 | X-H torsion
[ 27223 17126 17125 17124 ] final  -53.87 input    0.00 | X-H torsion
[ 27227 11604 11603 11602 ] final   76.02 input    0.00 | X-H torsion
[ 27231 17052 17051 17050 ] final   98.10 input   -0.00 | X-H torsion
[ 27233 18744 18743 18742 ] final -104.18 input   -0.00 | X-H torsion
[ 27235 18592 18591 18590 ] final   50.46 input   -0.00 | X-H torsion
[ 27238 18918 18917 18916 ] final -106.99 input    0.00 | X-H torsion
[ 27240 19008 19007 19006 ] final   83.74 input    0.00 | X-H torsion
[ 27243 17178 17177 17176 ] final  108.82 input    0.00 | X-H torsion
[ 27245 18364 18363 18362 ] final -135.41 input    0.00 | X-H torsion
[ 27248 11412 11411 11410 ] final  105.54 input   -0.00 | X-H torsion
[ 27250 18206 18205 18204 ] final -131.69 input   -0.00 | X-H torsion
[ 27254 17222 17221 17220 ] final -177.86 input   -0.00 | X-H torsion
[ 27259 18316 18315 18314 ] final  121.29 input   -0.00 | X-H torsion
[ 27261 18456 18455 18454 ] final  -99.55 input    0.00 | X-H torsion
[ 27264 18276 18275 18274 ] final -132.89 input    0.00 | X-H torsion
[ 27267 17016 17015 17014 ] final  -88.29 input    0.00 | X-H torsion
[ 27275 16948 16947 16946 ] final -117.98 input   -0.00 | X-H torsion

> <Gold.Protein.ActiveResidues>
 TRP414  CYS420  VAL421  GLY422  LEU460  SER462  SER482  GLN483  ILE485  ARG486 
 TYR487  ASP500  ASN503  TRP566  TYR567  GLY568  LEU569  PRO570  ALA571  VAL572 
 SER573  ASN574  PHE589  SER590  GLY591  TRP592  TYR593  MET594  GLY595  THR596 
 GLU597  ILE598  GLY599  VAL600  ARG601  ASP602  TYR603  ARG608  ILE653  VAL654 
 TRP683  PRO687  HEM750  H4B760 

> <Gold.Protein.RotatedAtoms>
  232.5288   33.3722   19.4648 H   0  0  0  0  0  0  0  0  0  0  0  0  # atno 7475 bound_to 7455
  232.6653   35.2692   18.9353 H   0  0  0  0  0  0  0  0  0  0  0  0  # atno 7524 bound_to 7513
  230.0020   41.1742   11.4659 H   0  0  0  0  0  0  0  0  0  0  0  0  # atno 10105 bound_to 10094
  221.8630   25.1269    9.6335 H   0  0  0  0  0  0  0  0  0  0  0  0  # atno 11425 bound_to 11414
  221.0564   27.6691    9.4531 H   0  0  0  0  0  0  0  0  0  0  0  0  # atno 11477 bound_to 11459
  225.4973   24.7702    2.0603 H   0  0  0  0  0  0  0  0  0  0  0  0  # atno 11805 bound_to 11781
  231.6344   28.3171    2.4090 H   0  0  0  0  0  0  0  0  0  0  0  0  # atno 16987 bound_to 16945
  228.2152   27.0206    6.6794 H   0  0  0  0  0  0  0  0  0  0  0  0  # atno 16995 bound_to 16956
  226.4706   33.0220    7.8930 H   0  0  0  0  0  0  0  0  0  0  0  0  # atno 17195 bound_to 17175
  224.4902   31.9025   10.3672 H   0  0  0  0  0  0  0  0  0  0  0  0  # atno 17251 bound_to 17219
  221.0769   31.3444   10.4168 H   0  0  0  0  0  0  0  0  0  0  0  0  # atno 17303 bound_to 17281
  220.8525   35.7682   12.2023 H   0  0  0  0  0  0  0  0  0  0  0  0  # atno 18243 bound_to 18203
  223.7597   37.0903   10.5714 H   0  0  0  0  0  0  0  0  0  0  0  0  # atno 18295 bound_to 18273
  224.7254   38.6817    8.7470 H   0  0  0  0  0  0  0  0  0  0  0  0  # atno 18299 bound_to 18278
  227.3664   37.7452   10.8359 H   0  0  0  0  0  0  0  0  0  0  0  0  # atno 18327 bound_to 18313
  230.5350   36.7526   10.1300 H   0  0  0  0  0  0  0  0  0  0  0  0  # atno 18409 bound_to 18361
  233.2881   34.1239    8.3422 H   0  0  0  0  0  0  0  0  0  0  0  0  # atno 18495 bound_to 18453
  229.2619   29.1173    6.9372 H   0  0  0  0  0  0  0  0  0  0  0  0  # atno 18503 bound_to 18464
  234.8064   32.4082   12.2896 H   0  0  0  0  0  0  0  0  0  0  0  0  # atno 18563 bound_to 18529
  238.5828   31.2705   10.6660 H   0  0  0  0  0  0  0  0  0  0  0  0  # atno 18603 bound_to 18589
  238.6344   28.0079   14.6016 H   0  0  0  0  0  0  0  0  0  0  0  0  # atno 18657 bound_to 18629
  236.7339   26.0320   12.2622 H   0  0  0  0  0  0  0  0  0  0  0  0  # atno 18713 bound_to 18683
  235.6365   26.8744    9.6408 H   0  0  0  0  0  0  0  0  0  0  0  0  # atno 18779 bound_to 18741
  236.9426   24.6878    7.7611 H   0  0  0  0  0  0  0  0  0  0  0  0  # atno 18823 bound_to 18809
  238.7573   23.3326   10.7566 H   0  0  0  0  0  0  0  0  0  0  0  0  # atno 18875 bound_to 18843
  236.2022   21.3226   11.0228 H   0  0  0  0  0  0  0  0  0  0  0  0  # atno 18963 bound_to 18915
  233.2700   21.0014   10.7198 H   0  0  0  0  0  0  0  0  0  0  0  0  # atno 19029 bound_to 19005
  235.0750   21.3088    7.8975 H   0  0  0  0  0  0  0  0  0  0  0  0  # atno 19103 bound_to 19061
  238.5788   34.1639    9.9957 H   0  0  0  0  0  0  0  0  0  0  0  0  # atno 22447 bound_to 22415
  227.0996   26.1941    5.8311 LP  0  0  0  0  0  0  0  0  0  0  0  0  # atno 27193 bound_to 16956
  226.7283   27.6486    6.4739 LP  0  0  0  0  0  0  0  0  0  0  0  0  # atno 27194 bound_to 16956
  229.6434   28.1180    8.1631 LP  0  0  0  0  0  0  0  0  0  0  0  0  # atno 27195 bound_to 18464
  230.2820   27.8763    6.6797 LP  0  0  0  0  0  0  0  0  0  0  0  0  # atno 27196 bound_to 18464
  235.3382   32.0264   10.6656 LP  0  0  0  0  0  0  0  0  0  0  0  0  # atno 27197 bound_to 18529
  235.6589   29.5542   10.5509 LP  0  0  0  0  0  0  0  0  0  0  0  0  # atno 27198 bound_to 18532
  236.3823   28.6917   11.8672 LP  0  0  0  0  0  0  0  0  0  0  0  0  # atno 27199 bound_to 18532
  235.8577   24.2401   12.5972 LP  0  0  0  0  0  0  0  0  0  0  0  0  # atno 27200 bound_to 18626
  237.3225   23.9408   11.7226 LP  0  0  0  0  0  0  0  0  0  0  0  0  # atno 27201 bound_to 18626
  236.2690   27.6934   12.0128 LP  0  0  0  0  0  0  0  0  0  0  0  0  # atno 27202 bound_to 18683
  234.2275   23.5957   10.8129 LP  0  0  0  0  0  0  0  0  0  0  0  0  # atno 27203 bound_to 18686
  232.8580   24.5505   10.3516 LP  0  0  0  0  0  0  0  0  0  0  0  0  # atno 27204 bound_to 18686
  234.8842   25.4979   10.4106 LP  0  0  0  0  0  0  0  0  0  0  0  0  # atno 27209 bound_to 18741
  235.9997   22.3021   12.4503 LP  0  0  0  0  0  0  0  0  0  0  0  0  # atno 27210 bound_to 18915
  234.0936   22.3350    9.9503 LP  0  0  0  0  0  0  0  0  0  0  0  0  # atno 27211 bound_to 19005
  227.5616   34.0104    9.9927 LP  0  0  0  0  0  0  0  0  0  0  0  0  # atno 27223 bound_to 17126
  226.4935   34.8846    8.9464 LP  0  0  0  0  0  0  0  0  0  0  0  0  # atno 27224 bound_to 17126
  225.5942   31.5414    8.1664 LP  0  0  0  0  0  0  0  0  0  0  0  0  # atno 27225 bound_to 17175
  223.3266   33.2114   10.3299 LP  0  0  0  0  0  0  0  0  0  0  0  0  # atno 27226 bound_to 17219
  224.6328   28.6439    5.4457 LP  0  0  0  0  0  0  0  0  0  0  0  0  # atno 27227 bound_to 11604
  225.9404   28.2999    4.3632 LP  0  0  0  0  0  0  0  0  0  0  0  0  # atno 27228 bound_to 11604
  227.4623   31.5015    5.0319 LP  0  0  0  0  0  0  0  0  0  0  0  0  # atno 27231 bound_to 17052
  226.3456   32.8042    5.2680 LP  0  0  0  0  0  0  0  0  0  0  0  0  # atno 27232 bound_to 17052
  235.7672   22.2563    8.7128 LP  0  0  0  0  0  0  0  0  0  0  0  0  # atno 27233 bound_to 18744
  235.7071   22.7024    7.0403 LP  0  0  0  0  0  0  0  0  0  0  0  0  # atno 27234 bound_to 18744
  238.8553   26.7632    8.9327 LP  0  0  0  0  0  0  0  0  0  0  0  0  # atno 27235 bound_to 18592
  237.4525   26.3336    9.8534 LP  0  0  0  0  0  0  0  0  0  0  0  0  # atno 27236 bound_to 18592
  237.3328   24.7943    9.4606 LP  0  0  0  0  0  0  0  0  0  0  0  0  # atno 27237 bound_to 18809
  233.8767   18.8926    9.8458 LP  0  0  0  0  0  0  0  0  0  0  0  0  # atno 27238 bound_to 18918
  232.5825   18.9829   10.9934 LP  0  0  0  0  0  0  0  0  0  0  0  0  # atno 27239 bound_to 18918
  232.2478   19.5996    6.3639 LP  0  0  0  0  0  0  0  0  0  0  0  0  # atno 27240 bound_to 19008
  232.6034   18.5111    7.6635 LP  0  0  0  0  0  0  0  0  0  0  0  0  # atno 27241 bound_to 19008
  233.7917   20.1345    8.0576 LP  0  0  0  0  0  0  0  0  0  0  0  0  # atno 27242 bound_to 19061
  222.4588   30.9381    8.5791 LP  0  0  0  0  0  0  0  0  0  0  0  0  # atno 27243 bound_to 17178
  221.7301   32.4953    8.3688 LP  0  0  0  0  0  0  0  0  0  0  0  0  # atno 27244 bound_to 17178
  233.6770   34.6019   11.8464 LP  0  0  0  0  0  0  0  0  0  0  0  0  # atno 27245 bound_to 18364
  232.0218   35.0962   11.7192 LP  0  0  0  0  0  0  0  0  0  0  0  0  # atno 27246 bound_to 18364
  233.5928   34.9323    9.8614 LP  0  0  0  0  0  0  0  0  0  0  0  0  # atno 27247 bound_to 18453
  221.6556   28.3095   11.1107 LP  0  0  0  0  0  0  0  0  0  0  0  0  # atno 27248 bound_to 11412
  220.1459   29.1462   10.9669 LP  0  0  0  0  0  0  0  0  0  0  0  0  # atno 27249 bound_to 11412
  224.7046   34.9709   11.4445 LP  0  0  0  0  0  0  0  0  0  0  0  0  # atno 27250 bound_to 18206
  223.1372   34.8303   10.7211 LP  0  0  0  0  0  0  0  0  0  0  0  0  # atno 27251 bound_to 18206
  220.0912   33.5803   11.5483 LP  0  0  0  0  0  0  0  0  0  0  0  0  # atno 27254 bound_to 17222
  221.7825   33.8808   11.7699 LP  0  0  0  0  0  0  0  0  0  0  0  0  # atno 27255 bound_to 17222
  224.6559   38.2059   11.5690 LP  0  0  0  0  0  0  0  0  0  0  0  0  # atno 27256 bound_to 18273
  228.2547   36.2500   10.6509 LP  0  0  0  0  0  0  0  0  0  0  0  0  # atno 27257 bound_to 18313
  231.8579   37.3398   11.1146 LP  0  0  0  0  0  0  0  0  0  0  0  0  # atno 27258 bound_to 18361
  230.8897   38.3027    8.1700 LP  0  0  0  0  0  0  0  0  0  0  0  0  # atno 27259 bound_to 18316
  229.3908   37.4425    8.2857 LP  0  0  0  0  0  0  0  0  0  0  0  0  # atno 27260 bound_to 18316
  237.0861   33.4671    9.8435 LP  0  0  0  0  0  0  0  0  0  0  0  0  # atno 27261 bound_to 18456
  236.1986   34.7244   10.6381 LP  0  0  0  0  0  0  0  0  0  0  0  0  # atno 27262 bound_to 18456
  234.0894   35.7111   19.8479 LP  0  0  0  0  0  0  0  0  0  0  0  0  # atno 27263 bound_to 7513
  227.5704   39.7249   10.5569 LP  0  0  0  0  0  0  0  0  0  0  0  0  # atno 27264 bound_to 18276
  226.1723   39.3844   11.5210 LP  0  0  0  0  0  0  0  0  0  0  0  0  # atno 27265 bound_to 18276
  232.1898   33.5572   21.1694 LP  0  0  0  0  0  0  0  0  0  0  0  0  # atno 27266 bound_to 7455
  231.8834   33.3801    5.6059 LP  0  0  0  0  0  0  0  0  0  0  0  0  # atno 27267 bound_to 17016
  231.7921   34.9963    4.9896 LP  0  0  0  0  0  0  0  0  0  0  0  0  # atno 27268 bound_to 17016
  237.9915   30.0913   11.8096 LP  0  0  0  0  0  0  0  0  0  0  0  0  # atno 27269 bound_to 18589
  229.6264   40.8401   13.0129 LP  0  0  0  0  0  0  0  0  0  0  0  0  # atno 27270 bound_to 10094
  230.3621   42.2478   12.6338 LP  0  0  0  0  0  0  0  0  0  0  0  0  # atno 27271 bound_to 10094
  225.2961   38.2273    7.2921 LP  0  0  0  0  0  0  0  0  0  0  0  0  # atno 27272 bound_to 18278
  226.3032   38.8795    8.3998 LP  0  0  0  0  0  0  0  0  0  0  0  0  # atno 27273 bound_to 18278
  220.5038   27.3513    7.8166 LP  0  0  0  0  0  0  0  0  0  0  0  0  # atno 27274 bound_to 11459
  231.3187   30.8322    4.1629 LP  0  0  0  0  0  0  0  0  0  0  0  0  # atno 27275 bound_to 16948
  232.4977   29.8348    3.3787 LP  0  0  0  0  0  0  0  0  0  0  0  0  # atno 27276 bound_to 16948

> <Gold.Score>
     Fitness  S(hb_ext) S(vdw_ext)  S(hb_int)    S(int)      intcor
     31.71       9.09      18.81       0.00      -3.25      -0.75

> <Gold.Goldscore.Fitness>
31.7070

> <Gold.Goldscore.Internal.Vdw>
-3.6352

> <Gold.Goldscore.Internal.Torsion>
-0.3681

> <Gold.Goldscore.External.Vdw>
18.8129

> <Gold.Goldscore.Internal.HBond>
0.0000

> <Gold.Goldscore.External.HBond>
9.0881

> <Gold.Goldscore.Internal.Correction>
-0.7546

> <Gold.Goldscore.Hbonds>
donor molecule, donor type, donor heavy atom, donor atom, acceptor molecule, acceptor atom, score
      L1  H     8    22       P1 19011  0.52
      L1  H    10    23       P1 27105  1.00

> <Gold.Goldscore.Internal.Vdw.Weighted>
-3.6352

> <Gold.Goldscore.Internal.Torsion.Weighted>
-0.3681

> <Gold.Goldscore.External.Vdw.Weighted>
25.8677

> <Gold.Goldscore.Internal.HBond.Weighted>
0.0000

> <Gold.Goldscore.External.HBond.Weighted>
9.0881

> <Gold.Goldscore.Internal.Correction.Weighted>
-0.7546

> <Gold.Rescore>
     Score     S(PLP)   S(hbond)     S(cho)   S(metal)  DE(clash)   DE(tors)     intcor
     17.52     -16.07       1.23       0.00       0.00       2.04       0.10       ----

> <Gold.PLP.Fitness>
17.5246

> <Gold.PLP.PLP>
-16.0674

> <Gold.PLP.part.hbond>
-3.3153

> <Gold.PLP.part.metal>
0.0000

> <Gold.PLP.part.buried>
0.7251

> <Gold.PLP.part.nonpolar>
-15.7263

> <Gold.PLP.part.repulsive>
0.9667

> <Gold.PLP.ligand.clash>
2.0401

> <Gold.PLP.ligand.torsion>
0.0965

> <Gold.PLP.Chemscore.Hbond>
1.2301

> <Gold.PLP.Chemscore.CHOScore>
0.0000

> <Gold.PLP.Chemscore.Metal>
0.0000

> <Gold.Chemscore.Hbonds>
donor molecule, donor type, donor heavy atom, donor atom, acceptor molecule, acceptor atom, score
      L1  H    10    23       P1 27105  0.65

> <Gold.PLP.Chemscore.Internal.Correction>
   9.000000E+99

