#       Name:                CT1002167954
#       Creating user name   hitesit
#       Creation time:       Sun Apr 16 20:25:34 2023


#       File generated by GOLD software.
#

@<TRIPOS>MOLECULE
CT1002167954|ligand_prepared|mol2|1|dock7
    29    30     1
SMALL
NO_CHARGES


@<TRIPOS>ATOM
      1 C1         227.1219  25.0082  13.5044 C.3            1 RES1               0.0000
      2 C2         227.2973  26.5393  13.4423 C.ar           1 RES1               0.0000
      3 C3         227.9387  24.4362  12.3494 C.2            1 RES1               0.0000
      4 C4         227.6093  24.5786  14.8837 C.2            1 RES1               0.0000
      5 C5         225.6562  24.5404  13.3485 C.3            1 RES1               0.0000
      6 C6         226.5947  27.3688  14.3112 C.ar           1 RES1               0.0000
      7 C7         228.1584  27.1356  12.5250 C.ar           1 RES1               0.0000
      8 N8         229.1107  23.8090  12.6541 N.am           1 RES1               0.0000
      9 O9         227.5795  24.5682  11.1858 O.2            1 RES1               0.0000
     10 N10        228.7282  23.7904  14.9526 N.am           1 RES1               0.0000
     11 O11        227.0443  24.9292  15.9123 O.2            1 RES1               0.0000
     12 C12        225.4933  23.0286  13.3349 C.3            1 RES1               0.0000
     13 C13        226.7495  28.7444  14.2667 C.ar           1 RES1               0.0000
     14 C14        228.3117  28.5115  12.4821 C.ar           1 RES1               0.0000
     15 C15        229.5187  23.4116  13.9020 C.2            1 RES1               0.0000
     16 C16        227.6083  29.3167  13.3526 C.ar           1 RES1               0.0000
     17 O17        230.5404  22.7472  14.0495 O.2            1 RES1               0.0000
     18 H18        225.0644  24.9519  14.1754 H              1 RES1               0.0000
     19 H19        225.2532  24.9473  12.4128 H              1 RES1               0.0000
     20 H20        225.9125  26.9367  15.0357 H              1 RES1               0.0000
     21 H21        228.7211  26.5219  11.8297 H              1 RES1               0.0000
     22 H22        229.7422  23.6178  11.8828 H              1 RES1               0.0000
     23 H23        228.9965  23.4550  15.8723 H              1 RES1               0.0000
     24 H24        224.4463  22.7545  13.2233 H              1 RES1               0.0000
     25 H25        226.0487  22.5882  12.5094 H              1 RES1               0.0000
     26 H26        225.8609  22.5927  14.2615 H              1 RES1               0.0000
     27 H27        226.1927  29.3738  14.9531 H              1 RES1               0.0000
     28 H28        228.9882  28.9576  11.7606 H              1 RES1               0.0000
     29 H29        227.7298  30.3943  13.3182 H              1 RES1               0.0000
@<TRIPOS>BOND
    1    1    2 1     
    2    1    3 1     
    3    1    4 1     
    4    1    5 1     
    5    2    6 ar    
    6    2    7 ar    
    7    3    8 1     
    8    3    9 2     
    9    4   10 1     
   10    4   11 2     
   11    5   12 1     
   12    5   18 1     
   13    5   19 1     
   14    6   13 ar    
   15    6   20 1     
   16    7   14 ar    
   17    7   21 1     
   18    8   15 1     
   19    8   22 1     
   20   10   15 1     
   21   10   23 1     
   22   12   24 1     
   23   12   25 1     
   24   12   26 1     
   25   13   16 ar    
   26   13   27 1     
   27   14   16 ar    
   28   14   28 1     
   29   15   17 2     
   30   16   29 1     
@<TRIPOS>SUBSTRUCTURE
      1 RES1           1
@<TRIPOS>SET
DONOR_HYDROGENS      STATIC     ATOMS    <user>   **** ""
2 22 23
ATOM$RED        STATIC     ATOMS    COLORGROUP SYSTEM
2 22 23
@<TRIPOS>COMMENT
> <Gold.Version>
2022.3.0

> <Gold.Id.Protein>
unknown|4d1n_clean|pdb

> <Gold.Protein.RotatedTorsions>
[ 16995 16956 16955 16953 ] final  -23.60 input   60.02 | X-H torsion
[ 18503 18464 18463 18461 ] final  -59.63 input   59.99 | X-H torsion
[ 18563 18529 18530 18531 ] final -177.09 input   85.91 | X-H torsion
[ 18713 18683 18684 18685 ] final -136.64 input  120.10 | X-H torsion
[ 18779 18741 18742 18743 ] final   82.01 input   94.66 | X-H torsion
[ 18963 18915 18916 18917 ] final  -34.05 input   99.61 | X-H torsion
[ 19029 19005 19006 19007 ] final  166.94 input  120.28 | X-H torsion
[ 17195 17175 17176 17177 ] final -148.79 input   50.47 | X-H torsion
[ 17251 17219 17220 17221 ] final -116.37 input  121.85 | X-H torsion
[ 18823 18809 18810 18811 ] final  136.25 input  109.66 | X-H torsion
[ 19103 19061 19062 19063 ] final  -62.46 input   93.64 | X-H torsion
[ 18495 18453 18454 18455 ] final   -2.18 input  105.49 | X-H torsion
[ 18295 18273 18274 18275 ] final   -2.32 input   34.55 | X-H torsion
[ 18327 18313 18314 18315 ] final  148.24 input   52.32 | X-H torsion
[ 18409 18361 18362 18363 ] final  -99.12 input   29.77 | X-H torsion
[ 7524 7513 7514 7515 ] final  142.09 input   82.77 | X-H torsion
[ 7475 7455 7456 7457 ] final   45.40 input   99.19 | X-H torsion
[ 18603 18589 18590 18591 ] final   44.88 input  124.64 | X-H torsion
[ 10105 10094 10093 10090 ] final  118.36 input   59.99 | X-H torsion
[ 18299 18278 18277 18274 ] final -110.56 input   60.00 | X-H torsion
[ 11477 11459 11460 11461 ] final   16.94 input   48.11 | X-H torsion
[ 18657 18629 18627 18624 ] final   18.00 input   60.03 | X-H torsion
[ 11425 11414 11413 11410 ] final  121.48 input   60.02 | X-H torsion
[ 18875 18843 18844 18845 ] final -115.60 input   86.72 | X-H torsion
[ 17303 17281 17282 17283 ] final  144.39 input   51.85 | X-H torsion
[ 22447 22415 22416 22417 ] final -160.64 input   56.20 | X-H torsion
[ 18243 18203 18204 18205 ] final   55.60 input   41.90 | X-H torsion
[ 11805 11781 11782 11783 ] final   17.97 input   87.31 | X-H torsion
[ 16987 16945 16946 16947 ] final    1.82 input   84.34 | X-H torsion
[ 27198 18532 18531 18530 ] final  -30.07 input   -0.00 | X-H torsion
[ 27200 18626 18625 18624 ] final -128.37 input    0.00 | X-H torsion
[ 27203 18686 18685 18684 ] final  -37.37 input   -0.00 | X-H torsion
[ 27223 17126 17125 17124 ] final -135.58 input    0.00 | X-H torsion
[ 27227 11604 11603 11602 ] final  165.83 input    0.00 | X-H torsion
[ 27231 17052 17051 17050 ] final  -22.71 input   -0.00 | X-H torsion
[ 27233 18744 18743 18742 ] final   83.85 input   -0.00 | X-H torsion
[ 27235 18592 18591 18590 ] final  142.64 input   -0.00 | X-H torsion
[ 27238 18918 18917 18916 ] final   12.17 input    0.00 | X-H torsion
[ 27240 19008 19007 19006 ] final   75.38 input    0.00 | X-H torsion
[ 27243 17178 17177 17176 ] final -127.44 input    0.00 | X-H torsion
[ 27245 18364 18363 18362 ] final  129.97 input    0.00 | X-H torsion
[ 27248 11412 11411 11410 ] final  175.17 input   -0.00 | X-H torsion
[ 27250 18206 18205 18204 ] final -104.74 input   -0.00 | X-H torsion
[ 27254 17222 17221 17220 ] final  118.92 input   -0.00 | X-H torsion
[ 27259 18316 18315 18314 ] final  107.87 input   -0.00 | X-H torsion
[ 27261 18456 18455 18454 ] final   83.05 input    0.00 | X-H torsion
[ 27264 18276 18275 18274 ] final -116.12 input    0.00 | X-H torsion
[ 27267 17016 17015 17014 ] final -178.48 input    0.00 | X-H torsion
[ 27275 16948 16947 16946 ] final  -20.20 input   -0.00 | X-H torsion

> <Gold.Protein.ActiveResidues>
 TRP414  CYS420  VAL421  GLY422  LEU460  SER462  SER482  GLN483  ILE485  ARG486 
 TYR487  ASP500  ASN503  TRP566  TYR567  GLY568  LEU569  PRO570  ALA571  VAL572 
 SER573  ASN574  PHE589  SER590  GLY591  TRP592  TYR593  MET594  GLY595  THR596 
 GLU597  ILE598  GLY599  VAL600  ARG601  ASP602  TYR603  ARG608  ILE653  VAL654 
 TRP683  PRO687  HEM750  H4B760 

> <Gold.Protein.RotatedAtoms>
  232.4227   33.6650   19.4681 H   0  0  0  0  0  0  0  0  0  0  0  0  # atno 7475 bound_to 7455
  233.2335   35.0024   18.6766 H   0  0  0  0  0  0  0  0  0  0  0  0  # atno 7524 bound_to 7513
  230.3575   42.2428   12.6295 H   0  0  0  0  0  0  0  0  0  0  0  0  # atno 10105 bound_to 10094
  221.8386   24.6801    9.8652 H   0  0  0  0  0  0  0  0  0  0  0  0  # atno 11425 bound_to 11414
  220.4954   27.3988    7.7629 H   0  0  0  0  0  0  0  0  0  0  0  0  # atno 11477 bound_to 11459
  224.5344   23.6650    3.0560 H   0  0  0  0  0  0  0  0  0  0  0  0  # atno 11805 bound_to 11781
  232.0225   28.4694    2.2160 H   0  0  0  0  0  0  0  0  0  0  0  0  # atno 16987 bound_to 16945
  227.7181   27.6507    6.8348 H   0  0  0  0  0  0  0  0  0  0  0  0  # atno 16995 bound_to 16956
  226.5317   32.9892    8.1245 H   0  0  0  0  0  0  0  0  0  0  0  0  # atno 17195 bound_to 17175
  224.0498   31.8425    9.8532 H   0  0  0  0  0  0  0  0  0  0  0  0  # atno 17251 bound_to 17219
  221.0212   31.1231   10.3394 H   0  0  0  0  0  0  0  0  0  0  0  0  # atno 17303 bound_to 17281
  221.4037   35.2885   11.7237 H   0  0  0  0  0  0  0  0  0  0  0  0  # atno 18243 bound_to 18203
  224.6419   38.2822   11.5045 H   0  0  0  0  0  0  0  0  0  0  0  0  # atno 18295 bound_to 18273
  224.5798   38.3168    7.9046 H   0  0  0  0  0  0  0  0  0  0  0  0  # atno 18299 bound_to 18278
  227.6859   37.0036   11.6191 H   0  0  0  0  0  0  0  0  0  0  0  0  # atno 18327 bound_to 18313
  230.5383   36.6592   10.1942 H   0  0  0  0  0  0  0  0  0  0  0  0  # atno 18409 bound_to 18361
  234.1098   34.9688    9.4926 H   0  0  0  0  0  0  0  0  0  0  0  0  # atno 18495 bound_to 18453
  230.2705   27.6179    7.3694 H   0  0  0  0  0  0  0  0  0  0  0  0  # atno 18503 bound_to 18464
  235.0983   32.9320   11.9899 H   0  0  0  0  0  0  0  0  0  0  0  0  # atno 18563 bound_to 18529
  238.6577   30.2343   11.9074 H   0  0  0  0  0  0  0  0  0  0  0  0  # atno 18603 bound_to 18589
  237.3247   27.4828   14.0720 H   0  0  0  0  0  0  0  0  0  0  0  0  # atno 18657 bound_to 18629
  236.4516   26.6739   12.9895 H   0  0  0  0  0  0  0  0  0  0  0  0  # atno 18713 bound_to 18683
  235.9569   26.6451    9.7621 H   0  0  0  0  0  0  0  0  0  0  0  0  # atno 18779 bound_to 18741
  237.7127   25.4015    8.4938 H   0  0  0  0  0  0  0  0  0  0  0  0  # atno 18823 bound_to 18809
  238.8017   22.4200    9.7938 H   0  0  0  0  0  0  0  0  0  0  0  0  # atno 18875 bound_to 18843
  236.2205   21.2933   11.0467 H   0  0  0  0  0  0  0  0  0  0  0  0  # atno 18963 bound_to 18915
  233.2022   22.3948   10.4819 H   0  0  0  0  0  0  0  0  0  0  0  0  # atno 19029 bound_to 19005
  233.7798   20.1202    8.0587 H   0  0  0  0  0  0  0  0  0  0  0  0  # atno 19103 bound_to 19061
  238.8879   35.8534    9.5759 H   0  0  0  0  0  0  0  0  0  0  0  0  # atno 22447 bound_to 22415
  227.8721   26.1989    6.1165 LP  0  0  0  0  0  0  0  0  0  0  0  0  # atno 27193 bound_to 16956
  226.4567   27.0090    6.0320 LP  0  0  0  0  0  0  0  0  0  0  0  0  # atno 27194 bound_to 16956
  229.6671   28.7903    6.4163 LP  0  0  0  0  0  0  0  0  0  0  0  0  # atno 27195 bound_to 18464
  229.2421   28.7145    7.9912 LP  0  0  0  0  0  0  0  0  0  0  0  0  # atno 27196 bound_to 18464
  235.0560   31.5199   10.9554 LP  0  0  0  0  0  0  0  0  0  0  0  0  # atno 27197 bound_to 18529
  235.6564   29.3337   11.9660 LP  0  0  0  0  0  0  0  0  0  0  0  0  # atno 27198 bound_to 18532
  236.3848   28.9122   10.4521 LP  0  0  0  0  0  0  0  0  0  0  0  0  # atno 27199 bound_to 18532
  236.1449   24.2021   11.4255 LP  0  0  0  0  0  0  0  0  0  0  0  0  # atno 27200 bound_to 18626
  237.0354   23.9788   12.8943 LP  0  0  0  0  0  0  0  0  0  0  0  0  # atno 27201 bound_to 18626
  236.5489   27.0570   11.2917 LP  0  0  0  0  0  0  0  0  0  0  0  0  # atno 27202 bound_to 18683
  233.7773   23.8887   11.3953 LP  0  0  0  0  0  0  0  0  0  0  0  0  # atno 27203 bound_to 18686
  233.3083   24.2575    9.7692 LP  0  0  0  0  0  0  0  0  0  0  0  0  # atno 27204 bound_to 18686
  234.5709   25.7221   10.2919 LP  0  0  0  0  0  0  0  0  0  0  0  0  # atno 27209 bound_to 18741
  235.9816   22.3311   12.4266 LP  0  0  0  0  0  0  0  0  0  0  0  0  # atno 27210 bound_to 18915
  234.1602   20.9657   10.1841 LP  0  0  0  0  0  0  0  0  0  0  0  0  # atno 27211 bound_to 19005
  226.4372   34.1454   10.0265 LP  0  0  0  0  0  0  0  0  0  0  0  0  # atno 27223 bound_to 17126
  227.6179   34.7496    8.9125 LP  0  0  0  0  0  0  0  0  0  0  0  0  # atno 27224 bound_to 17126
  225.5334   31.5741    7.9358 LP  0  0  0  0  0  0  0  0  0  0  0  0  # atno 27225 bound_to 17175
  223.7506   33.2692   10.8248 LP  0  0  0  0  0  0  0  0  0  0  0  0  # atno 27226 bound_to 17219
  225.1734   27.6244    5.0416 LP  0  0  0  0  0  0  0  0  0  0  0  0  # atno 27227 bound_to 11604
  225.3997   29.3195    4.7673 LP  0  0  0  0  0  0  0  0  0  0  0  0  # atno 27228 bound_to 11604
  226.7273   32.7074    4.5087 LP  0  0  0  0  0  0  0  0  0  0  0  0  # atno 27231 bound_to 17052
  227.0806   31.5983    5.7912 LP  0  0  0  0  0  0  0  0  0  0  0  0  # atno 27232 bound_to 17052
  235.8231   22.6673    7.0356 LP  0  0  0  0  0  0  0  0  0  0  0  0  # atno 27233 bound_to 18744
  235.6512   22.2913    8.7175 LP  0  0  0  0  0  0  0  0  0  0  0  0  # atno 27234 bound_to 18744
  238.6051   25.9964    9.8847 LP  0  0  0  0  0  0  0  0  0  0  0  0  # atno 27235 bound_to 18592
  237.7027   27.1004    8.9014 LP  0  0  0  0  0  0  0  0  0  0  0  0  # atno 27236 bound_to 18592
  236.5792   24.0959    8.7436 LP  0  0  0  0  0  0  0  0  0  0  0  0  # atno 27237 bound_to 18809
  233.3828   18.7279   11.2457 LP  0  0  0  0  0  0  0  0  0  0  0  0  # atno 27238 bound_to 18918
  233.0764   19.1477    9.5935 LP  0  0  0  0  0  0  0  0  0  0  0  0  # atno 27239 bound_to 18918
  232.1467   19.6328    6.4317 LP  0  0  0  0  0  0  0  0  0  0  0  0  # atno 27240 bound_to 19008
  232.7045   18.4778    7.5957 LP  0  0  0  0  0  0  0  0  0  0  0  0  # atno 27241 bound_to 19008
  235.0598   21.2982    7.8997 LP  0  0  0  0  0  0  0  0  0  0  0  0  # atno 27242 bound_to 19061
  221.5365   32.0666    9.0363 LP  0  0  0  0  0  0  0  0  0  0  0  0  # atno 27243 bound_to 17178
  222.6524   31.3668    7.9116 LP  0  0  0  0  0  0  0  0  0  0  0  0  # atno 27244 bound_to 17178
  232.5451   34.0460   11.6710 LP  0  0  0  0  0  0  0  0  0  0  0  0  # atno 27245 bound_to 18364
  233.1537   35.6521   11.8946 LP  0  0  0  0  0  0  0  0  0  0  0  0  # atno 27246 bound_to 18364
  232.7902   34.1070    8.7376 LP  0  0  0  0  0  0  0  0  0  0  0  0  # atno 27247 bound_to 18453
  221.5107   29.1235   10.5682 LP  0  0  0  0  0  0  0  0  0  0  0  0  # atno 27248 bound_to 11412
  220.2909   28.3321   11.5094 LP  0  0  0  0  0  0  0  0  0  0  0  0  # atno 27249 bound_to 11412
  224.4600   34.9141   11.7605 LP  0  0  0  0  0  0  0  0  0  0  0  0  # atno 27250 bound_to 18206
  223.3819   34.8871   10.4051 LP  0  0  0  0  0  0  0  0  0  0  0  0  # atno 27251 bound_to 18206
  220.6310   33.7983   10.8517 LP  0  0  0  0  0  0  0  0  0  0  0  0  # atno 27254 bound_to 17222
  221.2427   33.6628   12.4665 LP  0  0  0  0  0  0  0  0  0  0  0  0  # atno 27255 bound_to 17222
  223.7843   37.0284   10.6471 LP  0  0  0  0  0  0  0  0  0  0  0  0  # atno 27256 bound_to 18273
  227.9440   36.9709    9.8896 LP  0  0  0  0  0  0  0  0  0  0  0  0  # atno 27257 bound_to 18313
  231.8547   37.4301   11.0525 LP  0  0  0  0  0  0  0  0  0  0  0  0  # atno 27258 bound_to 18361
  230.7758   38.4609    8.2246 LP  0  0  0  0  0  0  0  0  0  0  0  0  # atno 27259 bound_to 18316
  229.5048   37.2842    8.2311 LP  0  0  0  0  0  0  0  0  0  0  0  0  # atno 27260 bound_to 18316
  236.2178   34.7159   10.6712 LP  0  0  0  0  0  0  0  0  0  0  0  0  # atno 27261 bound_to 18456
  237.0669   33.4756    9.8105 LP  0  0  0  0  0  0  0  0  0  0  0  0  # atno 27262 bound_to 18456
  233.5357   35.9711   20.1000 LP  0  0  0  0  0  0  0  0  0  0  0  0  # atno 27263 bound_to 7513
  227.3959   39.7375   10.3746 LP  0  0  0  0  0  0  0  0  0  0  0  0  # atno 27264 bound_to 18276
  226.3467   39.3718   11.7033 LP  0  0  0  0  0  0  0  0  0  0  0  0  # atno 27265 bound_to 18276
  232.2933   33.2714   21.1661 LP  0  0  0  0  0  0  0  0  0  0  0  0  # atno 27266 bound_to 7455
  231.0585   34.2864    5.6627 LP  0  0  0  0  0  0  0  0  0  0  0  0  # atno 27267 bound_to 17016
  232.6170   34.0900    4.9329 LP  0  0  0  0  0  0  0  0  0  0  0  0  # atno 27268 bound_to 17016
  237.9180   31.1094   10.5901 LP  0  0  0  0  0  0  0  0  0  0  0  0  # atno 27269 bound_to 18589
  230.0033   41.1695   11.4596 LP  0  0  0  0  0  0  0  0  0  0  0  0  # atno 27270 bound_to 10094
  229.6268   40.8413   13.0143 LP  0  0  0  0  0  0  0  0  0  0  0  0  # atno 27271 bound_to 10094
  226.1544   38.5066    7.5391 LP  0  0  0  0  0  0  0  0  0  0  0  0  # atno 27272 bound_to 18278
  225.5914   38.9677    9.0009 LP  0  0  0  0  0  0  0  0  0  0  0  0  # atno 27273 bound_to 18278
  221.0363   27.6078    9.4208 LP  0  0  0  0  0  0  0  0  0  0  0  0  # atno 27274 bound_to 11459
  231.4305   29.6138    3.7091 LP  0  0  0  0  0  0  0  0  0  0  0  0  # atno 27275 bound_to 16948
  232.3859   31.0532    3.8324 LP  0  0  0  0  0  0  0  0  0  0  0  0  # atno 27276 bound_to 16948

> <Gold.Score>
     Fitness  S(hb_ext) S(vdw_ext)  S(hb_int)    S(int)      intcor
     32.08       9.12      18.30       0.00      -2.20      -0.76

> <Gold.Goldscore.Fitness>
32.0755

> <Gold.Goldscore.Internal.Vdw>
-2.5732

> <Gold.Goldscore.Internal.Torsion>
-0.3844

> <Gold.Goldscore.External.Vdw>
18.2977

> <Gold.Goldscore.Internal.HBond>
0.0000

> <Gold.Goldscore.External.HBond>
9.1153

> <Gold.Goldscore.Internal.Correction>
-0.7585

> <Gold.Goldscore.Hbonds>
donor molecule, donor type, donor heavy atom, donor atom, acceptor molecule, acceptor atom, score
      L1  H     8    22       P1 19011  0.52
      L1  H    10    23       P1 27105  1.00

> <Gold.Goldscore.Internal.Vdw.Weighted>
-2.5732

> <Gold.Goldscore.Internal.Torsion.Weighted>
-0.3844

> <Gold.Goldscore.External.Vdw.Weighted>
25.1593

> <Gold.Goldscore.Internal.HBond.Weighted>
0.0000

> <Gold.Goldscore.External.HBond.Weighted>
9.1153

> <Gold.Goldscore.Internal.Correction.Weighted>
-0.7585

> <Gold.Rescore>
     Score     S(PLP)   S(hbond)     S(cho)   S(metal)  DE(clash)   DE(tors)     intcor
     19.01     -17.61       1.00       0.00       0.00       1.22       0.19       ----

> <Gold.PLP.Fitness>
19.0059

> <Gold.PLP.PLP>
-17.6118

> <Gold.PLP.part.hbond>
-2.6588

> <Gold.PLP.part.metal>
0.0000

> <Gold.PLP.part.buried>
-2.8304

> <Gold.PLP.part.nonpolar>
-14.9326

> <Gold.PLP.part.repulsive>
1.5966

> <Gold.PLP.ligand.clash>
1.2213

> <Gold.PLP.ligand.torsion>
0.1923

> <Gold.PLP.Chemscore.Hbond>
1.0000

> <Gold.PLP.Chemscore.CHOScore>
0.0000

> <Gold.PLP.Chemscore.Metal>
0.0000

> <Gold.Chemscore.Hbonds>
donor molecule, donor type, donor heavy atom, donor atom, acceptor molecule, acceptor atom, score
      L1  H    10    23       P1 27105  0.41

> <Gold.PLP.Chemscore.Internal.Correction>
   9.000000E+99

