#       Name:                CT1002167954
#       Creating user name   hitesit
#       Creation time:       Sun Apr 16 20:25:30 2023


#       File generated by GOLD software.
#

@<TRIPOS>MOLECULE
CT1002167954|ligand_prepared|mol2|1|dock3
    29    30     1
SMALL
NO_CHARGES


@<TRIPOS>ATOM
      1 C1         228.8436  32.0426  13.2540 C.3            1 RES1               0.0000
      2 C2         228.4455  30.6632  12.6905 C.ar           1 RES1               0.0000
      3 C3         230.0738  31.8102  14.1263 C.2            1 RES1               0.0000
      4 C4         229.0971  32.9394  12.0472 C.2            1 RES1               0.0000
      5 C5         227.7460  32.7046  14.1191 C.3            1 RES1               0.0000
      6 C6         227.5156  29.8683  13.3539 C.ar           1 RES1               0.0000
      7 C7         228.9966  30.1741  11.5091 C.ar           1 RES1               0.0000
      8 N8         231.2798  32.2216  13.6403 N.am           1 RES1               0.0000
      9 O9         229.9924  31.2392  15.2068 O.2            1 RES1               0.0000
     10 N10        230.3740  33.3912  11.8399 N.am           1 RES1               0.0000
     11 O11        228.2058  33.2452  11.2647 O.2            1 RES1               0.0000
     12 C12        228.0158  34.1665  14.4388 C.3            1 RES1               0.0000
     13 C13        227.1477  28.6305  12.8530 C.ar           1 RES1               0.0000
     14 C14        228.6274  28.9359  11.0100 C.ar           1 RES1               0.0000
     15 C15        231.4829  33.0480  12.5644 C.2            1 RES1               0.0000
     16 C16        227.7029  28.1637  11.6806 C.ar           1 RES1               0.0000
     17 O17        232.6074  33.4524  12.2832 O.2            1 RES1               0.0000
     18 H18        226.7873  32.6297  13.5912 H              1 RES1               0.0000
     19 H19        227.6548  32.1484  15.0602 H              1 RES1               0.0000
     20 H20        227.0699  30.2179  14.2792 H              1 RES1               0.0000
     21 H21        229.7266  30.7638  10.9652 H              1 RES1               0.0000
     22 H22        232.1073  31.8835  14.1213 H              1 RES1               0.0000
     23 H23        230.5106  34.0440  11.0747 H              1 RES1               0.0000
     24 H24        227.2157  34.5823  15.0476 H              1 RES1               0.0000
     25 H25        228.9498  34.2756  14.9862 H              1 RES1               0.0000
     26 H26        228.0874  34.7541  13.5259 H              1 RES1               0.0000
     27 H27        226.4206  28.0261  13.3853 H              1 RES1               0.0000
     28 H28        229.0674  28.5722  10.0873 H              1 RES1               0.0000
     29 H29        227.4142  27.1943  11.2882 H              1 RES1               0.0000
@<TRIPOS>BOND
    1    1    2 1     
    2    1    3 1     
    3    1    4 1     
    4    1    5 1     
    5    2    6 ar    
    6    2    7 ar    
    7    3    8 1     
    8    3    9 2     
    9    4   10 1     
   10    4   11 2     
   11    5   12 1     
   12    5   18 1     
   13    5   19 1     
   14    6   13 ar    
   15    6   20 1     
   16    7   14 ar    
   17    7   21 1     
   18    8   15 1     
   19    8   22 1     
   20   10   15 1     
   21   10   23 1     
   22   12   24 1     
   23   12   25 1     
   24   12   26 1     
   25   13   16 ar    
   26   13   27 1     
   27   14   16 ar    
   28   14   28 1     
   29   15   17 2     
   30   16   29 1     
@<TRIPOS>SUBSTRUCTURE
      1 RES1           1
@<TRIPOS>SET
DONOR_HYDROGENS      STATIC     ATOMS    <user>   **** ""
2 22 23
ATOM$RED        STATIC     ATOMS    COLORGROUP SYSTEM
2 22 23
@<TRIPOS>COMMENT
> <Gold.Version>
2022.3.0

> <Gold.Id.Protein>
unknown|4d1n_clean|pdb

> <Gold.Protein.RotatedTorsions>
[ 16995 16956 16955 16953 ] final  -40.65 input   60.02 | X-H torsion
[ 18503 18464 18463 18461 ] final   23.74 input   59.99 | X-H torsion
[ 18563 18529 18530 18531 ] final  -94.70 input   85.91 | X-H torsion
[ 18713 18683 18684 18685 ] final  114.47 input  120.10 | X-H torsion
[ 18779 18741 18742 18743 ] final -101.16 input   94.66 | X-H torsion
[ 18963 18915 18916 18917 ] final   36.04 input   99.61 | X-H torsion
[ 19029 19005 19006 19007 ] final  -12.91 input  120.28 | X-H torsion
[ 17195 17175 17176 17177 ] final -160.72 input   50.47 | X-H torsion
[ 17251 17219 17220 17221 ] final -103.39 input  121.85 | X-H torsion
[ 18823 18809 18810 18811 ] final -153.92 input  109.66 | X-H torsion
[ 19103 19061 19062 19063 ] final  -10.29 input   93.64 | X-H torsion
[ 18495 18453 18454 18455 ] final -106.42 input  105.49 | X-H torsion
[ 18295 18273 18274 18275 ] final  -88.64 input   34.55 | X-H torsion
[ 18327 18313 18314 18315 ] final   61.40 input   52.32 | X-H torsion
[ 18409 18361 18362 18363 ] final -115.93 input   29.77 | X-H torsion
[ 7524 7513 7514 7515 ] final   74.35 input   82.77 | X-H torsion
[ 7475 7455 7456 7457 ] final  -66.80 input   99.19 | X-H torsion
[ 18603 18589 18590 18591 ] final -112.47 input  124.64 | X-H torsion
[ 10105 10094 10093 10090 ] final  178.32 input   59.99 | X-H torsion
[ 18299 18278 18277 18274 ] final  -33.90 input   60.00 | X-H torsion
[ 11477 11459 11460 11461 ] final   61.80 input   48.11 | X-H torsion
[ 18657 18629 18627 18624 ] final   97.56 input   60.03 | X-H torsion
[ 11425 11414 11413 11410 ] final   69.74 input   60.02 | X-H torsion
[ 18875 18843 18844 18845 ] final   72.02 input   86.72 | X-H torsion
[ 17303 17281 17282 17283 ] final  -81.87 input   51.85 | X-H torsion
[ 22447 22415 22416 22417 ] final  118.94 input   56.20 | X-H torsion
[ 18243 18203 18204 18205 ] final  176.35 input   41.90 | X-H torsion
[ 11805 11781 11782 11783 ] final  -47.85 input   87.31 | X-H torsion
[ 16987 16945 16946 16947 ] final  -56.58 input   84.34 | X-H torsion
[ 27198 18532 18531 18530 ] final  -44.18 input   -0.00 | X-H torsion
[ 27200 18626 18625 18624 ] final   34.94 input    0.00 | X-H torsion
[ 27203 18686 18685 18684 ] final  -67.40 input   -0.00 | X-H torsion
[ 27223 17126 17125 17124 ] final  -73.79 input    0.00 | X-H torsion
[ 27227 11604 11603 11602 ] final -171.77 input    0.00 | X-H torsion
[ 27231 17052 17051 17050 ] final  155.46 input   -0.00 | X-H torsion
[ 27233 18744 18743 18742 ] final   45.13 input   -0.00 | X-H torsion
[ 27235 18592 18591 18590 ] final   44.83 input   -0.00 | X-H torsion
[ 27238 18918 18917 18916 ] final  -18.47 input    0.00 | X-H torsion
[ 27240 19008 19007 19006 ] final   31.32 input    0.00 | X-H torsion
[ 27243 17178 17177 17176 ] final  142.41 input    0.00 | X-H torsion
[ 27245 18364 18363 18362 ] final  105.68 input    0.00 | X-H torsion
[ 27248 11412 11411 11410 ] final -100.14 input   -0.00 | X-H torsion
[ 27250 18206 18205 18204 ] final  119.29 input   -0.00 | X-H torsion
[ 27254 17222 17221 17220 ] final   23.14 input   -0.00 | X-H torsion
[ 27259 18316 18315 18314 ] final  -89.50 input   -0.00 | X-H torsion
[ 27261 18456 18455 18454 ] final   18.21 input    0.00 | X-H torsion
[ 27264 18276 18275 18274 ] final  159.62 input    0.00 | X-H torsion
[ 27267 17016 17015 17014 ] final  168.04 input    0.00 | X-H torsion
[ 27275 16948 16947 16946 ] final -142.70 input   -0.00 | X-H torsion

> <Gold.Protein.ActiveResidues>
 TRP414  CYS420  VAL421  GLY422  LEU460  SER462  SER482  GLN483  ILE485  ARG486 
 TYR487  ASP500  ASN503  TRP566  TYR567  GLY568  LEU569  PRO570  ALA571  VAL572 
 SER573  ASN574  PHE589  SER590  GLY591  TRP592  TYR593  MET594  GLY595  THR596 
 GLU597  ILE598  GLY599  VAL600  ARG601  ASP602  TYR603  ARG608  ILE653  VAL654 
 TRP683  PRO687  HEM750  H4B760 

> <Gold.Protein.RotatedAtoms>
  232.0431   34.1413   20.8040 H   0  0  0  0  0  0  0  0  0  0  0  0  # atno 7475 bound_to 7455
  232.5275   35.4682   19.1848 H   0  0  0  0  0  0  0  0  0  0  0  0  # atno 7524 bound_to 7513
  229.9899   41.6695   13.2701 H   0  0  0  0  0  0  0  0  0  0  0  0  # atno 10105 bound_to 10094
  221.7689   25.3533    9.4071 H   0  0  0  0  0  0  0  0  0  0  0  0  # atno 11425 bound_to 11414
  221.0866   27.0718    7.8890 H   0  0  0  0  0  0  0  0  0  0  0  0  # atno 11477 bound_to 11459
  224.0141   24.2526    2.4813 H   0  0  0  0  0  0  0  0  0  0  0  0  # atno 11805 bound_to 11781
  232.3515   28.4835    1.4196 H   0  0  0  0  0  0  0  0  0  0  0  0  # atno 16987 bound_to 16945
  227.9398   27.4839    6.8267 H   0  0  0  0  0  0  0  0  0  0  0  0  # atno 16995 bound_to 16956
  226.4892   33.0192    7.9506 H   0  0  0  0  0  0  0  0  0  0  0  0  # atno 17195 bound_to 17175
  223.8903   31.9082    9.7487 H   0  0  0  0  0  0  0  0  0  0  0  0  # atno 17251 bound_to 17219
  220.7947   31.5473   11.8869 H   0  0  0  0  0  0  0  0  0  0  0  0  # atno 17303 bound_to 17281
  220.4024   36.4511   11.8156 H   0  0  0  0  0  0  0  0  0  0  0  0  # atno 18243 bound_to 18203
  224.3373   37.1557   11.7860 H   0  0  0  0  0  0  0  0  0  0  0  0  # atno 18295 bound_to 18273
  224.9275   38.7882    8.9077 H   0  0  0  0  0  0  0  0  0  0  0  0  # atno 18299 bound_to 18278
  228.2521   36.2252   10.8710 H   0  0  0  0  0  0  0  0  0  0  0  0  # atno 18327 bound_to 18313
  230.5472   36.8810   10.0588 H   0  0  0  0  0  0  0  0  0  0  0  0  # atno 18409 bound_to 18361
  232.8000   34.5433    9.7181 H   0  0  0  0  0  0  0  0  0  0  0  0  # atno 18495 bound_to 18453
  229.5499   28.2429    8.1688 H   0  0  0  0  0  0  0  0  0  0  0  0  # atno 18503 bound_to 18464
  235.4969   32.7605   10.9006 H   0  0  0  0  0  0  0  0  0  0  0  0  # atno 18563 bound_to 18529
  237.6438   30.9322   10.6959 H   0  0  0  0  0  0  0  0  0  0  0  0  # atno 18603 bound_to 18589
  237.3143   26.7522   15.0218 H   0  0  0  0  0  0  0  0  0  0  0  0  # atno 18657 bound_to 18629
  236.2814   27.7061   12.0229 H   0  0  0  0  0  0  0  0  0  0  0  0  # atno 18713 bound_to 18683
  234.5266   25.7448   10.2759 H   0  0  0  0  0  0  0  0  0  0  0  0  # atno 18779 bound_to 18741
  237.1793   24.9508    7.7632 H   0  0  0  0  0  0  0  0  0  0  0  0  # atno 18823 bound_to 18809
  237.6780   23.4023   10.7398 H   0  0  0  0  0  0  0  0  0  0  0  0  # atno 18875 bound_to 18843
  235.7922   22.2016   11.0180 H   0  0  0  0  0  0  0  0  0  0  0  0  # atno 18963 bound_to 18915
  234.1725   20.9553   10.1842 H   0  0  0  0  0  0  0  0  0  0  0  0  # atno 19029 bound_to 19005
  234.3379   20.0924    8.5973 H   0  0  0  0  0  0  0  0  0  0  0  0  # atno 19103 bound_to 19061
  238.1114   35.3709   10.2600 H   0  0  0  0  0  0  0  0  0  0  0  0  # atno 22447 bound_to 22415
  227.6351   26.1228    5.9890 LP  0  0  0  0  0  0  0  0  0  0  0  0  # atno 27193 bound_to 16956
  226.4702   27.2532    6.1677 LP  0  0  0  0  0  0  0  0  0  0  0  0  # atno 27194 bound_to 16956
  230.3113   27.7873    6.8051 LP  0  0  0  0  0  0  0  0  0  0  0  0  # atno 27195 bound_to 18464
  229.3240   29.0879    6.7970 LP  0  0  0  0  0  0  0  0  0  0  0  0  # atno 27196 bound_to 18464
  234.6705   31.6857   12.0087 LP  0  0  0  0  0  0  0  0  0  0  0  0  # atno 27197 bound_to 18529
  235.7972   29.1940   12.0428 LP  0  0  0  0  0  0  0  0  0  0  0  0  # atno 27198 bound_to 18532
  236.2440   29.0519   10.3754 LP  0  0  0  0  0  0  0  0  0  0  0  0  # atno 27199 bound_to 18532
  237.2234   23.9414   12.7316 LP  0  0  0  0  0  0  0  0  0  0  0  0  # atno 27200 bound_to 18626
  235.9569   24.2395   11.5882 LP  0  0  0  0  0  0  0  0  0  0  0  0  # atno 27201 bound_to 18626
  236.7176   26.0337   12.2500 LP  0  0  0  0  0  0  0  0  0  0  0  0  # atno 27202 bound_to 18683
  234.0832   23.6857   11.1372 LP  0  0  0  0  0  0  0  0  0  0  0  0  # atno 27203 bound_to 18686
  233.0024   24.4605   10.0274 LP  0  0  0  0  0  0  0  0  0  0  0  0  # atno 27204 bound_to 18686
  235.9694   26.6023    9.7896 LP  0  0  0  0  0  0  0  0  0  0  0  0  # atno 27209 bound_to 18741
  236.4066   21.4297   12.4550 LP  0  0  0  0  0  0  0  0  0  0  0  0  # atno 27210 bound_to 18915
  233.2067   22.3803   10.4766 LP  0  0  0  0  0  0  0  0  0  0  0  0  # atno 27211 bound_to 19005
  227.2999   33.9543   10.1272 LP  0  0  0  0  0  0  0  0  0  0  0  0  # atno 27223 bound_to 17126
  226.7552   34.9407    8.8118 LP  0  0  0  0  0  0  0  0  0  0  0  0  # atno 27224 bound_to 17126
  225.5757   31.5443    8.1090 LP  0  0  0  0  0  0  0  0  0  0  0  0  # atno 27225 bound_to 17175
  223.9042   33.2059   10.9255 LP  0  0  0  0  0  0  0  0  0  0  0  0  # atno 27226 bound_to 17219
  225.4309   27.6217    4.8251 LP  0  0  0  0  0  0  0  0  0  0  0  0  # atno 27227 bound_to 11604
  225.1422   29.3222    4.9837 LP  0  0  0  0  0  0  0  0  0  0  0  0  # atno 27228 bound_to 11604
  227.0979   31.5849    5.7743 LP  0  0  0  0  0  0  0  0  0  0  0  0  # atno 27231 bound_to 17052
  226.7100   32.7208    4.5256 LP  0  0  0  0  0  0  0  0  0  0  0  0  # atno 27232 bound_to 17052
  235.2886   22.7911    7.2046 LP  0  0  0  0  0  0  0  0  0  0  0  0  # atno 27233 bound_to 18744
  236.1858   22.1675    8.5485 LP  0  0  0  0  0  0  0  0  0  0  0  0  # atno 27234 bound_to 18744
  238.8049   26.8156    8.8883 LP  0  0  0  0  0  0  0  0  0  0  0  0  # atno 27235 bound_to 18592
  237.5029   26.2812    9.8978 LP  0  0  0  0  0  0  0  0  0  0  0  0  # atno 27236 bound_to 18592
  237.1012   24.5369    9.4586 LP  0  0  0  0  0  0  0  0  0  0  0  0  # atno 27237 bound_to 18809
  233.7826   18.6712   11.0304 LP  0  0  0  0  0  0  0  0  0  0  0  0  # atno 27238 bound_to 18918
  232.6766   19.2044    9.8088 LP  0  0  0  0  0  0  0  0  0  0  0  0  # atno 27239 bound_to 18918
  231.7555   19.6002    6.9494 LP  0  0  0  0  0  0  0  0  0  0  0  0  # atno 27240 bound_to 19008
  233.0956   18.5105    7.0781 LP  0  0  0  0  0  0  0  0  0  0  0  0  # atno 27241 bound_to 19008
  234.5134   21.3254    7.3724 LP  0  0  0  0  0  0  0  0  0  0  0  0  # atno 27242 bound_to 19061
  222.1613   31.0133    8.9747 LP  0  0  0  0  0  0  0  0  0  0  0  0  # atno 27243 bound_to 17178
  222.0276   32.4201    7.9732 LP  0  0  0  0  0  0  0  0  0  0  0  0  # atno 27244 bound_to 17178
  232.2407   34.2457   11.6584 LP  0  0  0  0  0  0  0  0  0  0  0  0  # atno 27245 bound_to 18364
  233.4581   35.4524   11.9072 LP  0  0  0  0  0  0  0  0  0  0  0  0  # atno 27246 bound_to 18364
  234.0696   34.5227    8.5174 LP  0  0  0  0  0  0  0  0  0  0  0  0  # atno 27247 bound_to 18453
  220.3809   29.3550   10.7450 LP  0  0  0  0  0  0  0  0  0  0  0  0  # atno 27248 bound_to 11412
  221.4206   28.1006   11.3327 LP  0  0  0  0  0  0  0  0  0  0  0  0  # atno 27249 bound_to 11412
  223.9984   34.9803   10.2239 LP  0  0  0  0  0  0  0  0  0  0  0  0  # atno 27250 bound_to 18206
  223.8435   34.8209   11.9417 LP  0  0  0  0  0  0  0  0  0  0  0  0  # atno 27251 bound_to 18206
  221.7565   33.9252   11.4585 LP  0  0  0  0  0  0  0  0  0  0  0  0  # atno 27254 bound_to 17222
  220.1171   33.5359   11.8597 LP  0  0  0  0  0  0  0  0  0  0  0  0  # atno 27255 bound_to 17222
  224.0852   38.1413   10.3690 LP  0  0  0  0  0  0  0  0  0  0  0  0  # atno 27256 bound_to 18273
  227.3936   37.7276   10.6168 LP  0  0  0  0  0  0  0  0  0  0  0  0  # atno 27257 bound_to 18313
  231.8461   37.2155   11.1836 LP  0  0  0  0  0  0  0  0  0  0  0  0  # atno 27258 bound_to 18361
  229.7025   37.1284    8.1607 LP  0  0  0  0  0  0  0  0  0  0  0  0  # atno 27259 bound_to 18316
  230.5781   38.6168    8.2950 LP  0  0  0  0  0  0  0  0  0  0  0  0  # atno 27260 bound_to 18316
  236.0686   34.5431    9.7711 LP  0  0  0  0  0  0  0  0  0  0  0  0  # atno 27261 bound_to 18456
  237.2161   33.6484   10.7106 LP  0  0  0  0  0  0  0  0  0  0  0  0  # atno 27262 bound_to 18456
  234.2237   35.5171   19.6047 LP  0  0  0  0  0  0  0  0  0  0  0  0  # atno 27263 bound_to 7513
  227.6021   39.5563   11.5037 LP  0  0  0  0  0  0  0  0  0  0  0  0  # atno 27264 bound_to 18276
  226.1405   39.5530   10.5742 LP  0  0  0  0  0  0  0  0  0  0  0  0  # atno 27265 bound_to 18276
  232.6640   32.8064   19.8620 LP  0  0  0  0  0  0  0  0  0  0  0  0  # atno 27266 bound_to 7455
  231.0699   34.4719    5.5805 LP  0  0  0  0  0  0  0  0  0  0  0  0  # atno 27267 bound_to 17016
  232.6056   33.9045    5.0150 LP  0  0  0  0  0  0  0  0  0  0  0  0  # atno 27268 bound_to 17016
  238.9141   30.4236   11.7803 LP  0  0  0  0  0  0  0  0  0  0  0  0  # atno 27269 bound_to 18589
  230.3682   41.9976   11.7224 LP  0  0  0  0  0  0  0  0  0  0  0  0  # atno 27270 bound_to 10094
  229.6324   40.5911   12.1059 LP  0  0  0  0  0  0  0  0  0  0  0  0  # atno 27271 bound_to 10094
  225.0330   38.2105    7.3897 LP  0  0  0  0  0  0  0  0  0  0  0  0  # atno 27272 bound_to 18278
  226.3628   38.7891    8.1404 LP  0  0  0  0  0  0  0  0  0  0  0  0  # atno 27273 bound_to 18278
  220.4751   27.9183    9.3011 LP  0  0  0  0  0  0  0  0  0  0  0  0  # atno 27274 bound_to 11459
  231.6080   31.0618    4.1306 LP  0  0  0  0  0  0  0  0  0  0  0  0  # atno 27275 bound_to 16948
  232.2084   29.6052    3.4110 LP  0  0  0  0  0  0  0  0  0  0  0  0  # atno 27276 bound_to 16948

> <Gold.Score>
     Fitness  S(hb_ext) S(vdw_ext)  S(hb_int)    S(int)      intcor
     38.62       0.19      28.37       0.00      -0.58      -0.76

> <Gold.Goldscore.Fitness>
38.6232

> <Gold.Goldscore.Internal.Vdw>
-0.7571

> <Gold.Goldscore.Internal.Torsion>
-0.5771

> <Gold.Goldscore.External.Vdw>
28.3680

> <Gold.Goldscore.Internal.HBond>
0.0000

> <Gold.Goldscore.External.HBond>
0.1929

> <Gold.Goldscore.Internal.Correction>
-0.7585

> <Gold.Goldscore.Hbonds>
donor molecule, donor type, donor heavy atom, donor atom, acceptor molecule, acceptor atom, score
      P1  H 18313 18327       L1    11  0.10

> <Gold.Goldscore.Internal.Vdw.Weighted>
-0.7571

> <Gold.Goldscore.Internal.Torsion.Weighted>
-0.5771

> <Gold.Goldscore.External.Vdw.Weighted>
39.0060

> <Gold.Goldscore.Internal.HBond.Weighted>
0.0000

> <Gold.Goldscore.External.HBond.Weighted>
0.1929

> <Gold.Goldscore.Internal.Correction.Weighted>
-0.7585

> <Gold.Rescore>
     Score     S(PLP)   S(hbond)     S(cho)   S(metal)  DE(clash)   DE(tors)     intcor
     14.11     -10.67       0.66       0.00       0.84       2.28       0.65       ----

> <Gold.PLP.Fitness>
14.1083

> <Gold.PLP.PLP>
-10.6723

> <Gold.PLP.part.hbond>
-4.5421

> <Gold.PLP.part.metal>
-0.6451

> <Gold.PLP.part.buried>
16.0110

> <Gold.PLP.part.nonpolar>
-27.6928

> <Gold.PLP.part.repulsive>
3.3080

> <Gold.PLP.ligand.clash>
2.2843

> <Gold.PLP.ligand.torsion>
0.6536

> <Gold.PLP.Chemscore.Hbond>
0.6640

> <Gold.PLP.Chemscore.CHOScore>
0.0000

> <Gold.PLP.Chemscore.Metal>
0.8393

> <Gold.Chemscore.Hbonds>
donor molecule, donor type, donor heavy atom, donor atom, acceptor molecule, acceptor atom, score
      L1  H     8    22       P1 18691  0.10

> <Gold.PLP.Chemscore.Internal.Correction>
   9.000000E+99

