#       Name:                CT1002167954
#       Creating user name   hitesit
#       Creation time:       Sun Apr 16 02:22:31 2023


#       File generated by GOLD software.
#

@<TRIPOS>MOLECULE
CT1002167954|ligand_prepared|mol2|1|dock5
    29    30     1
SMALL
NO_CHARGES


@<TRIPOS>ATOM
      1 C1           1.5125 -27.4922 -52.1355 C.3            1 RES1               0.0000
      2 C2           1.2278 -27.4957 -50.6197 C.ar           1 RES1               0.0000
      3 C3           0.2417 -27.9988 -52.8113 C.2            1 RES1               0.0000
      4 C4           1.8798 -26.0573 -52.4972 C.2            1 RES1               0.0000
      5 C5           2.6883 -28.4059 -52.5525 C.3            1 RES1               0.0000
      6 C6           1.0817 -28.6950 -49.9289 C.ar           1 RES1               0.0000
      7 C7           1.1114 -26.3100 -49.8993 C.ar           1 RES1               0.0000
      8 N8          -0.5330 -27.0864 -53.4651 N.am           1 RES1               0.0000
      9 O9          -0.0961 -29.1738 -52.7381 O.2            1 RES1               0.0000
     10 N10          1.0330 -25.3667 -53.3241 N.am           1 RES1               0.0000
     11 O11          2.8863 -25.5129 -52.0602 O.2            1 RES1               0.0000
     12 C12          3.1707 -28.1734 -53.9757 C.3            1 RES1               0.0000
     13 C13          0.8313 -28.7085 -48.5668 C.ar           1 RES1               0.0000
     14 C14          0.8608 -26.3257 -48.5371 C.ar           1 RES1               0.0000
     15 C15         -0.1724 -25.8059 -53.7997 C.2            1 RES1               0.0000
     16 C16          0.7211 -27.5241 -47.8699 C.ar           1 RES1               0.0000
     17 O17         -0.9037 -25.1060 -54.4944 O.2            1 RES1               0.0000
     18 H18          3.5261 -28.2397 -51.8641 H              1 RES1               0.0000
     19 H19          2.3749 -29.4525 -52.4526 H              1 RES1               0.0000
     20 H20          1.1627 -29.6370 -50.4610 H              1 RES1               0.0000
     21 H21          1.2166 -25.3553 -50.4035 H              1 RES1               0.0000
     22 H22         -1.4667 -27.3838 -53.7296 H              1 RES1               0.0000
     23 H23          1.3287 -24.4393 -53.6119 H              1 RES1               0.0000
     24 H24          3.9961 -28.8399 -54.2170 H              1 RES1               0.0000
     25 H25          2.3694 -28.3545 -54.6890 H              1 RES1               0.0000
     26 H26          3.5137 -27.1488 -54.1041 H              1 RES1               0.0000
     27 H27          0.7208 -29.6543 -48.0466 H              1 RES1               0.0000
     28 H28          0.7742 -25.3911 -47.9928 H              1 RES1               0.0000
     29 H29          0.5253 -27.5350 -46.8028 H              1 RES1               0.0000
@<TRIPOS>BOND
    1    1    2 1     
    2    1    3 1     
    3    1    4 1     
    4    1    5 1     
    5    2    6 ar    
    6    2    7 ar    
    7    3    8 1     
    8    3    9 2     
    9    4   10 1     
   10    4   11 2     
   11    5   12 1     
   12    5   18 1     
   13    5   19 1     
   14    6   13 ar    
   15    6   20 1     
   16    7   14 ar    
   17    7   21 1     
   18    8   15 1     
   19    8   22 1     
   20   10   15 1     
   21   10   23 1     
   22   12   24 1     
   23   12   25 1     
   24   12   26 1     
   25   13   16 ar    
   26   13   27 1     
   27   14   16 ar    
   28   14   28 1     
   29   15   17 2     
   30   16   29 1     
@<TRIPOS>SUBSTRUCTURE
      1 RES1           1
@<TRIPOS>SET
DONOR_HYDROGENS      STATIC     ATOMS    <user>   **** ""
2 22 23
ATOM$RED        STATIC     ATOMS    COLORGROUP SYSTEM
2 22 23
@<TRIPOS>COMMENT
> <Gold.Version>
2022.3.0

> <Gold.Id.Protein>
unknown|7kl0_clean|pdb

> <Gold.Protein.RotatedTorsions>
[ 3167 3155 3156 3157 ] final  -68.54 input   96.64 | X-H torsion
[ 3215 3201 3202 3203 ] final   36.17 input -100.55 | X-H torsion
[ 3255 3234 3235 3236 ] final -155.96 input   29.64 | X-H torsion
[ 3263 3245 3244 3242 ] final  130.78 input   60.01 | X-H torsion
[ 3290 3276 3277 3278 ] final  -87.99 input   80.30 | X-H torsion
[ 3319 3312 3313 3314 ] final -130.38 input  125.66 | X-H torsion
[ 3327 3317 3316 3313 ] final   -9.75 input   60.01 | X-H torsion
[ 3352 3337 3338 3339 ] final  162.88 input  120.41 | X-H torsion
[ 3394 3386 3387 3388 ] final -124.25 input  107.09 | X-H torsion
[ 3416 3407 3408 3409 ] final -120.34 input  119.47 | X-H torsion
[ 4557 4546 4545 4544 ] final -100.65 input   60.03 | X-H torsion
[ 3081 3062 3063 3064 ] final -151.85 input  114.53 | X-H torsion
[ 3298 3287 3286 3284 ] final   62.34 input   60.01 | X-H torsion
[ 3370 3363 3364 3365 ] final -144.81 input  114.58 | X-H torsion
[ 3442 3428 3429 3430 ] final  174.82 input  113.40 | X-H torsion
[ 8535 3041 3040 3039 ] final  -42.88 input    0.00 | X-H torsion
[ 8540 3158 3157 3156 ] final  151.22 input    0.00 | X-H torsion
[ 8544 3237 3236 3235 ] final  149.75 input    0.00 | X-H torsion
[ 8549 3279 3278 3277 ] final  108.50 input   -0.00 | X-H torsion
[ 8552 3315 3314 3313 ] final   92.33 input    0.00 | X-H torsion
[ 8563 6290 6289 6288 ] final  -56.19 input    0.00 | X-H torsion
[ 8568 3065 3064 3063 ] final  -95.51 input    0.00 | X-H torsion
[ 8570 3132 3131 3130 ] final -142.77 input    0.00 | X-H torsion
[ 8572 3204 3203 3202 ] final -167.76 input   -0.00 | X-H torsion
[ 8577 3389 3388 3387 ] final   29.64 input   -0.00 | X-H torsion
[ 8579 3340 3339 3338 ] final  -22.41 input    0.00 | X-H torsion
[ 8581 3366 3365 3364 ] final   -1.16 input   -0.00 | X-H torsion

> <Gold.Protein.ActiveResidues>
 ASP100  ILE101  ALA103  ARG104  GLU105  TYR106  TYR107  SER108  GLU109  ALA110 
 ASP111  ALA112  SER113  CYS115  LYS148  GLY149  LEU206  LEU207 

> <Gold.Protein.RotatedAtoms>
    3.7597  -21.9562  -38.6550 H   0  0  0  0  0  0  0  0  0  0  0  0  # atno 3081 bound_to 3062
    9.7246  -22.2119  -37.9859 H   0  0  0  0  0  0  0  0  0  0  0  0  # atno 3167 bound_to 3155
    9.2319  -20.4767  -40.5447 H   0  0  0  0  0  0  0  0  0  0  0  0  # atno 3215 bound_to 3201
    8.8430  -17.9230  -41.3840 H   0  0  0  0  0  0  0  0  0  0  0  0  # atno 3255 bound_to 3234
   13.8732  -17.5539  -46.9082 H   0  0  0  0  0  0  0  0  0  0  0  0  # atno 3263 bound_to 3245
    7.4508  -19.3753  -44.5458 H   0  0  0  0  0  0  0  0  0  0  0  0  # atno 3290 bound_to 3276
    1.9307  -22.6725  -40.9583 H   0  0  0  0  0  0  0  0  0  0  0  0  # atno 3298 bound_to 3287
    7.6563  -20.3267  -47.5992 H   0  0  0  0  0  0  0  0  0  0  0  0  # atno 3319 bound_to 3312
    5.5707  -22.3100  -49.8043 H   0  0  0  0  0  0  0  0  0  0  0  0  # atno 3327 bound_to 3317
    6.5300  -18.6812  -51.3496 H   0  0  0  0  0  0  0  0  0  0  0  0  # atno 3352 bound_to 3337
    4.0262  -20.3219  -53.3482 H   0  0  0  0  0  0  0  0  0  0  0  0  # atno 3370 bound_to 3363
    3.0708  -23.3685  -51.3808 H   0  0  0  0  0  0  0  0  0  0  0  0  # atno 3394 bound_to 3386
    2.3550  -21.5912  -48.0772 H   0  0  0  0  0  0  0  0  0  0  0  0  # atno 3416 bound_to 3407
    0.6512  -19.3423  -50.5389 H   0  0  0  0  0  0  0  0  0  0  0  0  # atno 3442 bound_to 3428
    8.1189  -26.9431  -44.8666 H   0  0  0  0  0  0  0  0  0  0  0  0  # atno 4557 bound_to 4546
    8.4076  -28.5718  -44.9734 H   0  0  0  0  0  0  0  0  0  0  0  0  # atno 4558 bound_to 4546
    8.6709  -27.5953  -46.2866 H   0  0  0  0  0  0  0  0  0  0  0  0  # atno 4559 bound_to 4546
    6.7090  -23.2371  -38.1273 LP  0  0  0  0  0  0  0  0  0  0  0  0  # atno 8535 bound_to 3041
    6.2025  -22.3476  -39.5245 LP  0  0  0  0  0  0  0  0  0  0  0  0  # atno 8536 bound_to 3041
    8.0865  -22.5576  -38.5049 LP  0  0  0  0  0  0  0  0  0  0  0  0  # atno 8539 bound_to 3155
   10.5027  -19.9200  -42.0858 LP  0  0  0  0  0  0  0  0  0  0  0  0  # atno 8540 bound_to 3158
   11.1912  -21.4953  -41.8755 LP  0  0  0  0  0  0  0  0  0  0  0  0  # atno 8541 bound_to 3158
    9.5652  -20.3283  -38.8274 LP  0  0  0  0  0  0  0  0  0  0  0  0  # atno 8542 bound_to 3201
    9.4344  -19.2872  -42.3132 LP  0  0  0  0  0  0  0  0  0  0  0  0  # atno 8543 bound_to 3234
    7.8986  -21.2417  -44.2365 LP  0  0  0  0  0  0  0  0  0  0  0  0  # atno 8544 bound_to 3237
    9.2587  -20.2407  -43.8518 LP  0  0  0  0  0  0  0  0  0  0  0  0  # atno 8545 bound_to 3237
   13.0756  -18.6644  -47.7908 LP  0  0  0  0  0  0  0  0  0  0  0  0  # atno 8546 bound_to 3245
   13.7485  -19.0821  -46.3628 LP  0  0  0  0  0  0  0  0  0  0  0  0  # atno 8547 bound_to 3245
    5.9511  -18.4657  -44.6710 LP  0  0  0  0  0  0  0  0  0  0  0  0  # atno 8548 bound_to 3276
    7.4006  -18.0456  -47.6201 LP  0  0  0  0  0  0  0  0  0  0  0  0  # atno 8549 bound_to 3279
    5.6705  -18.0765  -47.6949 LP  0  0  0  0  0  0  0  0  0  0  0  0  # atno 8550 bound_to 3279
    6.1475  -21.1963  -47.8091 LP  0  0  0  0  0  0  0  0  0  0  0  0  # atno 8551 bound_to 3312
    4.3873  -19.3703  -48.8085 LP  0  0  0  0  0  0  0  0  0  0  0  0  # atno 8552 bound_to 3315
    4.1152  -20.8916  -49.5907 LP  0  0  0  0  0  0  0  0  0  0  0  0  # atno 8553 bound_to 3315
    6.5990  -23.5343  -50.1075 LP  0  0  0  0  0  0  0  0  0  0  0  0  # atno 8554 bound_to 3317
    5.9295  -22.7017  -51.3425 LP  0  0  0  0  0  0  0  0  0  0  0  0  # atno 8555 bound_to 3317
    5.7152  -20.1642  -50.9007 LP  0  0  0  0  0  0  0  0  0  0  0  0  # atno 8556 bound_to 3337
    3.6557  -21.8803  -50.6627 LP  0  0  0  0  0  0  0  0  0  0  0  0  # atno 8557 bound_to 3386
    2.3371  -20.9751  -49.7203 LP  0  0  0  0  0  0  0  0  0  0  0  0  # atno 8562 bound_to 3407
    5.0700  -17.3151  -43.9107 LP  0  0  0  0  0  0  0  0  0  0  0  0  # atno 8563 bound_to 6290
    4.9655  -17.4689  -45.6328 LP  0  0  0  0  0  0  0  0  0  0  0  0  # atno 8564 bound_to 6290
    4.4562  -21.4371  -37.1341 LP  0  0  0  0  0  0  0  0  0  0  0  0  # atno 8567 bound_to 3062
    7.8289  -19.9258  -39.0088 LP  0  0  0  0  0  0  0  0  0  0  0  0  # atno 8568 bound_to 3065
    7.1434  -18.3380  -39.1030 LP  0  0  0  0  0  0  0  0  0  0  0  0  # atno 8569 bound_to 3065
   11.5800  -22.0221  -38.4637 LP  0  0  0  0  0  0  0  0  0  0  0  0  # atno 8570 bound_to 3132
   11.6052  -23.1226  -37.1264 LP  0  0  0  0  0  0  0  0  0  0  0  0  # atno 8571 bound_to 3132
    7.4630  -16.6202  -41.3734 LP  0  0  0  0  0  0  0  0  0  0  0  0  # atno 8572 bound_to 3204
    8.4042  -16.3817  -39.9391 LP  0  0  0  0  0  0  0  0  0  0  0  0  # atno 8573 bound_to 3204
    2.7350  -24.0066  -41.4292 LP  0  0  0  0  0  0  0  0  0  0  0  0  # atno 8574 bound_to 3287
    1.2668  -23.6698  -42.0597 LP  0  0  0  0  0  0  0  0  0  0  0  0  # atno 8575 bound_to 3287
    4.4663  -21.0241  -51.8042 LP  0  0  0  0  0  0  0  0  0  0  0  0  # atno 8576 bound_to 3363
    0.6648  -23.4998  -47.7172 LP  0  0  0  0  0  0  0  0  0  0  0  0  # atno 8577 bound_to 3389
   -0.1347  -22.0292  -48.1624 LP  0  0  0  0  0  0  0  0  0  0  0  0  # atno 8578 bound_to 3389
    1.9929  -18.9823  -51.3663 LP  0  0  0  0  0  0  0  0  0  0  0  0  # atno 8579 bound_to 3340
    1.5753  -20.2783  -52.4368 LP  0  0  0  0  0  0  0  0  0  0  0  0  # atno 8580 bound_to 3340
    0.7496  -22.9850  -52.5826 LP  0  0  0  0  0  0  0  0  0  0  0  0  # atno 8581 bound_to 3366
    0.8106  -23.4176  -50.9066 LP  0  0  0  0  0  0  0  0  0  0  0  0  # atno 8582 bound_to 3366

> <Gold.Score>
     Fitness  S(hb_ext) S(vdw_ext)  S(hb_int)    S(int)      intcor
     21.24       0.19      16.93       0.00      -2.22      -0.76

> <Gold.Goldscore.Fitness>
21.2442

> <Gold.Goldscore.Internal.Vdw>
-2.3638

> <Gold.Goldscore.Internal.Torsion>
-0.6215

> <Gold.Goldscore.External.Vdw>
16.9257

> <Gold.Goldscore.Internal.HBond>
0.0000

> <Gold.Goldscore.External.HBond>
0.1918

> <Gold.Goldscore.Internal.Correction>
-0.7650

> <Gold.Goldscore.Hbonds>
donor molecule, donor type, donor heavy atom, donor atom, acceptor molecule, acceptor atom, score
      P1  H  3386  3394       L1    11  0.10

> <Gold.Goldscore.Internal.Vdw.Weighted>
-2.3638

> <Gold.Goldscore.Internal.Torsion.Weighted>
-0.6215

> <Gold.Goldscore.External.Vdw.Weighted>
23.2728

> <Gold.Goldscore.Internal.HBond.Weighted>
0.0000

> <Gold.Goldscore.External.HBond.Weighted>
0.1918

> <Gold.Goldscore.Internal.Correction.Weighted>
-0.7650

> <Gold.Rescore>
     Score     S(PLP)   S(hbond)     S(cho)   S(metal)  DE(clash)   DE(tors)     intcor
     19.51     -21.74       0.00       0.00       0.00       0.87       0.68       ----

> <Gold.PLP.Fitness>
19.5054

> <Gold.PLP.PLP>
-21.7388

> <Gold.PLP.part.hbond>
-0.5524

> <Gold.PLP.part.metal>
0.0000

> <Gold.PLP.part.buried>
-2.8412

> <Gold.PLP.part.nonpolar>
-19.1435

> <Gold.PLP.part.repulsive>
1.1435

> <Gold.PLP.ligand.clash>
0.8661

> <Gold.PLP.ligand.torsion>
0.6836

> <Gold.PLP.Chemscore.Hbond>
0.0000

> <Gold.PLP.Chemscore.CHOScore>
0.0000

> <Gold.PLP.Chemscore.Metal>
0.0000

> <Gold.Chemscore.Hbonds>
donor molecule, donor type, donor heavy atom, donor atom, acceptor molecule, acceptor atom, score
      L1  H    10    23       P1  3366  0.06
      P1  H  3386  3394       L1    11  0.54

> <Gold.PLP.Chemscore.Internal.Correction>
   9.000000E+99

