#       Name:                CT1002167954
#       Creating user name   hitesit
#       Creation time:       Sun Apr 16 02:22:34 2023


#       File generated by GOLD software.
#

@<TRIPOS>MOLECULE
CT1002167954|ligand_prepared|mol2|1|dock8
    29    30     1
SMALL
NO_CHARGES


@<TRIPOS>ATOM
      1 C1           1.5882 -28.1607 -48.6726 C.3            1 RES1               0.0000
      2 C2           1.1697 -27.2490 -47.5012 C.ar           1 RES1               0.0000
      3 C3           0.7781 -29.4455 -48.5264 C.2            1 RES1               0.0000
      4 C4           1.2913 -27.3799 -49.9481 C.2            1 RES1               0.0000
      5 C5           3.0911 -28.5253 -48.6746 C.3            1 RES1               0.0000
      6 C6          -0.0099 -27.4892 -46.8027 C.ar           1 RES1               0.0000
      7 C7           1.9526 -26.1675 -47.1063 C.ar           1 RES1               0.0000
      8 N8          -0.2511 -29.6462 -49.3984 N.am           1 RES1               0.0000
      9 O9           1.0136 -30.2514 -47.6346 O.2            1 RES1               0.0000
     10 N10          0.3201 -27.8630 -50.7854 N.am           1 RES1               0.0000
     11 O11          1.8781 -26.3416 -50.2273 O.2            1 RES1               0.0000
     12 C12          3.4682 -29.5663 -49.7168 C.3            1 RES1               0.0000
     13 C13         -0.3914 -26.6794 -45.7459 C.ar           1 RES1               0.0000
     14 C14          1.5690 -25.3588 -46.0492 C.ar           1 RES1               0.0000
     15 C15         -0.4859 -28.9440 -50.5532 C.2            1 RES1               0.0000
     16 C16          0.3978 -25.6141 -45.3682 C.ar           1 RES1               0.0000
     17 O17         -1.3745 -29.2847 -51.3287 O.2            1 RES1               0.0000
     18 H18          3.6751 -27.6148 -48.8575 H              1 RES1               0.0000
     19 H19          3.3637 -28.9047 -47.6820 H              1 RES1               0.0000
     20 H20         -0.6450 -28.3215 -47.0872 H              1 RES1               0.0000
     21 H21          2.8775 -25.9471 -47.6282 H              1 RES1               0.0000
     22 H22         -0.9069 -30.3868 -49.1707 H              1 RES1               0.0000
     23 H23          0.1856 -27.3713 -51.6631 H              1 RES1               0.0000
     24 H24          4.5330 -29.7855 -49.6753 H              1 RES1               0.0000
     25 H25          2.9245 -30.4938 -49.5499 H              1 RES1               0.0000
     26 H26          3.2340 -29.2116 -50.7184 H              1 RES1               0.0000
     27 H27         -1.3148 -26.8838 -45.2140 H              1 RES1               0.0000
     28 H28          2.1929 -24.5210 -45.7558 H              1 RES1               0.0000
     29 H29          0.0988 -24.9801 -44.5400 H              1 RES1               0.0000
@<TRIPOS>BOND
    1    1    2 1     
    2    1    3 1     
    3    1    4 1     
    4    1    5 1     
    5    2    6 ar    
    6    2    7 ar    
    7    3    8 1     
    8    3    9 2     
    9    4   10 1     
   10    4   11 2     
   11    5   12 1     
   12    5   18 1     
   13    5   19 1     
   14    6   13 ar    
   15    6   20 1     
   16    7   14 ar    
   17    7   21 1     
   18    8   15 1     
   19    8   22 1     
   20   10   15 1     
   21   10   23 1     
   22   12   24 1     
   23   12   25 1     
   24   12   26 1     
   25   13   16 ar    
   26   13   27 1     
   27   14   16 ar    
   28   14   28 1     
   29   15   17 2     
   30   16   29 1     
@<TRIPOS>SUBSTRUCTURE
      1 RES1           1
@<TRIPOS>SET
DONOR_HYDROGENS      STATIC     ATOMS    <user>   **** ""
2 22 23
ATOM$RED        STATIC     ATOMS    COLORGROUP SYSTEM
2 22 23
@<TRIPOS>COMMENT
> <Gold.Version>
2022.3.0

> <Gold.Id.Protein>
unknown|7kl0_clean|pdb

> <Gold.Protein.RotatedTorsions>
[ 3167 3155 3156 3157 ] final   54.20 input   96.64 | X-H torsion
[ 3215 3201 3202 3203 ] final   -0.17 input -100.55 | X-H torsion
[ 3255 3234 3235 3236 ] final   24.49 input   29.64 | X-H torsion
[ 3263 3245 3244 3242 ] final   66.99 input   60.01 | X-H torsion
[ 3290 3276 3277 3278 ] final -136.15 input   80.30 | X-H torsion
[ 3319 3312 3313 3314 ] final -123.47 input  125.66 | X-H torsion
[ 3327 3317 3316 3313 ] final   51.98 input   60.01 | X-H torsion
[ 3352 3337 3338 3339 ] final   75.22 input  120.41 | X-H torsion
[ 3394 3386 3387 3388 ] final -162.50 input  107.09 | X-H torsion
[ 3416 3407 3408 3409 ] final  155.79 input  119.47 | X-H torsion
[ 4557 4546 4545 4544 ] final -127.28 input   60.03 | X-H torsion
[ 3081 3062 3063 3064 ] final   31.64 input  114.53 | X-H torsion
[ 3298 3287 3286 3284 ] final  -93.14 input   60.01 | X-H torsion
[ 3370 3363 3364 3365 ] final   68.46 input  114.58 | X-H torsion
[ 3442 3428 3429 3430 ] final   95.97 input  113.40 | X-H torsion
[ 8535 3041 3040 3039 ] final   16.57 input    0.00 | X-H torsion
[ 8540 3158 3157 3156 ] final  140.82 input    0.00 | X-H torsion
[ 8544 3237 3236 3235 ] final   38.44 input    0.00 | X-H torsion
[ 8549 3279 3278 3277 ] final -114.40 input   -0.00 | X-H torsion
[ 8552 3315 3314 3313 ] final   25.86 input    0.00 | X-H torsion
[ 8563 6290 6289 6288 ] final  120.93 input    0.00 | X-H torsion
[ 8568 3065 3064 3063 ] final  -28.41 input    0.00 | X-H torsion
[ 8570 3132 3131 3130 ] final  -20.14 input    0.00 | X-H torsion
[ 8572 3204 3203 3202 ] final -144.49 input   -0.00 | X-H torsion
[ 8577 3389 3388 3387 ] final  -59.23 input   -0.00 | X-H torsion
[ 8579 3340 3339 3338 ] final   11.57 input    0.00 | X-H torsion
[ 8581 3366 3365 3364 ] final   83.90 input   -0.00 | X-H torsion

> <Gold.Protein.ActiveResidues>
 ASP100  ILE101  ALA103  ARG104  GLU105  TYR106  TYR107  SER108  GLU109  ALA110 
 ASP111  ALA112  SER113  CYS115  LYS148  GLY149  LEU206  LEU207 

> <Gold.Protein.RotatedAtoms>
    4.4341  -21.3773  -37.1091 H   0  0  0  0  0  0  0  0  0  0  0  0  # atno 3081 bound_to 3062
    8.2995  -21.7459  -38.4518 H   0  0  0  0  0  0  0  0  0  0  0  0  # atno 3167 bound_to 3155
    8.7545  -20.3363  -40.2854 H   0  0  0  0  0  0  0  0  0  0  0  0  # atno 3215 bound_to 3201
    9.4279  -19.3031  -42.3646 H   0  0  0  0  0  0  0  0  0  0  0  0  # atno 3255 bound_to 3234
   13.3548  -17.8288  -47.7050 H   0  0  0  0  0  0  0  0  0  0  0  0  # atno 3263 bound_to 3245
    6.9225  -19.6001  -44.0811 H   0  0  0  0  0  0  0  0  0  0  0  0  # atno 3290 bound_to 3276
    2.3706  -24.2318  -41.8092 H   0  0  0  0  0  0  0  0  0  0  0  0  # atno 3298 bound_to 3287
    7.5959  -20.2376  -47.5891 H   0  0  0  0  0  0  0  0  0  0  0  0  # atno 3319 bound_to 3312
    5.4761  -22.1720  -50.7501 H   0  0  0  0  0  0  0  0  0  0  0  0  # atno 3327 bound_to 3317
    6.3698  -19.7692  -51.9062 H   0  0  0  0  0  0  0  0  0  0  0  0  # atno 3352 bound_to 3337
    4.8041  -21.2244  -52.1192 H   0  0  0  0  0  0  0  0  0  0  0  0  # atno 3370 bound_to 3363
    3.6217  -23.4475  -51.1972 H   0  0  0  0  0  0  0  0  0  0  0  0  # atno 3394 bound_to 3386
    3.0700  -20.8151  -48.6511 H   0  0  0  0  0  0  0  0  0  0  0  0  # atno 3416 bound_to 3407
    0.7667  -20.4661  -50.6844 H   0  0  0  0  0  0  0  0  0  0  0  0  # atno 3442 bound_to 3428
    8.2167  -26.7710  -45.2603 H   0  0  0  0  0  0  0  0  0  0  0  0  # atno 4557 bound_to 4546
    8.2639  -28.3107  -44.6484 H   0  0  0  0  0  0  0  0  0  0  0  0  # atno 4558 bound_to 4546
    8.7166  -28.0280  -46.2177 H   0  0  0  0  0  0  0  0  0  0  0  0  # atno 4559 bound_to 4546
    6.3046  -23.6430  -38.7669 LP  0  0  0  0  0  0  0  0  0  0  0  0  # atno 8535 bound_to 3041
    6.6070  -21.9417  -38.8849 LP  0  0  0  0  0  0  0  0  0  0  0  0  # atno 8536 bound_to 3041
    9.4538  -23.0047  -38.0580 LP  0  0  0  0  0  0  0  0  0  0  0  0  # atno 8539 bound_to 3155
   10.3920  -19.9950  -42.1679 LP  0  0  0  0  0  0  0  0  0  0  0  0  # atno 8540 bound_to 3158
   11.3019  -21.4204  -41.7934 LP  0  0  0  0  0  0  0  0  0  0  0  0  # atno 8541 bound_to 3158
   10.0190  -20.4618  -39.0739 LP  0  0  0  0  0  0  0  0  0  0  0  0  # atno 8542 bound_to 3201
    8.8745  -17.9660  -41.3745 LP  0  0  0  0  0  0  0  0  0  0  0  0  # atno 8543 bound_to 3234
    8.6497  -20.6215  -43.1894 LP  0  0  0  0  0  0  0  0  0  0  0  0  # atno 8544 bound_to 3237
    8.5077  -20.8609  -44.8989 LP  0  0  0  0  0  0  0  0  0  0  0  0  # atno 8545 bound_to 3237
   13.2830  -19.3288  -47.0781 LP  0  0  0  0  0  0  0  0  0  0  0  0  # atno 8546 bound_to 3245
   14.0629  -18.1410  -46.2734 LP  0  0  0  0  0  0  0  0  0  0  0  0  # atno 8547 bound_to 3245
    6.4482  -18.2541  -45.1084 LP  0  0  0  0  0  0  0  0  0  0  0  0  # atno 8548 bound_to 3276
    5.9289  -18.1894  -48.2621 LP  0  0  0  0  0  0  0  0  0  0  0  0  # atno 8549 bound_to 3279
    7.1422  -17.9327  -47.0529 LP  0  0  0  0  0  0  0  0  0  0  0  0  # atno 8550 bound_to 3279
    6.2052  -21.2815  -47.8188 LP  0  0  0  0  0  0  0  0  0  0  0  0  # atno 8551 bound_to 3312
    4.7385  -20.1912  -48.4861 LP  0  0  0  0  0  0  0  0  0  0  0  0  # atno 8552 bound_to 3315
    3.7641  -20.0707  -49.9130 LP  0  0  0  0  0  0  0  0  0  0  0  0  # atno 8553 bound_to 3315
    6.1154  -22.9727  -49.4859 LP  0  0  0  0  0  0  0  0  0  0  0  0  # atno 8554 bound_to 3317
    6.5085  -23.4024  -51.0115 LP  0  0  0  0  0  0  0  0  0  0  0  0  # atno 8555 bound_to 3317
    5.8701  -19.1121  -50.3625 LP  0  0  0  0  0  0  0  0  0  0  0  0  # atno 8556 bound_to 3337
    3.1270  -21.8045  -50.8389 LP  0  0  0  0  0  0  0  0  0  0  0  0  # atno 8557 bound_to 3386
    1.6564  -21.7139  -49.1740 LP  0  0  0  0  0  0  0  0  0  0  0  0  # atno 8562 bound_to 3407
    4.9343  -17.4986  -45.6271 LP  0  0  0  0  0  0  0  0  0  0  0  0  # atno 8563 bound_to 6290
    5.1012  -17.2854  -43.9164 LP  0  0  0  0  0  0  0  0  0  0  0  0  # atno 8564 bound_to 6290
    3.8065  -21.9948  -38.6232 LP  0  0  0  0  0  0  0  0  0  0  0  0  # atno 8567 bound_to 3062
    7.2231  -19.6510  -39.6972 LP  0  0  0  0  0  0  0  0  0  0  0  0  # atno 8568 bound_to 3065
    7.7492  -18.6128  -38.4146 LP  0  0  0  0  0  0  0  0  0  0  0  0  # atno 8569 bound_to 3065
   11.6693  -22.3078  -36.9740 LP  0  0  0  0  0  0  0  0  0  0  0  0  # atno 8570 bound_to 3132
   11.5160  -22.8370  -38.6161 LP  0  0  0  0  0  0  0  0  0  0  0  0  # atno 8571 bound_to 3132
    7.2822  -16.8054  -41.1389 LP  0  0  0  0  0  0  0  0  0  0  0  0  # atno 8572 bound_to 3204
    8.5850  -16.1965  -40.1735 LP  0  0  0  0  0  0  0  0  0  0  0  0  # atno 8573 bound_to 3204
    1.1287  -23.1803  -41.7925 LP  0  0  0  0  0  0  0  0  0  0  0  0  # atno 8574 bound_to 3287
    2.4302  -22.9261  -40.8396 LP  0  0  0  0  0  0  0  0  0  0  0  0  # atno 8575 bound_to 3287
    3.7183  -20.1563  -52.9859 LP  0  0  0  0  0  0  0  0  0  0  0  0  # atno 8576 bound_to 3363
    0.0361  -23.1355  -48.6881 LP  0  0  0  0  0  0  0  0  0  0  0  0  # atno 8577 bound_to 3389
    0.4941  -22.3934  -47.1916 LP  0  0  0  0  0  0  0  0  0  0  0  0  # atno 8578 bound_to 3389
    1.9393  -18.7815  -51.8277 LP  0  0  0  0  0  0  0  0  0  0  0  0  # atno 8579 bound_to 3340
    1.6289  -20.4791  -51.9753 LP  0  0  0  0  0  0  0  0  0  0  0  0  # atno 8580 bound_to 3340
    1.0056  -23.9863  -52.0325 LP  0  0  0  0  0  0  0  0  0  0  0  0  # atno 8581 bound_to 3366
    0.5547  -22.4163  -51.4566 LP  0  0  0  0  0  0  0  0  0  0  0  0  # atno 8582 bound_to 3366

> <Gold.Score>
     Fitness  S(hb_ext) S(vdw_ext)  S(hb_int)    S(int)      intcor
     27.94       0.00      21.30       0.00      -1.35      -0.76

> <Gold.Goldscore.Fitness>
27.9383

> <Gold.Goldscore.Internal.Vdw>
-1.6537

> <Gold.Goldscore.Internal.Torsion>
-0.4620

> <Gold.Goldscore.External.Vdw>
21.3011

> <Gold.Goldscore.Internal.HBond>
0.0000

> <Gold.Goldscore.External.HBond>
0.0000

> <Gold.Goldscore.Internal.Correction>
-0.7650

> <Gold.Goldscore.Internal.Vdw.Weighted>
-1.6537

> <Gold.Goldscore.Internal.Torsion.Weighted>
-0.4620

> <Gold.Goldscore.External.Vdw.Weighted>
29.2890

> <Gold.Goldscore.Internal.HBond.Weighted>
0.0000

> <Gold.Goldscore.External.HBond.Weighted>
0.0000

> <Gold.Goldscore.Internal.Correction.Weighted>
-0.7650

> <Gold.Rescore>
     Score     S(PLP)   S(hbond)     S(cho)   S(metal)  DE(clash)   DE(tors)     intcor
     18.85     -21.29       0.00       0.00       0.00       0.00       1.22       ----

> <Gold.PLP.Fitness>
18.8489

> <Gold.PLP.PLP>
-21.2872

> <Gold.PLP.part.hbond>
0.0000

> <Gold.PLP.part.metal>
0.0000

> <Gold.PLP.part.buried>
-4.4872

> <Gold.PLP.part.nonpolar>
-20.5209

> <Gold.PLP.part.repulsive>
2.5901

> <Gold.PLP.ligand.clash>
0.0000

> <Gold.PLP.ligand.torsion>
1.2191

> <Gold.PLP.Chemscore.Hbond>
0.0000

> <Gold.PLP.Chemscore.CHOScore>
0.0000

> <Gold.PLP.Chemscore.Metal>
0.0000

> <Gold.PLP.Chemscore.Internal.Correction>
   9.000000E+99

