#       Name:                CT1002167954
#       Creating user name   hitesit
#       Creation time:       Sun Apr 16 02:22:34 2023


#       File generated by GOLD software.
#

@<TRIPOS>MOLECULE
CT1002167954|ligand_prepared|mol2|1|dock9
    29    30     1
SMALL
NO_CHARGES


@<TRIPOS>ATOM
      1 C1           0.5067 -25.6965 -43.9526 C.3            1 RES1               0.0000
      2 C2           1.0249 -25.9709 -45.3791 C.ar           1 RES1               0.0000
      3 C3          -0.2987 -26.9268 -43.5453 C.2            1 RES1               0.0000
      4 C4           1.7399 -25.4472 -43.0914 C.2            1 RES1               0.0000
      5 C5          -0.4080 -24.4539 -43.8484 C.3            1 RES1               0.0000
      6 C6           2.2517 -26.5968 -45.5793 C.ar           1 RES1               0.0000
      7 C7           0.2876 -25.6069 -46.5028 C.ar           1 RES1               0.0000
      8 N8           0.2607 -27.7758 -42.6364 N.am           1 RES1               0.0000
      9 O9          -1.3910 -27.1691 -44.0437 O.2            1 RES1               0.0000
     10 N10          2.0258 -26.3514 -42.1022 N.am           1 RES1               0.0000
     11 O11          2.4759 -24.4848 -43.2712 O.2            1 RES1               0.0000
     12 C12         -0.7708 -24.0778 -42.4204 C.3            1 RES1               0.0000
     13 C13          2.7230 -26.8524 -46.8563 C.ar           1 RES1               0.0000
     14 C14          0.7609 -25.8632 -47.7790 C.ar           1 RES1               0.0000
     15 C15          1.3594 -27.5207 -41.8557 C.2            1 RES1               0.0000
     16 C16          1.9779 -26.4862 -47.9569 C.ar           1 RES1               0.0000
     17 O17          1.7096 -28.3097 -40.9828 O.2            1 RES1               0.0000
     18 H18          0.0979 -23.6025 -44.3201 H              1 RES1               0.0000
     19 H19         -1.3315 -24.6473 -44.4080 H              1 RES1               0.0000
     20 H20          2.8531 -26.8900 -44.7252 H              1 RES1               0.0000
     21 H21         -0.6720 -25.1147 -46.3868 H              1 RES1               0.0000
     22 H22         -0.1783 -28.6844 -42.5272 H              1 RES1               0.0000
     23 H23          2.8078 -26.1324 -41.4932 H              1 RES1               0.0000
     24 H24         -1.4135 -23.2000 -42.4042 H              1 RES1               0.0000
     25 H25         -1.2980 -24.8928 -41.9289 H              1 RES1               0.0000
     26 H26          0.1229 -23.8542 -41.8415 H              1 RES1               0.0000
     27 H27          3.6820 -27.3417 -46.9910 H              1 RES1               0.0000
     28 H28          0.1714 -25.5728 -48.6423 H              1 RES1               0.0000
     29 H29          2.3471 -26.6869 -48.9572 H              1 RES1               0.0000
@<TRIPOS>BOND
    1    1    2 1     
    2    1    3 1     
    3    1    4 1     
    4    1    5 1     
    5    2    6 ar    
    6    2    7 ar    
    7    3    8 1     
    8    3    9 2     
    9    4   10 1     
   10    4   11 2     
   11    5   12 1     
   12    5   18 1     
   13    5   19 1     
   14    6   13 ar    
   15    6   20 1     
   16    7   14 ar    
   17    7   21 1     
   18    8   15 1     
   19    8   22 1     
   20   10   15 1     
   21   10   23 1     
   22   12   24 1     
   23   12   25 1     
   24   12   26 1     
   25   13   16 ar    
   26   13   27 1     
   27   14   16 ar    
   28   14   28 1     
   29   15   17 2     
   30   16   29 1     
@<TRIPOS>SUBSTRUCTURE
      1 RES1           1
@<TRIPOS>SET
DONOR_HYDROGENS      STATIC     ATOMS    <user>   **** ""
2 22 23
ATOM$RED        STATIC     ATOMS    COLORGROUP SYSTEM
2 22 23
@<TRIPOS>COMMENT
> <Gold.Version>
2022.3.0

> <Gold.Id.Protein>
unknown|7kl0_clean|pdb

> <Gold.Protein.RotatedTorsions>
[ 3167 3155 3156 3157 ] final -120.38 input   96.64 | X-H torsion
[ 3215 3201 3202 3203 ] final  -95.72 input -100.55 | X-H torsion
[ 3255 3234 3235 3236 ] final   60.56 input   29.64 | X-H torsion
[ 3263 3245 3244 3242 ] final  100.00 input   60.01 | X-H torsion
[ 3290 3276 3277 3278 ] final  -19.08 input   80.30 | X-H torsion
[ 3319 3312 3313 3314 ] final   83.45 input  125.66 | X-H torsion
[ 3327 3317 3316 3313 ] final  162.61 input   60.01 | X-H torsion
[ 3352 3337 3338 3339 ] final  -17.23 input  120.41 | X-H torsion
[ 3394 3386 3387 3388 ] final   20.39 input  107.09 | X-H torsion
[ 3416 3407 3408 3409 ] final  117.98 input  119.47 | X-H torsion
[ 4557 4546 4545 4544 ] final   12.08 input   60.03 | X-H torsion
[ 3081 3062 3063 3064 ] final  178.95 input  114.53 | X-H torsion
[ 3298 3287 3286 3284 ] final  -51.69 input   60.01 | X-H torsion
[ 3370 3363 3364 3365 ] final -158.26 input  114.58 | X-H torsion
[ 3442 3428 3429 3430 ] final -100.71 input  113.40 | X-H torsion
[ 8535 3041 3040 3039 ] final  -44.60 input    0.00 | X-H torsion
[ 8540 3158 3157 3156 ] final   46.76 input    0.00 | X-H torsion
[ 8544 3237 3236 3235 ] final   75.80 input    0.00 | X-H torsion
[ 8549 3279 3278 3277 ] final  -70.97 input   -0.00 | X-H torsion
[ 8552 3315 3314 3313 ] final  -66.42 input    0.00 | X-H torsion
[ 8563 6290 6289 6288 ] final   69.41 input    0.00 | X-H torsion
[ 8568 3065 3064 3063 ] final   15.41 input    0.00 | X-H torsion
[ 8570 3132 3131 3130 ] final  178.49 input    0.00 | X-H torsion
[ 8572 3204 3203 3202 ] final  -42.34 input   -0.00 | X-H torsion
[ 8577 3389 3388 3387 ] final  131.45 input   -0.00 | X-H torsion
[ 8579 3340 3339 3338 ] final  -84.29 input    0.00 | X-H torsion
[ 8581 3366 3365 3364 ] final    5.03 input   -0.00 | X-H torsion

> <Gold.Protein.ActiveResidues>
 ASP100  ILE101  ALA103  ARG104  GLU105  TYR106  TYR107  SER108  GLU109  ALA110 
 ASP111  ALA112  SER113  CYS115  LYS148  GLY149  LEU206  LEU207 

> <Gold.Protein.RotatedAtoms>
    3.4435  -21.6968  -38.4682 H   0  0  0  0  0  0  0  0  0  0  0  0  # atno 3081 bound_to 3062
    9.5431  -22.9684  -38.0631 H   0  0  0  0  0  0  0  0  0  0  0  0  # atno 3167 bound_to 3155
    8.8825  -20.1580  -38.9711 H   0  0  0  0  0  0  0  0  0  0  0  0  # atno 3215 bound_to 3201
    9.7408  -18.8608  -42.4830 H   0  0  0  0  0  0  0  0  0  0  0  0  # atno 3255 bound_to 3234
   13.6323  -17.5549  -47.3429 H   0  0  0  0  0  0  0  0  0  0  0  0  # atno 3263 bound_to 3245
    7.2847  -18.6223  -45.2201 H   0  0  0  0  0  0  0  0  0  0  0  0  # atno 3290 bound_to 3276
    2.7663  -23.9388  -41.3656 H   0  0  0  0  0  0  0  0  0  0  0  0  # atno 3298 bound_to 3287
    6.5000  -21.5618  -47.8829 H   0  0  0  0  0  0  0  0  0  0  0  0  # atno 3319 bound_to 3312
    6.4402  -23.3146  -51.1177 H   0  0  0  0  0  0  0  0  0  0  0  0  # atno 3327 bound_to 3317
    5.6831  -20.1810  -50.9011 H   0  0  0  0  0  0  0  0  0  0  0  0  # atno 3352 bound_to 3337
    4.1941  -20.4268  -53.4159 H   0  0  0  0  0  0  0  0  0  0  0  0  # atno 3370 bound_to 3363
    3.1462  -21.7741  -50.7837 H   0  0  0  0  0  0  0  0  0  0  0  0  # atno 3394 bound_to 3386
    2.9496  -20.6730  -49.2029 H   0  0  0  0  0  0  0  0  0  0  0  0  # atno 3416 bound_to 3407
   -0.0628  -19.3641  -49.5678 H   0  0  0  0  0  0  0  0  0  0  0  0  # atno 3442 bound_to 3428
    8.3671  -28.5171  -44.8738 H   0  0  0  0  0  0  0  0  0  0  0  0  # atno 4557 bound_to 4546
    8.6901  -27.7151  -46.2880 H   0  0  0  0  0  0  0  0  0  0  0  0  # atno 4558 bound_to 4546
    8.1409  -26.8780  -44.9670 H   0  0  0  0  0  0  0  0  0  0  0  0  # atno 4559 bound_to 4546
    6.7187  -23.2152  -38.1173 LP  0  0  0  0  0  0  0  0  0  0  0  0  # atno 8535 bound_to 3041
    6.1928  -22.3695  -39.5344 LP  0  0  0  0  0  0  0  0  0  0  0  0  # atno 8536 bound_to 3041
    8.2606  -21.8318  -38.4309 LP  0  0  0  0  0  0  0  0  0  0  0  0  # atno 8539 bound_to 3155
   10.3082  -21.2372  -42.4041 LP  0  0  0  0  0  0  0  0  0  0  0  0  # atno 8540 bound_to 3158
   11.3857  -20.1781  -41.5572 LP  0  0  0  0  0  0  0  0  0  0  0  0  # atno 8541 bound_to 3158
    9.8974  -20.6313  -40.3233 LP  0  0  0  0  0  0  0  0  0  0  0  0  # atno 8542 bound_to 3201
    8.5750  -18.3894  -41.2611 LP  0  0  0  0  0  0  0  0  0  0  0  0  # atno 8543 bound_to 3234
    8.2089  -20.9438  -43.2877 LP  0  0  0  0  0  0  0  0  0  0  0  0  # atno 8544 bound_to 3237
    8.9484  -20.5387  -44.8007 LP  0  0  0  0  0  0  0  0  0  0  0  0  # atno 8545 bound_to 3237
   13.1066  -19.0847  -47.5210 LP  0  0  0  0  0  0  0  0  0  0  0  0  # atno 8546 bound_to 3245
   13.9600  -18.6608  -46.1949 LP  0  0  0  0  0  0  0  0  0  0  0  0  # atno 8547 bound_to 3245
    6.1074  -19.1743  -44.0365 LP  0  0  0  0  0  0  0  0  0  0  0  0  # atno 8548 bound_to 3276
    5.6701  -18.0749  -47.6870 LP  0  0  0  0  0  0  0  0  0  0  0  0  # atno 8549 bound_to 3279
    7.4010  -18.0472  -47.6280 LP  0  0  0  0  0  0  0  0  0  0  0  0  # atno 8550 bound_to 3279
    7.2528  -20.0156  -47.5379 LP  0  0  0  0  0  0  0  0  0  0  0  0  # atno 8551 bound_to 3312
    4.2956  -20.9838  -49.3437 LP  0  0  0  0  0  0  0  0  0  0  0  0  # atno 8552 bound_to 3315
    4.2069  -19.2782  -49.0555 LP  0  0  0  0  0  0  0  0  0  0  0  0  # atno 8553 bound_to 3315
    5.4410  -22.1372  -50.6045 LP  0  0  0  0  0  0  0  0  0  0  0  0  # atno 8554 bound_to 3317
    6.2118  -23.0870  -49.5227 LP  0  0  0  0  0  0  0  0  0  0  0  0  # atno 8555 bound_to 3317
    6.5341  -18.7139  -51.3344 LP  0  0  0  0  0  0  0  0  0  0  0  0  # atno 8556 bound_to 3337
    3.5834  -23.4104  -51.2357 LP  0  0  0  0  0  0  0  0  0  0  0  0  # atno 8557 bound_to 3386
    1.7710  -21.8492  -48.6487 LP  0  0  0  0  0  0  0  0  0  0  0  0  # atno 8562 bound_to 3407
    4.4805  -17.9199  -45.1992 LP  0  0  0  0  0  0  0  0  0  0  0  0  # atno 8563 bound_to 6290
    5.5550  -16.8641  -44.3443 LP  0  0  0  0  0  0  0  0  0  0  0  0  # atno 8564 bound_to 6290
    4.7608  -21.6871  -37.3140 LP  0  0  0  0  0  0  0  0  0  0  0  0  # atno 8567 bound_to 3062
    6.9619  -19.0616  -39.7416 LP  0  0  0  0  0  0  0  0  0  0  0  0  # atno 8568 bound_to 3065
    8.0105  -19.2022  -38.3702 LP  0  0  0  0  0  0  0  0  0  0  0  0  # atno 8569 bound_to 3065
   11.5309  -22.5603  -38.6588 LP  0  0  0  0  0  0  0  0  0  0  0  0  # atno 8570 bound_to 3132
   11.6544  -22.5845  -36.9313 LP  0  0  0  0  0  0  0  0  0  0  0  0  # atno 8571 bound_to 3132
    7.7544  -16.8340  -39.8772 LP  0  0  0  0  0  0  0  0  0  0  0  0  # atno 8572 bound_to 3204
    8.1128  -16.1678  -41.4353 LP  0  0  0  0  0  0  0  0  0  0  0  0  # atno 8573 bound_to 3204
    1.3190  -23.7489  -42.0851 LP  0  0  0  0  0  0  0  0  0  0  0  0  # atno 8574 bound_to 3287
    1.8415  -22.6525  -40.9936 LP  0  0  0  0  0  0  0  0  0  0  0  0  # atno 8575 bound_to 3287
    4.3048  -20.9233  -51.7391 LP  0  0  0  0  0  0  0  0  0  0  0  0  # atno 8576 bound_to 3363
    0.4152  -22.2649  -47.2485 LP  0  0  0  0  0  0  0  0  0  0  0  0  # atno 8577 bound_to 3389
    0.1150  -23.2640  -48.6312 LP  0  0  0  0  0  0  0  0  0  0  0  0  # atno 8578 bound_to 3389
    1.9109  -19.8165  -51.0653 LP  0  0  0  0  0  0  0  0  0  0  0  0  # atno 8579 bound_to 3340
    1.6573  -19.4442  -52.7378 LP  0  0  0  0  0  0  0  0  0  0  0  0  # atno 8580 bound_to 3340
    0.7744  -23.0733  -52.6011 LP  0  0  0  0  0  0  0  0  0  0  0  0  # atno 8581 bound_to 3366
    0.7858  -23.3293  -50.8881 LP  0  0  0  0  0  0  0  0  0  0  0  0  # atno 8582 bound_to 3366

> <Gold.Score>
     Fitness  S(hb_ext) S(vdw_ext)  S(hb_int)    S(int)      intcor
    -40.71       0.77     -29.73       0.00      -0.61      -0.76

> <Gold.Goldscore.Fitness>
-40.7143

> <Gold.Goldscore.Internal.Vdw>
-0.9183

> <Gold.Goldscore.Internal.Torsion>
-0.4560

> <Gold.Goldscore.External.Vdw>
-29.7259

> <Gold.Goldscore.Internal.HBond>
0.0000

> <Gold.Goldscore.External.HBond>
0.7683

> <Gold.Goldscore.Internal.Correction>
-0.7650

> <Gold.Goldscore.Hbonds>
donor molecule, donor type, donor heavy atom, donor atom, acceptor molecule, acceptor atom, score
      L1  H    10    23       P1  3045  0.13

> <Gold.Goldscore.Internal.Vdw.Weighted>
-0.9183

> <Gold.Goldscore.Internal.Torsion.Weighted>
-0.4560

> <Gold.Goldscore.External.Vdw.Weighted>
-40.8732

> <Gold.Goldscore.Internal.HBond.Weighted>
0.0000

> <Gold.Goldscore.External.HBond.Weighted>
0.7683

> <Gold.Goldscore.Internal.Correction.Weighted>
-0.7650

> <Gold.Rescore>
     Score     S(PLP)   S(hbond)     S(cho)   S(metal)  DE(clash)   DE(tors)     intcor
    -19.97      15.22       0.21       0.00       0.00       1.80       1.79       ----

> <Gold.PLP.Fitness>
-19.9743

> <Gold.PLP.PLP>
15.2229

> <Gold.PLP.part.hbond>
-2.0489

> <Gold.PLP.part.metal>
0.0000

> <Gold.PLP.part.buried>
18.7643

> <Gold.PLP.part.nonpolar>
-6.5296

> <Gold.PLP.part.repulsive>
6.5309

> <Gold.PLP.ligand.clash>
1.8050

> <Gold.PLP.ligand.torsion>
1.7914

> <Gold.PLP.Chemscore.Hbond>
0.2122

> <Gold.PLP.Chemscore.CHOScore>
0.0000

> <Gold.PLP.Chemscore.Metal>
0.0000

> <Gold.Chemscore.Hbonds>
donor molecule, donor type, donor heavy atom, donor atom, acceptor molecule, acceptor atom, score
      L1  H    10    23       P1  3045  0.93

> <Gold.PLP.Chemscore.Internal.Correction>
   9.000000E+99

