#       Name:                CT1002167954
#       Creating user name   hitesit
#       Creation time:       Sun Apr 16 02:22:35 2023


#       File generated by GOLD software.
#

@<TRIPOS>MOLECULE
CT1002167954|ligand_prepared|mol2|1|dock10
    29    30     1
SMALL
NO_CHARGES


@<TRIPOS>ATOM
      1 C1           1.4002 -28.0352 -48.7793 C.3            1 RES1               0.0000
      2 C2           0.9773 -27.0912 -47.6353 C.ar           1 RES1               0.0000
      3 C3           2.8262 -28.4778 -48.4645 C.2            1 RES1               0.0000
      4 C4           0.3844 -29.1721 -48.7919 C.2            1 RES1               0.0000
      5 C5           1.3894 -27.3694 -50.1750 C.3            1 RES1               0.0000
      6 C6          -0.0287 -27.4603 -46.7473 C.ar           1 RES1               0.0000
      7 C7           1.5846 -25.8516 -47.4538 C.ar           1 RES1               0.0000
      8 N8           3.0080 -29.7543 -48.0203 N.am           1 RES1               0.0000
      9 O9           3.7720 -27.7063 -48.5667 O.2            1 RES1               0.0000
     10 N10          0.8255 -30.4308 -48.4773 N.am           1 RES1               0.0000
     11 O11         -0.7973 -28.9865 -49.0551 O.2            1 RES1               0.0000
     12 C12          1.5810 -28.3482 -51.3228 C.3            1 RES1               0.0000
     13 C13         -0.4117 -26.6218 -45.7136 C.ar           1 RES1               0.0000
     14 C14          1.1999 -25.0144 -46.4195 C.ar           1 RES1               0.0000
     15 C15          2.0849 -30.7681 -48.0621 C.2            1 RES1               0.0000
     16 C16          0.2025 -25.3987 -45.5488 C.ar           1 RES1               0.0000
     17 O17          2.3914 -31.9136 -47.7442 O.2            1 RES1               0.0000
     18 H18          0.4333 -26.8491 -50.3106 H              1 RES1               0.0000
     19 H19          2.1883 -26.6186 -50.2143 H              1 RES1               0.0000
     20 H20         -0.5252 -28.4180 -46.8628 H              1 RES1               0.0000
     21 H21          2.3709 -25.5280 -48.1274 H              1 RES1               0.0000
     22 H22          3.9141 -29.9756 -47.6199 H              1 RES1               0.0000
     23 H23          0.1527 -31.1863 -48.5604 H              1 RES1               0.0000
     24 H24          1.5654 -27.8293 -52.2789 H              1 RES1               0.0000
     25 H25          2.5340 -28.8656 -51.2335 H              1 RES1               0.0000
     26 H26          0.7895 -29.0947 -51.3293 H              1 RES1               0.0000
     27 H27         -1.1982 -26.9283 -45.0319 H              1 RES1               0.0000
     28 H28          1.6857 -24.0524 -46.2939 H              1 RES1               0.0000
     29 H29         -0.0974 -24.7421 -44.7387 H              1 RES1               0.0000
@<TRIPOS>BOND
    1    1    2 1     
    2    1    3 1     
    3    1    4 1     
    4    1    5 1     
    5    2    6 ar    
    6    2    7 ar    
    7    3    8 1     
    8    3    9 2     
    9    4   10 1     
   10    4   11 2     
   11    5   12 1     
   12    5   18 1     
   13    5   19 1     
   14    6   13 ar    
   15    6   20 1     
   16    7   14 ar    
   17    7   21 1     
   18    8   15 1     
   19    8   22 1     
   20   10   15 1     
   21   10   23 1     
   22   12   24 1     
   23   12   25 1     
   24   12   26 1     
   25   13   16 ar    
   26   13   27 1     
   27   14   16 ar    
   28   14   28 1     
   29   15   17 2     
   30   16   29 1     
@<TRIPOS>SUBSTRUCTURE
      1 RES1           1
@<TRIPOS>SET
DONOR_HYDROGENS      STATIC     ATOMS    <user>   **** ""
2 22 23
ATOM$RED        STATIC     ATOMS    COLORGROUP SYSTEM
2 22 23
@<TRIPOS>COMMENT
> <Gold.Version>
2022.3.0

> <Gold.Id.Protein>
unknown|7kl0_clean|pdb

> <Gold.Protein.RotatedTorsions>
[ 3167 3155 3156 3157 ] final -177.60 input   96.64 | X-H torsion
[ 3215 3201 3202 3203 ] final  -34.52 input -100.55 | X-H torsion
[ 3255 3234 3235 3236 ] final   33.68 input   29.64 | X-H torsion
[ 3263 3245 3244 3242 ] final -147.03 input   60.01 | X-H torsion
[ 3290 3276 3277 3278 ] final  163.81 input   80.30 | X-H torsion
[ 3319 3312 3313 3314 ] final  -32.93 input  125.66 | X-H torsion
[ 3327 3317 3316 3313 ] final  148.04 input   60.01 | X-H torsion
[ 3352 3337 3338 3339 ] final  -84.14 input  120.41 | X-H torsion
[ 3394 3386 3387 3388 ] final -154.70 input  107.09 | X-H torsion
[ 3416 3407 3408 3409 ] final  113.51 input  119.47 | X-H torsion
[ 4557 4546 4545 4544 ] final   -6.28 input   60.03 | X-H torsion
[ 3081 3062 3063 3064 ] final   61.54 input  114.53 | X-H torsion
[ 3298 3287 3286 3284 ] final  117.87 input   60.01 | X-H torsion
[ 3370 3363 3364 3365 ] final  117.83 input  114.58 | X-H torsion
[ 3442 3428 3429 3430 ] final  -18.23 input  113.40 | X-H torsion
[ 8535 3041 3040 3039 ] final -149.40 input    0.00 | X-H torsion
[ 8540 3158 3157 3156 ] final   75.05 input    0.00 | X-H torsion
[ 8544 3237 3236 3235 ] final  -53.63 input    0.00 | X-H torsion
[ 8549 3279 3278 3277 ] final -121.44 input   -0.00 | X-H torsion
[ 8552 3315 3314 3313 ] final -125.78 input    0.00 | X-H torsion
[ 8563 6290 6289 6288 ] final  -27.61 input    0.00 | X-H torsion
[ 8568 3065 3064 3063 ] final  -75.50 input    0.00 | X-H torsion
[ 8570 3132 3131 3130 ] final  -21.02 input    0.00 | X-H torsion
[ 8572 3204 3203 3202 ] final -169.42 input   -0.00 | X-H torsion
[ 8577 3389 3388 3387 ] final  -62.60 input   -0.00 | X-H torsion
[ 8579 3340 3339 3338 ] final   52.55 input    0.00 | X-H torsion
[ 8581 3366 3365 3364 ] final   91.08 input   -0.00 | X-H torsion

> <Gold.Protein.ActiveResidues>
 ASP100  ILE101  ALA103  ARG104  GLU105  TYR106  TYR107  SER108  GLU109  ALA110 
 ASP111  ALA112  SER113  CYS115  LYS148  GLY149  LEU206  LEU207 

> <Gold.Protein.RotatedAtoms>
    4.0122  -21.1972  -37.1450 H   0  0  0  0  0  0  0  0  0  0  0  0  # atno 3081 bound_to 3062
    8.7864  -23.2741  -38.3226 H   0  0  0  0  0  0  0  0  0  0  0  0  # atno 3167 bound_to 3155
    8.5349  -20.2171  -39.8165 H   0  0  0  0  0  0  0  0  0  0  0  0  # atno 3215 bound_to 3201
    9.5242  -19.2101  -42.4159 H   0  0  0  0  0  0  0  0  0  0  0  0  # atno 3255 bound_to 3234
   13.9889  -18.5492  -46.1930 H   0  0  0  0  0  0  0  0  0  0  0  0  # atno 3263 bound_to 3245
    6.0820  -19.2661  -44.0306 H   0  0  0  0  0  0  0  0  0  0  0  0  # atno 3290 bound_to 3276
    1.2572  -22.8494  -41.4838 H   0  0  0  0  0  0  0  0  0  0  0  0  # atno 3298 bound_to 3287
    6.3354  -20.0647  -47.6517 H   0  0  0  0  0  0  0  0  0  0  0  0  # atno 3319 bound_to 3312
    6.3160  -23.1626  -51.2511 H   0  0  0  0  0  0  0  0  0  0  0  0  # atno 3327 bound_to 3317
    5.7150  -19.3850  -50.3283 H   0  0  0  0  0  0  0  0  0  0  0  0  # atno 3352 bound_to 3337
    4.9601  -21.1429  -52.8442 H   0  0  0  0  0  0  0  0  0  0  0  0  # atno 3370 bound_to 3363
    3.5106  -23.4617  -51.2449 H   0  0  0  0  0  0  0  0  0  0  0  0  # atno 3394 bound_to 3386
    2.9159  -20.6723  -49.2644 H   0  0  0  0  0  0  0  0  0  0  0  0  # atno 3416 bound_to 3407
   -0.1240  -20.5411  -49.4724 H   0  0  0  0  0  0  0  0  0  0  0  0  # atno 3442 bound_to 3428
    8.2688  -28.3234  -44.6591 H   0  0  0  0  0  0  0  0  0  0  0  0  # atno 4557 bound_to 4546
    8.7165  -28.0128  -46.2245 H   0  0  0  0  0  0  0  0  0  0  0  0  # atno 4558 bound_to 4546
    8.2127  -26.7742  -45.2449 H   0  0  0  0  0  0  0  0  0  0  0  0  # atno 4559 bound_to 4546
    6.6954  -21.9705  -38.6949 LP  0  0  0  0  0  0  0  0  0  0  0  0  # atno 8535 bound_to 3041
    6.2161  -23.6142  -38.9569 LP  0  0  0  0  0  0  0  0  0  0  0  0  # atno 8536 bound_to 3041
    8.9867  -21.5385  -38.1819 LP  0  0  0  0  0  0  0  0  0  0  0  0  # atno 8539 bound_to 3155
   10.1383  -20.8532  -42.4567 LP  0  0  0  0  0  0  0  0  0  0  0  0  # atno 8540 bound_to 3158
   11.5556  -20.5622  -41.5046 LP  0  0  0  0  0  0  0  0  0  0  0  0  # atno 8541 bound_to 3158
   10.2278  -20.5751  -39.5196 LP  0  0  0  0  0  0  0  0  0  0  0  0  # atno 8542 bound_to 3201
    8.7823  -18.0550  -41.3253 LP  0  0  0  0  0  0  0  0  0  0  0  0  # atno 8543 bound_to 3234
    9.2779  -20.2553  -44.2021 LP  0  0  0  0  0  0  0  0  0  0  0  0  # atno 8544 bound_to 3237
    7.8794  -21.2271  -43.8863 LP  0  0  0  0  0  0  0  0  0  0  0  0  # atno 8545 bound_to 3237
   13.5746  -17.5862  -47.4377 LP  0  0  0  0  0  0  0  0  0  0  0  0  # atno 8546 bound_to 3245
   13.1330  -19.1584  -47.4358 LP  0  0  0  0  0  0  0  0  0  0  0  0  # atno 8547 bound_to 3245
    7.2392  -18.5684  -45.1559 LP  0  0  0  0  0  0  0  0  0  0  0  0  # atno 8548 bound_to 3276
    6.0092  -18.2025  -48.3306 LP  0  0  0  0  0  0  0  0  0  0  0  0  # atno 8549 bound_to 3279
    7.0619  -17.9195  -46.9845 LP  0  0  0  0  0  0  0  0  0  0  0  0  # atno 8550 bound_to 3279
    7.4101  -21.4468  -47.7589 LP  0  0  0  0  0  0  0  0  0  0  0  0  # atno 8551 bound_to 3312
    3.8529  -20.4845  -49.8824 LP  0  0  0  0  0  0  0  0  0  0  0  0  # atno 8552 bound_to 3315
    4.6497  -19.7774  -48.5168 LP  0  0  0  0  0  0  0  0  0  0  0  0  # atno 8553 bound_to 3315
    5.4266  -22.1263  -50.3661 LP  0  0  0  0  0  0  0  0  0  0  0  0  # atno 8554 bound_to 3317
    6.3513  -23.2509  -49.6266 LP  0  0  0  0  0  0  0  0  0  0  0  0  # atno 8555 bound_to 3317
    6.5032  -19.4836  -51.8883 LP  0  0  0  0  0  0  0  0  0  0  0  0  # atno 8556 bound_to 3337
    3.2336  -21.7909  -50.7930 LP  0  0  0  0  0  0  0  0  0  0  0  0  # atno 8557 bound_to 3386
    1.8030  -21.8498  -48.5901 LP  0  0  0  0  0  0  0  0  0  0  0  0  # atno 8562 bound_to 3407
    4.7654  -17.6088  -43.9722 LP  0  0  0  0  0  0  0  0  0  0  0  0  # atno 8563 bound_to 6290
    5.2701  -17.1753  -45.5713 LP  0  0  0  0  0  0  0  0  0  0  0  0  # atno 8564 bound_to 6290
    4.2129  -22.1684  -38.5887 LP  0  0  0  0  0  0  0  0  0  0  0  0  # atno 8567 bound_to 3062
    7.6609  -19.9560  -39.2567 LP  0  0  0  0  0  0  0  0  0  0  0  0  # atno 8568 bound_to 3065
    7.3114  -18.3078  -38.8551 LP  0  0  0  0  0  0  0  0  0  0  0  0  # atno 8569 bound_to 3065
   11.6698  -22.2952  -36.9782 LP  0  0  0  0  0  0  0  0  0  0  0  0  # atno 8570 bound_to 3132
   11.5155  -22.8496  -38.6119 LP  0  0  0  0  0  0  0  0  0  0  0  0  # atno 8571 bound_to 3132
    7.4793  -16.6058  -41.3860 LP  0  0  0  0  0  0  0  0  0  0  0  0  # atno 8572 bound_to 3204
    8.3879  -16.3961  -39.9264 LP  0  0  0  0  0  0  0  0  0  0  0  0  # atno 8573 bound_to 3204
    2.7214  -23.2876  -40.9246 LP  0  0  0  0  0  0  0  0  0  0  0  0  # atno 8574 bound_to 3287
    1.9586  -24.2106  -42.0350 LP  0  0  0  0  0  0  0  0  0  0  0  0  # atno 8575 bound_to 3287
    3.5683  -20.2347  -52.2888 LP  0  0  0  0  0  0  0  0  0  0  0  0  # atno 8576 bound_to 3363
    0.0127  -23.0921  -48.7007 LP  0  0  0  0  0  0  0  0  0  0  0  0  # atno 8577 bound_to 3389
    0.5174  -22.4368  -47.1789 LP  0  0  0  0  0  0  0  0  0  0  0  0  # atno 8578 bound_to 3389
    1.8072  -18.9239  -52.4020 LP  0  0  0  0  0  0  0  0  0  0  0  0  # atno 8579 bound_to 3340
    1.7610  -20.3367  -51.4011 LP  0  0  0  0  0  0  0  0  0  0  0  0  # atno 8580 bound_to 3340
    1.0101  -24.0158  -51.9282 LP  0  0  0  0  0  0  0  0  0  0  0  0  # atno 8581 bound_to 3366
    0.5502  -22.3868  -51.5610 LP  0  0  0  0  0  0  0  0  0  0  0  0  # atno 8582 bound_to 3366

> <Gold.Score>
     Fitness  S(hb_ext) S(vdw_ext)  S(hb_int)    S(int)      intcor
     22.49       0.00      18.66       0.00      -3.17      -0.76

> <Gold.Goldscore.Fitness>
22.4910

> <Gold.Goldscore.Internal.Vdw>
-3.4296

> <Gold.Goldscore.Internal.Torsion>
-0.5076

> <Gold.Goldscore.External.Vdw>
18.6642

> <Gold.Goldscore.Internal.HBond>
0.0000

> <Gold.Goldscore.External.HBond>
0.0000

> <Gold.Goldscore.Internal.Correction>
-0.7650

> <Gold.Goldscore.Internal.Vdw.Weighted>
-3.4296

> <Gold.Goldscore.Internal.Torsion.Weighted>
-0.5076

> <Gold.Goldscore.External.Vdw.Weighted>
25.6632

> <Gold.Goldscore.Internal.HBond.Weighted>
0.0000

> <Gold.Goldscore.External.HBond.Weighted>
0.0000

> <Gold.Goldscore.Internal.Correction.Weighted>
-0.7650

> <Gold.Rescore>
     Score     S(PLP)   S(hbond)     S(cho)   S(metal)  DE(clash)   DE(tors)     intcor
     20.80     -24.23       0.00       0.00       0.00       1.09       1.17       ----

> <Gold.PLP.Fitness>
20.7950

> <Gold.PLP.PLP>
-24.2321

> <Gold.PLP.part.hbond>
-0.9577

> <Gold.PLP.part.metal>
0.0000

> <Gold.PLP.part.buried>
-3.0866

> <Gold.PLP.part.nonpolar>
-21.9197

> <Gold.PLP.part.repulsive>
0.3001

> <Gold.PLP.ligand.clash>
1.0944

> <Gold.PLP.ligand.torsion>
1.1713

> <Gold.PLP.Chemscore.Hbond>
0.0000

> <Gold.PLP.Chemscore.CHOScore>
0.0000

> <Gold.PLP.Chemscore.Metal>
0.0000

> <Gold.PLP.Chemscore.Internal.Correction>
   9.000000E+99

