#       Name:                CT1002167954
#       Creating user name   hitesit
#       Creation time:       Sun Apr 16 02:23:18 2023


#       File generated by GOLD software.
#

@<TRIPOS>MOLECULE
CT1002167954|ligand_prepared|mol2|1|dock5
    29    30     1
SMALL
NO_CHARGES


@<TRIPOS>ATOM
      1 C1          -6.6698 -15.7220 -17.9859 C.3            1 RES1               0.0000
      2 C2          -7.4292 -16.8513 -17.2602 C.ar           1 RES1               0.0000
      3 C3          -7.6075 -14.5185 -18.0049 C.2            1 RES1               0.0000
      4 C4          -5.3844 -15.4969 -17.1973 C.2            1 RES1               0.0000
      5 C5          -6.2823 -16.0657 -19.4431 C.3            1 RES1               0.0000
      6 C6          -8.4709 -16.5566 -16.3857 C.ar           1 RES1               0.0000
      7 C7          -7.1018 -18.1903 -17.4566 C.ar           1 RES1               0.0000
      8 N8          -7.3240 -13.4833 -17.1635 N.am           1 RES1               0.0000
      9 O9          -8.6028 -14.4950 -18.7185 O.2            1 RES1               0.0000
     10 N10         -5.2251 -14.2950 -16.5587 N.am           1 RES1               0.0000
     11 O11         -4.5156 -16.3558 -17.1095 O.2            1 RES1               0.0000
     12 C12         -5.7517 -14.8794 -20.2326 C.3            1 RES1               0.0000
     13 C13         -9.1623 -17.5640 -15.7335 C.ar           1 RES1               0.0000
     14 C14         -7.7944 -19.1962 -16.8032 C.ar           1 RES1               0.0000
     15 C15         -6.1501 -13.2897 -16.4807 C.2            1 RES1               0.0000
     16 C16         -8.8250 -18.8843 -15.9421 C.ar           1 RES1               0.0000
     17 O17         -5.9548 -12.2600 -15.8414 O.2            1 RES1               0.0000
     18 H18         -5.5167 -16.8513 -19.4289 H              1 RES1               0.0000
     19 H19         -7.1643 -16.4664 -19.9579 H              1 RES1               0.0000
     20 H20         -8.7490 -15.5233 -16.2072 H              1 RES1               0.0000
     21 H21         -6.2940 -18.4591 -18.1287 H              1 RES1               0.0000
     22 H22         -8.0521 -12.7889 -17.0296 H              1 RES1               0.0000
     23 H23         -4.3344 -14.1348 -16.0990 H              1 RES1               0.0000
     24 H24         -5.4950 -15.1753 -21.2476 H              1 RES1               0.0000
     25 H25         -6.4971 -14.0887 -20.2883 H              1 RES1               0.0000
     26 H26         -4.8593 -14.4713 -19.7625 H              1 RES1               0.0000
     27 H27         -9.9717 -17.3132 -15.0558 H              1 RES1               0.0000
     28 H28         -7.5251 -20.2339 -16.9699 H              1 RES1               0.0000
     29 H29         -9.3670 -19.6734 -15.4314 H              1 RES1               0.0000
@<TRIPOS>BOND
    1    1    2 1     
    2    1    3 1     
    3    1    4 1     
    4    1    5 1     
    5    2    6 ar    
    6    2    7 ar    
    7    3    8 1     
    8    3    9 2     
    9    4   10 1     
   10    4   11 2     
   11    5   12 1     
   12    5   18 1     
   13    5   19 1     
   14    6   13 ar    
   15    6   20 1     
   16    7   14 ar    
   17    7   21 1     
   18    8   15 1     
   19    8   22 1     
   20   10   15 1     
   21   10   23 1     
   22   12   24 1     
   23   12   25 1     
   24   12   26 1     
   25   13   16 ar    
   26   13   27 1     
   27   14   16 ar    
   28   14   28 1     
   29   15   17 2     
   30   16   29 1     
@<TRIPOS>SUBSTRUCTURE
      1 RES1           1
@<TRIPOS>SET
DONOR_HYDROGENS      STATIC     ATOMS    <user>   **** ""
2 22 23
ATOM$RED        STATIC     ATOMS    COLORGROUP SYSTEM
2 22 23
@<TRIPOS>COMMENT
> <Gold.Version>
2022.3.0

> <Gold.Id.Protein>
unknown|7kl0_clean|pdb

> <Gold.Protein.RotatedTorsions>
[ 6433 6412 6411 6409 ] final -118.02 input   60.01 | X-H torsion
[ 1391 1375 1376 1377 ] final   86.31 input  130.72 | X-H torsion
[ 1421 1411 1412 1413 ] final   51.60 input  114.05 | X-H torsion
[ 6231 6210 6209 6207 ] final -123.74 input   60.00 | X-H torsion
[ 7222 7206 7205 7202 ] final   70.19 input   60.00 | X-H torsion
[ 1362 1344 1345 1346 ] final  141.77 input   95.07 | X-H torsion
[ 5430 5408 5407 5405 ] final -160.84 input   60.00 | X-H torsion
[  580  562  563  564 ] final  -52.00 input   55.02 | X-H torsion
[ 1326 1306 1307 1308 ] final -118.54 input  117.83 | X-H torsion
[  608  597  598  599 ] final  159.44 input   37.41 | X-H torsion
[  546  536  537  538 ] final  -91.96 input  119.99 | X-H torsion
[ 4227 4194 4193 4192 ] final -167.29 input   60.00 | X-H torsion
[ 1262 1249 1250 1251 ] final  115.03 input  103.51 | X-H torsion
[ 1425 1416 1415 1412 ] final  106.39 input   60.01 | X-H torsion
[ 1504 1492 1493 1494 ] final -175.42 input  118.60 | X-H torsion
[ 1535 1518 1519 1520 ] final -101.65 input  116.53 | X-H torsion
[  528  521  522  523 ] final  -20.24 input   38.54 | X-H torsion
[ 5354 5333 5331 5328 ] final  176.70 input   59.99 | X-H torsion
[  504  482  483  484 ] final -172.18 input   40.33 | X-H torsion
[  612  602  601  598 ] final  -20.53 input   59.99 | X-H torsion
[  636  620  621  622 ] final -103.10 input   33.60 | X-H torsion
[  668  652  653  654 ] final  141.33 input   67.24 | X-H torsion
[ 6843 6822 6821 6819 ] final  -68.78 input   59.97 | X-H torsion
[ 1596 1580 1579 1578 ] final  151.23 input   59.99 | X-H torsion
[ 5797 5776 5775 5773 ] final  144.18 input   60.02 | X-H torsion
[ 6661 6649 6650 6651 ] final   35.33 input   84.69 | X-H torsion
[ 6691 6674 6675 6676 ] final -105.73 input  117.08 | X-H torsion
[ 6727 6709 6710 6711 ] final -166.29 input  123.04 | X-H torsion
[ 6635 6620 6621 6622 ] final -166.01 input  122.94 | X-H torsion
[ 1613 1589 1588 1587 ] final  -71.72 input   59.99 | X-H torsion
[ 4214 4203 4202 4201 ] final  -22.37 input   60.00 | X-H torsion
[ 8535 1347 1346 1345 ] final -173.44 input   -0.00 | X-H torsion
[ 8582  539  538  537 ] final  142.99 input    0.00 | X-H torsion
[ 8586 1252 1251 1250 ] final  176.68 input    0.00 | X-H torsion
[ 8588 1378 1377 1376 ] final  154.18 input   -0.00 | X-H torsion
[ 8593 1279 1278 1277 ] final  151.01 input    0.00 | X-H torsion
[ 8596 1309 1308 1307 ] final -138.58 input    0.00 | X-H torsion
[ 8602  565  564  563 ] final  -52.64 input    0.00 | X-H torsion
[ 8625  524  523  522 ] final  -32.80 input    0.00 | X-H torsion
[ 8635 1414 1413 1412 ] final  176.29 input    0.00 | X-H torsion
[ 8638 1495 1494 1493 ] final  -76.44 input    0.00 | X-H torsion
[ 8642  600  599  598 ] final   64.00 input    0.00 | X-H torsion
[ 8650  485  484  483 ] final  107.52 input    0.00 | X-H torsion
[ 8661  466  465  464 ] final   30.79 input   -0.00 | X-H torsion
[ 8712 6623 6622 6621 ] final -125.85 input    0.00 | X-H torsion
[ 8729 6598 6597 6596 ] final  -99.73 input   -0.00 | X-H torsion
[ 8732 6652 6651 6650 ] final    3.61 input   -0.00 | X-H torsion

> <Gold.Protein.ActiveResidues>
 GLU18   GLY20   LYS21   GLY22   ALA23   PHE24   SER25   VAL26   VAL27   ARG28  
 ILE44   ASN45   THR46   LYS47   LYS48   LEU49   SER50   ARG52   ASP53   HIS54  
 LYS56   ARG59   GLY95   GLU96   LEU97   PHE98   GLU99   ASP100  ILE101  VAL102 
 ALA103  GLU105  TYR106  HIS133  ARG134  ASN135  LEU136  LYS137  PRO138  GLU139 
 ASN140  LEU142  ASP156  GLY158  LEU159  ILE161  TRP170  PHE171  GLY172  PHE173 
 ALA174  GLY175  THR176  PRO177  GLY178  TYR179  LEU180  VAL184  LEU185  LYS187 
 TYR190  VAL201  ILE202  TYR204  ILE205  LEU206  VAL208  GLY209  TYR210  PRO211 
 PRO212  PHE213  TRP214  ASP215  GLU216  ASP217  GLN218  HIS219  LEU221  TYR222 
 GLN224  ILE225  ALA229  TYR230  ASP231  PHE232  PRO233  SER234  PRO235  GLU236 
 TRP237 

> <Gold.Protein.RotatedAtoms>
   -6.6955  -22.7319  -21.7873 H   0  0  0  0  0  0  0  0  0  0  0  0  # atno 504  bound_to 482 
   -9.2652  -19.6096  -19.9646 H   0  0  0  0  0  0  0  0  0  0  0  0  # atno 528  bound_to 521 
  -10.8044  -17.0326  -19.8838 H   0  0  0  0  0  0  0  0  0  0  0  0  # atno 546  bound_to 536 
  -12.9788  -17.6216  -18.3430 H   0  0  0  0  0  0  0  0  0  0  0  0  # atno 580  bound_to 562 
  -14.5144  -19.3499  -18.7491 H   0  0  0  0  0  0  0  0  0  0  0  0  # atno 608  bound_to 597 
  -12.8196  -19.8449  -20.8834 H   0  0  0  0  0  0  0  0  0  0  0  0  # atno 612  bound_to 602 
  -12.2320  -22.2207  -19.9530 H   0  0  0  0  0  0  0  0  0  0  0  0  # atno 636  bound_to 620 
  -10.2304  -24.3568  -21.9547 H   0  0  0  0  0  0  0  0  0  0  0  0  # atno 668  bound_to 652 
  -16.9075  -21.8722  -16.9072 H   0  0  0  0  0  0  0  0  0  0  0  0  # atno 1262 bound_to 1249
  -22.4578  -21.2898  -13.7370 H   0  0  0  0  0  0  0  0  0  0  0  0  # atno 1326 bound_to 1306
  -21.1695  -18.2623  -11.7423 H   0  0  0  0  0  0  0  0  0  0  0  0  # atno 1362 bound_to 1344
  -23.8535  -17.4105  -13.9176 H   0  0  0  0  0  0  0  0  0  0  0  0  # atno 1391 bound_to 1375
  -23.6170  -14.2973  -16.9415 H   0  0  0  0  0  0  0  0  0  0  0  0  # atno 1421 bound_to 1411
  -24.4972  -11.2411  -19.1037 H   0  0  0  0  0  0  0  0  0  0  0  0  # atno 1425 bound_to 1416
  -24.1086  -12.2018  -20.9054 H   0  0  0  0  0  0  0  0  0  0  0  0  # atno 1504 bound_to 1492
  -24.2064  -15.9350  -20.9621 H   0  0  0  0  0  0  0  0  0  0  0  0  # atno 1535 bound_to 1518
    7.6768   -6.2942  -22.3603 H   0  0  0  0  0  0  0  0  0  0  0  0  # atno 1596 bound_to 1580
    8.2254   -4.9414  -21.5752 H   0  0  0  0  0  0  0  0  0  0  0  0  # atno 1597 bound_to 1580
    8.8371   -5.3419  -23.0629 H   0  0  0  0  0  0  0  0  0  0  0  0  # atno 1598 bound_to 1580
  -19.0171  -10.7786  -25.4822 H   0  0  0  0  0  0  0  0  0  0  0  0  # atno 1613 bound_to 1589
  -18.8390  -11.9651  -24.3380 H   0  0  0  0  0  0  0  0  0  0  0  0  # atno 1614 bound_to 1589
  -18.0186  -12.0686  -25.7749 H   0  0  0  0  0  0  0  0  0  0  0  0  # atno 1615 bound_to 1589
   -5.4442  -13.0453  -30.4373 H   0  0  0  0  0  0  0  0  0  0  0  0  # atno 4214 bound_to 4203
   -7.0838  -13.0405  -30.1923 H   0  0  0  0  0  0  0  0  0  0  0  0  # atno 4215 bound_to 4203
   -6.1473  -14.2297  -29.5159 H   0  0  0  0  0  0  0  0  0  0  0  0  # atno 4216 bound_to 4203
   -2.7755  -12.5874  -16.0500 H   0  0  0  0  0  0  0  0  0  0  0  0  # atno 4227 bound_to 4194
   -4.2060  -12.1941  -15.3107 H   0  0  0  0  0  0  0  0  0  0  0  0  # atno 4228 bound_to 4194
   -2.9675  -11.0935  -15.3588 H   0  0  0  0  0  0  0  0  0  0  0  0  # atno 4229 bound_to 4194
   -2.8050  -10.1518  -14.5584 H   0  0  0  0  0  0  0  0  0  0  0  0  # atno 5354 bound_to 5333
   -8.1584  -12.2039  -10.7263 H   0  0  0  0  0  0  0  0  0  0  0  0  # atno 5430 bound_to 5408
    4.7258    0.3068  -13.6732 H   0  0  0  0  0  0  0  0  0  0  0  0  # atno 5797 bound_to 5776
  -16.6351   -6.1237   -2.1675 H   0  0  0  0  0  0  0  0  0  0  0  0  # atno 6231 bound_to 6210
  -19.0713   -9.7546   -1.3040 H   0  0  0  0  0  0  0  0  0  0  0  0  # atno 6433 bound_to 6412
    4.8306   -1.2652  -30.8701 H   0  0  0  0  0  0  0  0  0  0  0  0  # atno 6635 bound_to 6620
    2.7082    0.7467  -29.8671 H   0  0  0  0  0  0  0  0  0  0  0  0  # atno 6661 bound_to 6649
    0.1994    0.7867  -28.9678 H   0  0  0  0  0  0  0  0  0  0  0  0  # atno 6691 bound_to 6674
   -3.1786    2.4621  -28.5560 H   0  0  0  0  0  0  0  0  0  0  0  0  # atno 6727 bound_to 6709
   -5.8825   -1.6974  -16.8544 H   0  0  0  0  0  0  0  0  0  0  0  0  # atno 6843 bound_to 6822
  -25.2714   -6.8124    3.6687 H   0  0  0  0  0  0  0  0  0  0  0  0  # atno 7222 bound_to 7206
  -24.6163  -14.6047  -13.3863 LP  0  0  0  0  0  0  0  0  0  0  0  0  # atno 8535 bound_to 1347
  -23.8883  -14.4597  -11.8214 LP  0  0  0  0  0  0  0  0  0  0  0  0  # atno 8536 bound_to 1347
  -20.4156   -9.5129   -2.1892 LP  0  0  0  0  0  0  0  0  0  0  0  0  # atno 8539 bound_to 6412
  -19.1829   -8.4444   -2.2633 LP  0  0  0  0  0  0  0  0  0  0  0  0  # atno 8540 bound_to 6412
  -22.6675  -16.2302  -13.3818 LP  0  0  0  0  0  0  0  0  0  0  0  0  # atno 8545 bound_to 1375
  -24.0377  -14.0403  -15.2585 LP  0  0  0  0  0  0  0  0  0  0  0  0  # atno 8546 bound_to 1411
  -17.0830   -7.1606   -0.9958 LP  0  0  0  0  0  0  0  0  0  0  0  0  # atno 8553 bound_to 6210
  -17.0949   -7.6351   -2.5583 LP  0  0  0  0  0  0  0  0  0  0  0  0  # atno 8554 bound_to 6210
  -24.8240   -8.0944    4.5654 LP  0  0  0  0  0  0  0  0  0  0  0  0  # atno 8565 bound_to 7206
  -26.3502   -7.5212    4.6594 LP  0  0  0  0  0  0  0  0  0  0  0  0  # atno 8566 bound_to 7206
  -22.7738  -18.5407  -12.3847 LP  0  0  0  0  0  0  0  0  0  0  0  0  # atno 8581 bound_to 1344
  -13.0628  -16.5509  -15.7488 LP  0  0  0  0  0  0  0  0  0  0  0  0  # atno 8582 bound_to 539 
  -11.4348  -16.4865  -16.3368 LP  0  0  0  0  0  0  0  0  0  0  0  0  # atno 8583 bound_to 539 
   -9.0514  -11.5441   -9.5358 LP  0  0  0  0  0  0  0  0  0  0  0  0  # atno 8584 bound_to 5408
   -7.8169  -12.5494   -9.1726 LP  0  0  0  0  0  0  0  0  0  0  0  0  # atno 8585 bound_to 5408
  -20.2384  -19.4129  -16.0695 LP  0  0  0  0  0  0  0  0  0  0  0  0  # atno 8586 bound_to 1252
  -18.5313  -19.7054  -16.0535 LP  0  0  0  0  0  0  0  0  0  0  0  0  # atno 8587 bound_to 1252
  -26.2054  -14.5113  -14.8518 LP  0  0  0  0  0  0  0  0  0  0  0  0  # atno 8588 bound_to 1378
  -25.8661  -16.1971  -15.0592 LP  0  0  0  0  0  0  0  0  0  0  0  0  # atno 8589 bound_to 1378
  -14.2593  -16.4223  -18.4198 LP  0  0  0  0  0  0  0  0  0  0  0  0  # atno 8592 bound_to 562 
  -24.4421  -19.9659  -13.4913 LP  0  0  0  0  0  0  0  0  0  0  0  0  # atno 8593 bound_to 1279
  -24.1382  -19.4331  -15.1111 LP  0  0  0  0  0  0  0  0  0  0  0  0  # atno 8594 bound_to 1279
  -21.1758  -20.1163  -13.5050 LP  0  0  0  0  0  0  0  0  0  0  0  0  # atno 8595 bound_to 1306
  -24.6126  -17.9593  -11.6379 LP  0  0  0  0  0  0  0  0  0  0  0  0  # atno 8596 bound_to 1309
  -24.4378  -19.2265  -10.4701 LP  0  0  0  0  0  0  0  0  0  0  0  0  # atno 8597 bound_to 1309
  -15.9728  -20.4698  -16.5577 LP  0  0  0  0  0  0  0  0  0  0  0  0  # atno 8602 bound_to 565 
  -16.2427  -20.7534  -18.2449 LP  0  0  0  0  0  0  0  0  0  0  0  0  # atno 8603 bound_to 565 
  -13.0317  -19.7269  -17.8964 LP  0  0  0  0  0  0  0  0  0  0  0  0  # atno 8604 bound_to 597 
  -10.3075  -19.1018  -18.6553 LP  0  0  0  0  0  0  0  0  0  0  0  0  # atno 8625 bound_to 524 
  -10.2615  -17.4983  -18.0022 LP  0  0  0  0  0  0  0  0  0  0  0  0  # atno 8626 bound_to 524 
  -12.3501  -16.7711  -20.6764 LP  0  0  0  0  0  0  0  0  0  0  0  0  # atno 8627 bound_to 536 
  -18.3377  -22.6778  -17.5172 LP  0  0  0  0  0  0  0  0  0  0  0  0  # atno 8630 bound_to 1249
  -23.8927  -12.6851  -18.6596 LP  0  0  0  0  0  0  0  0  0  0  0  0  # atno 8631 bound_to 1416
  -23.0194  -11.3249  -18.4278 LP  0  0  0  0  0  0  0  0  0  0  0  0  # atno 8632 bound_to 1416
  -26.1614  -14.8913  -19.0821 LP  0  0  0  0  0  0  0  0  0  0  0  0  # atno 8635 bound_to 1414
  -24.6378  -14.6882  -18.2839 LP  0  0  0  0  0  0  0  0  0  0  0  0  # atno 8636 bound_to 1414
  -25.3789  -13.3926  -21.1316 LP  0  0  0  0  0  0  0  0  0  0  0  0  # atno 8637 bound_to 1492
  -23.3682  -16.1203  -23.2812 LP  0  0  0  0  0  0  0  0  0  0  0  0  # atno 8638 bound_to 1495
  -22.9232  -17.0991  -21.9233 LP  0  0  0  0  0  0  0  0  0  0  0  0  # atno 8639 bound_to 1495
  -25.6461  -14.9393  -20.8707 LP  0  0  0  0  0  0  0  0  0  0  0  0  # atno 8640 bound_to 1518
   -9.6414  -20.2966  -21.5387 LP  0  0  0  0  0  0  0  0  0  0  0  0  # atno 8641 bound_to 521 
  -11.2528  -20.8082  -18.0512 LP  0  0  0  0  0  0  0  0  0  0  0  0  # atno 8642 bound_to 600 
  -10.6435  -21.0620  -19.6526 LP  0  0  0  0  0  0  0  0  0  0  0  0  # atno 8643 bound_to 600 
   -1.9336   -8.7776  -14.5961 LP  0  0  0  0  0  0  0  0  0  0  0  0  # atno 8648 bound_to 5333
   -2.9053   -9.1661  -15.8497 LP  0  0  0  0  0  0  0  0  0  0  0  0  # atno 8649 bound_to 5333
   -8.8215  -19.6837  -23.5015 LP  0  0  0  0  0  0  0  0  0  0  0  0  # atno 8650 bound_to 485 
   -7.5155  -18.8918  -22.6847 LP  0  0  0  0  0  0  0  0  0  0  0  0  # atno 8651 bound_to 485 
   -7.2134  -21.5753  -23.0023 LP  0  0  0  0  0  0  0  0  0  0  0  0  # atno 8652 bound_to 482 
   -7.0785  -24.8301  -20.9916 LP  0  0  0  0  0  0  0  0  0  0  0  0  # atno 8661 bound_to 466 
   -8.4050  -23.7387  -20.7696 LP  0  0  0  0  0  0  0  0  0  0  0  0  # atno 8662 bound_to 466 
  -13.9311  -19.8570  -22.0721 LP  0  0  0  0  0  0  0  0  0  0  0  0  # atno 8663 bound_to 602 
  -12.7964  -21.0292  -21.9995 LP  0  0  0  0  0  0  0  0  0  0  0  0  # atno 8664 bound_to 602 
  -13.0943  -23.5311  -19.1611 LP  0  0  0  0  0  0  0  0  0  0  0  0  # atno 8665 bound_to 620 
  -10.2306  -25.5317  -20.6566 LP  0  0  0  0  0  0  0  0  0  0  0  0  # atno 8672 bound_to 652 
   -6.5493   -1.1382  -18.2295 LP  0  0  0  0  0  0  0  0  0  0  0  0  # atno 8689 bound_to 6822
   -7.3089   -2.2942  -17.3616 LP  0  0  0  0  0  0  0  0  0  0  0  0  # atno 8690 bound_to 6822
    1.5817   -0.6222  -27.1602 LP  0  0  0  0  0  0  0  0  0  0  0  0  # atno 8712 bound_to 6623
    3.1314   -0.5966  -26.3871 LP  0  0  0  0  0  0  0  0  0  0  0  0  # atno 8713 bound_to 6623
    5.3342   -0.9548  -12.8457 LP  0  0  0  0  0  0  0  0  0  0  0  0  # atno 8722 bound_to 5776
    6.3070    0.2788  -13.2912 LP  0  0  0  0  0  0  0  0  0  0  0  0  # atno 8723 bound_to 5776
    3.4052    0.7798  -28.2552 LP  0  0  0  0  0  0  0  0  0  0  0  0  # atno 8724 bound_to 6649
   -0.7023    1.6534  -27.7401 LP  0  0  0  0  0  0  0  0  0  0  0  0  # atno 8725 bound_to 6674
   -1.8464    2.4947  -29.6915 LP  0  0  0  0  0  0  0  0  0  0  0  0  # atno 8728 bound_to 6709
    1.4474   -0.9825  -30.2868 LP  0  0  0  0  0  0  0  0  0  0  0  0  # atno 8729 bound_to 6598
    2.0306   -2.5071  -30.8661 LP  0  0  0  0  0  0  0  0  0  0  0  0  # atno 8730 bound_to 6598
    3.6738    0.0515  -30.7595 LP  0  0  0  0  0  0  0  0  0  0  0  0  # atno 8731 bound_to 6620
    1.1867    1.8756  -30.9816 LP  0  0  0  0  0  0  0  0  0  0  0  0  # atno 8732 bound_to 6652
   -0.4655    1.3577  -31.0288 LP  0  0  0  0  0  0  0  0  0  0  0  0  # atno 8733 bound_to 6652

> <Gold.Score>
     Fitness  S(hb_ext) S(vdw_ext)  S(hb_int)    S(int)      intcor
     28.38       5.19      17.62       0.00      -1.04      -0.76

> <Gold.Goldscore.Fitness>
28.3783

> <Gold.Goldscore.Internal.Vdw>
-1.2728

> <Gold.Goldscore.Internal.Torsion>
-0.5270

> <Gold.Goldscore.External.Vdw>
17.6204

> <Gold.Goldscore.Internal.HBond>
0.0000

> <Gold.Goldscore.External.HBond>
5.1915

> <Gold.Goldscore.Internal.Correction>
-0.7585

> <Gold.Goldscore.Hbonds>
donor molecule, donor type, donor heavy atom, donor atom, acceptor molecule, acceptor atom, score
      P1  H  4194  4228       L1    17  0.87

> <Gold.Goldscore.Internal.Vdw.Weighted>
-1.2728

> <Gold.Goldscore.Internal.Torsion.Weighted>
-0.5270

> <Gold.Goldscore.External.Vdw.Weighted>
24.2281

> <Gold.Goldscore.Internal.HBond.Weighted>
0.0000

> <Gold.Goldscore.External.HBond.Weighted>
5.1915

> <Gold.Goldscore.Internal.Correction.Weighted>
-0.7585

> <Gold.Rescore>
     Score     S(PLP)   S(hbond)     S(cho)   S(metal)  DE(clash)   DE(tors)     intcor
     18.19     -17.53       1.00       0.00       0.00       0.38       0.98       ----

> <Gold.PLP.Fitness>
18.1877

> <Gold.PLP.PLP>
-17.5266

> <Gold.PLP.part.hbond>
-2.0000

> <Gold.PLP.part.metal>
0.0000

> <Gold.PLP.part.buried>
2.9260

> <Gold.PLP.part.nonpolar>
-25.3552

> <Gold.PLP.part.repulsive>
3.3968

> <Gold.PLP.ligand.clash>
0.3772

> <Gold.PLP.ligand.torsion>
0.9809

> <Gold.PLP.Chemscore.Hbond>
1.0000

> <Gold.PLP.Chemscore.CHOScore>
0.0000

> <Gold.PLP.Chemscore.Metal>
0.0000

> <Gold.Chemscore.Hbonds>
donor molecule, donor type, donor heavy atom, donor atom, acceptor molecule, acceptor atom, score
      P1  H  4194  4228       L1    17  1.00

> <Gold.PLP.Chemscore.Internal.Correction>
   9.000000E+99

