#       Name:                CT1002167954
#       Creating user name   hitesit
#       Creation time:       Sun Apr 16 02:23:16 2023


#       File generated by GOLD software.
#

@<TRIPOS>MOLECULE
CT1002167954|ligand_prepared|mol2|1|dock4
    29    30     1
SMALL
NO_CHARGES


@<TRIPOS>ATOM
      1 C1          -7.6758 -15.9640 -17.8807 C.3            1 RES1               0.0000
      2 C2          -8.1839 -17.2600 -17.2165 C.ar           1 RES1               0.0000
      3 C3          -7.3678 -14.9928 -16.7449 C.2            1 RES1               0.0000
      4 C4          -6.4583 -16.3584 -18.7094 C.2            1 RES1               0.0000
      5 C5          -8.7042 -15.3024 -18.8274 C.3            1 RES1               0.0000
      6 C6          -9.4735 -17.3321 -16.6984 C.ar           1 RES1               0.0000
      7 C7          -7.3771 -18.3903 -17.1170 C.ar           1 RES1               0.0000
      8 N8          -6.0566 -14.7594 -16.4513 N.am           1 RES1               0.0000
      9 O9          -8.2619 -14.4702 -16.0909 O.2            1 RES1               0.0000
     10 N10         -5.2377 -15.8615 -18.3339 N.am           1 RES1               0.0000
     11 O11         -6.5425 -17.1084 -19.6742 O.2            1 RES1               0.0000
     12 C12         -8.1067 -14.2379 -19.7340 C.3            1 RES1               0.0000
     13 C13         -9.9407 -18.4931 -16.1050 C.ar           1 RES1               0.0000
     14 C14         -7.8462 -19.5503 -16.5230 C.ar           1 RES1               0.0000
     15 C15         -4.9772 -15.1046 -17.2242 C.2            1 RES1               0.0000
     16 C16         -9.1277 -19.6030 -16.0173 C.ar           1 RES1               0.0000
     17 O17         -3.8439 -14.7410 -16.9232 O.2            1 RES1               0.0000
     18 H18         -9.1620 -16.0805 -19.4506 H              1 RES1               0.0000
     19 H19         -9.4981 -14.8465 -18.2232 H              1 RES1               0.0000
     20 H20        -10.1270 -16.4680 -16.7561 H              1 RES1               0.0000
     21 H21         -6.3651 -18.3715 -17.5070 H              1 RES1               0.0000
     22 H22         -5.8605 -14.2842 -15.5760 H              1 RES1               0.0000
     23 H23         -4.4503 -16.0756 -18.9377 H              1 RES1               0.0000
     24 H24         -8.8705 -13.8060 -20.3773 H              1 RES1               0.0000
     25 H25         -7.6645 -13.4354 -19.1472 H              1 RES1               0.0000
     26 H26         -7.3303 -14.6621 -20.3674 H              1 RES1               0.0000
     27 H27        -10.9496 -18.5290 -15.7073 H              1 RES1               0.0000
     28 H28         -7.2026 -20.4212 -16.4556 H              1 RES1               0.0000
     29 H29         -9.4941 -20.5125 -15.5528 H              1 RES1               0.0000
@<TRIPOS>BOND
    1    1    2 1     
    2    1    3 1     
    3    1    4 1     
    4    1    5 1     
    5    2    6 ar    
    6    2    7 ar    
    7    3    8 1     
    8    3    9 2     
    9    4   10 1     
   10    4   11 2     
   11    5   12 1     
   12    5   18 1     
   13    5   19 1     
   14    6   13 ar    
   15    6   20 1     
   16    7   14 ar    
   17    7   21 1     
   18    8   15 1     
   19    8   22 1     
   20   10   15 1     
   21   10   23 1     
   22   12   24 1     
   23   12   25 1     
   24   12   26 1     
   25   13   16 ar    
   26   13   27 1     
   27   14   16 ar    
   28   14   28 1     
   29   15   17 2     
   30   16   29 1     
@<TRIPOS>SUBSTRUCTURE
      1 RES1           1
@<TRIPOS>SET
DONOR_HYDROGENS      STATIC     ATOMS    <user>   **** ""
2 22 23
ATOM$RED        STATIC     ATOMS    COLORGROUP SYSTEM
2 22 23
@<TRIPOS>COMMENT
> <Gold.Version>
2022.3.0

> <Gold.Id.Protein>
unknown|7kl0_clean|pdb

> <Gold.Protein.RotatedTorsions>
[ 6433 6412 6411 6409 ] final   86.39 input   60.01 | X-H torsion
[ 1391 1375 1376 1377 ] final   81.57 input  130.72 | X-H torsion
[ 1421 1411 1412 1413 ] final   56.06 input  114.05 | X-H torsion
[ 6231 6210 6209 6207 ] final  106.58 input   60.00 | X-H torsion
[ 7222 7206 7205 7202 ] final   71.62 input   60.00 | X-H torsion
[ 1362 1344 1345 1346 ] final  -27.38 input   95.07 | X-H torsion
[ 5430 5408 5407 5405 ] final    0.15 input   60.00 | X-H torsion
[  580  562  563  564 ] final  -92.51 input   55.02 | X-H torsion
[ 1326 1306 1307 1308 ] final  100.45 input  117.83 | X-H torsion
[  608  597  598  599 ] final   33.21 input   37.41 | X-H torsion
[  546  536  537  538 ] final    4.00 input  119.99 | X-H torsion
[ 4227 4194 4193 4192 ] final -121.84 input   60.00 | X-H torsion
[ 1262 1249 1250 1251 ] final  118.19 input  103.51 | X-H torsion
[ 1425 1416 1415 1412 ] final  -38.93 input   60.01 | X-H torsion
[ 1504 1492 1493 1494 ] final -128.93 input  118.60 | X-H torsion
[ 1535 1518 1519 1520 ] final  -40.81 input  116.53 | X-H torsion
[  528  521  522  523 ] final  -66.78 input   38.54 | X-H torsion
[ 5354 5333 5331 5328 ] final -122.66 input   59.99 | X-H torsion
[  504  482  483  484 ] final   37.74 input   40.33 | X-H torsion
[  612  602  601  598 ] final   76.98 input   59.99 | X-H torsion
[  636  620  621  622 ] final  -90.91 input   33.60 | X-H torsion
[  668  652  653  654 ] final   12.54 input   67.24 | X-H torsion
[ 6843 6822 6821 6819 ] final   10.96 input   59.97 | X-H torsion
[ 1596 1580 1579 1578 ] final   90.19 input   59.99 | X-H torsion
[ 5797 5776 5775 5773 ] final  131.76 input   60.02 | X-H torsion
[ 6661 6649 6650 6651 ] final  -67.48 input   84.69 | X-H torsion
[ 6691 6674 6675 6676 ] final  112.67 input  117.08 | X-H torsion
[ 6727 6709 6710 6711 ] final -150.59 input  123.04 | X-H torsion
[ 6635 6620 6621 6622 ] final   85.75 input  122.94 | X-H torsion
[ 1613 1589 1588 1587 ] final   -9.75 input   59.99 | X-H torsion
[ 4214 4203 4202 4201 ] final   89.52 input   60.00 | X-H torsion
[ 8535 1347 1346 1345 ] final   85.79 input   -0.00 | X-H torsion
[ 8582  539  538  537 ] final -105.52 input    0.00 | X-H torsion
[ 8586 1252 1251 1250 ] final   58.42 input    0.00 | X-H torsion
[ 8588 1378 1377 1376 ] final -148.11 input   -0.00 | X-H torsion
[ 8593 1279 1278 1277 ] final  150.42 input    0.00 | X-H torsion
[ 8596 1309 1308 1307 ] final  -15.42 input    0.00 | X-H torsion
[ 8602  565  564  563 ] final -148.90 input    0.00 | X-H torsion
[ 8625  524  523  522 ] final   17.65 input    0.00 | X-H torsion
[ 8635 1414 1413 1412 ] final   26.97 input    0.00 | X-H torsion
[ 8638 1495 1494 1493 ] final  149.32 input    0.00 | X-H torsion
[ 8642  600  599  598 ] final  110.16 input    0.00 | X-H torsion
[ 8650  485  484  483 ] final -165.62 input    0.00 | X-H torsion
[ 8661  466  465  464 ] final  130.96 input   -0.00 | X-H torsion
[ 8712 6623 6622 6621 ] final  -74.55 input    0.00 | X-H torsion
[ 8729 6598 6597 6596 ] final   29.51 input   -0.00 | X-H torsion
[ 8732 6652 6651 6650 ] final -166.38 input   -0.00 | X-H torsion

> <Gold.Protein.ActiveResidues>
 GLU18   GLY20   LYS21   GLY22   ALA23   PHE24   SER25   VAL26   VAL27   ARG28  
 ILE44   ASN45   THR46   LYS47   LYS48   LEU49   SER50   ARG52   ASP53   HIS54  
 LYS56   ARG59   GLY95   GLU96   LEU97   PHE98   GLU99   ASP100  ILE101  VAL102 
 ALA103  GLU105  TYR106  HIS133  ARG134  ASN135  LEU136  LYS137  PRO138  GLU139 
 ASN140  LEU142  ASP156  GLY158  LEU159  ILE161  TRP170  PHE171  GLY172  PHE173 
 ALA174  GLY175  THR176  PRO177  GLY178  TYR179  LEU180  VAL184  LEU185  LYS187 
 TYR190  VAL201  ILE202  TYR204  ILE205  LEU206  VAL208  GLY209  TYR210  PRO211 
 PRO212  PHE213  TRP214  ASP215  GLU216  ASP217  GLN218  HIS219  LEU221  TYR222 
 GLN224  ILE225  ALA229  TYR230  ASP231  PHE232  PRO233  SER234  PRO235  GLU236 
 TRP237 

> <Gold.Protein.RotatedAtoms>
   -6.8356  -21.3651  -22.8522 H   0  0  0  0  0  0  0  0  0  0  0  0  # atno 504  bound_to 482 
   -8.8061  -19.4123  -20.4757 H   0  0  0  0  0  0  0  0  0  0  0  0  # atno 528  bound_to 521 
  -12.0272  -17.5793  -19.8841 H   0  0  0  0  0  0  0  0  0  0  0  0  # atno 546  bound_to 536 
  -12.9167  -17.2096  -17.8791 H   0  0  0  0  0  0  0  0  0  0  0  0  # atno 580  bound_to 562 
  -12.9306  -19.3870  -18.6056 H   0  0  0  0  0  0  0  0  0  0  0  0  # atno 608  bound_to 597 
  -12.5849  -20.9621  -21.7079 H   0  0  0  0  0  0  0  0  0  0  0  0  # atno 612  bound_to 602 
  -12.3003  -22.3001  -20.1136 H   0  0  0  0  0  0  0  0  0  0  0  0  # atno 636  bound_to 620 
   -9.5396  -25.3797  -20.9273 H   0  0  0  0  0  0  0  0  0  0  0  0  # atno 668  bound_to 652 
  -16.8896  -21.9163  -16.8948 H   0  0  0  0  0  0  0  0  0  0  0  0  # atno 1262 bound_to 1249
  -20.9673  -20.6267  -13.3033 H   0  0  0  0  0  0  0  0  0  0  0  0  # atno 1326 bound_to 1306
  -22.7358  -18.4852  -12.5404 H   0  0  0  0  0  0  0  0  0  0  0  0  # atno 1362 bound_to 1344
  -23.9064  -17.3636  -13.8937 H   0  0  0  0  0  0  0  0  0  0  0  0  # atno 1391 bound_to 1375
  -23.5698  -14.2462  -16.9347 H   0  0  0  0  0  0  0  0  0  0  0  0  # atno 1421 bound_to 1411
  -23.5214  -12.6103  -18.4984 H   0  0  0  0  0  0  0  0  0  0  0  0  # atno 1425 bound_to 1416
  -24.2871  -12.2951  -21.5866 H   0  0  0  0  0  0  0  0  0  0  0  0  # atno 1504 bound_to 1492
  -24.5023  -15.4882  -21.6928 H   0  0  0  0  0  0  0  0  0  0  0  0  # atno 1535 bound_to 1518
    8.2797   -6.0999  -23.0977 H   0  0  0  0  0  0  0  0  0  0  0  0  # atno 1596 bound_to 1580
    7.6500   -5.7239  -21.6113 H   0  0  0  0  0  0  0  0  0  0  0  0  # atno 1597 bound_to 1580
    8.8101   -4.7535  -22.2899 H   0  0  0  0  0  0  0  0  0  0  0  0  # atno 1598 bound_to 1580
  -19.2273  -11.1629  -24.5996 H   0  0  0  0  0  0  0  0  0  0  0  0  # atno 1613 bound_to 1589
  -18.2163  -12.4312  -24.9431 H   0  0  0  0  0  0  0  0  0  0  0  0  # atno 1614 bound_to 1589
  -18.4313  -11.2180  -26.0524 H   0  0  0  0  0  0  0  0  0  0  0  0  # atno 1615 bound_to 1589
   -7.0176  -12.9483  -30.2657 H   0  0  0  0  0  0  0  0  0  0  0  0  # atno 4214 bound_to 4203
   -6.2822  -14.2221  -29.5009 H   0  0  0  0  0  0  0  0  0  0  0  0  # atno 4215 bound_to 4203
   -5.3761  -13.1460  -30.3782 H   0  0  0  0  0  0  0  0  0  0  0  0  # atno 4216 bound_to 4203
   -3.4463  -12.8528  -15.8879 H   0  0  0  0  0  0  0  0  0  0  0  0  # atno 4227 bound_to 4194
   -4.0194  -11.5092  -15.1044 H   0  0  0  0  0  0  0  0  0  0  0  0  # atno 4228 bound_to 4194
   -2.4834  -11.5135  -15.7273 H   0  0  0  0  0  0  0  0  0  0  0  0  # atno 4229 bound_to 4194
   -3.1605   -9.9456  -15.4101 H   0  0  0  0  0  0  0  0  0  0  0  0  # atno 5354 bound_to 5333
   -8.2826  -12.1860   -8.8825 H   0  0  0  0  0  0  0  0  0  0  0  0  # atno 5430 bound_to 5408
    4.6229    0.1448  -13.6089 H   0  0  0  0  0  0  0  0  0  0  0  0  # atno 5797 bound_to 5776
  -17.1222   -7.3037   -1.0523 H   0  0  0  0  0  0  0  0  0  0  0  0  # atno 6231 bound_to 6210
  -20.2875   -9.0231   -2.4604 H   0  0  0  0  0  0  0  0  0  0  0  0  # atno 6433 bound_to 6412
    4.6953    0.1794  -30.7111 H   0  0  0  0  0  0  0  0  0  0  0  0  # atno 6635 bound_to 6620
    2.6351    0.0899  -28.6225 H   0  0  0  0  0  0  0  0  0  0  0  0  # atno 6661 bound_to 6649
   -0.6222    1.1205  -27.5303 H   0  0  0  0  0  0  0  0  0  0  0  0  # atno 6691 bound_to 6674
   -3.2724    2.3107  -28.7216 H   0  0  0  0  0  0  0  0  0  0  0  0  # atno 6727 bound_to 6709
   -6.8837   -2.3590  -16.8786 H   0  0  0  0  0  0  0  0  0  0  0  0  # atno 6843 bound_to 6822
  -25.2934   -6.8044    3.6702 H   0  0  0  0  0  0  0  0  0  0  0  0  # atno 7222 bound_to 7206
  -23.5800  -14.0173  -12.7852 LP  0  0  0  0  0  0  0  0  0  0  0  0  # atno 8535 bound_to 1347
  -24.9247  -15.0471  -12.4226 LP  0  0  0  0  0  0  0  0  0  0  0  0  # atno 8536 bound_to 1347
  -18.8000   -8.6747   -1.8992 LP  0  0  0  0  0  0  0  0  0  0  0  0  # atno 8539 bound_to 6412
  -19.5740  -10.0191   -1.3890 LP  0  0  0  0  0  0  0  0  0  0  0  0  # atno 8540 bound_to 6412
  -22.6174  -16.2745  -13.4044 LP  0  0  0  0  0  0  0  0  0  0  0  0  # atno 8545 bound_to 1375
  -24.0828  -14.0891  -15.2650 LP  0  0  0  0  0  0  0  0  0  0  0  0  # atno 8546 bound_to 1411
  -17.0492   -7.5243   -2.6631 LP  0  0  0  0  0  0  0  0  0  0  0  0  # atno 8553 bound_to 6210
  -16.6383   -6.0833   -2.0140 LP  0  0  0  0  0  0  0  0  0  0  0  0  # atno 8554 bound_to 6210
  -24.8086   -8.0839    4.5509 LP  0  0  0  0  0  0  0  0  0  0  0  0  # atno 8565 bound_to 7206
  -26.3435   -7.5398    4.6723 LP  0  0  0  0  0  0  0  0  0  0  0  0  # atno 8566 bound_to 7206
  -21.2598  -18.3252  -11.6132 LP  0  0  0  0  0  0  0  0  0  0  0  0  # atno 8581 bound_to 1344
  -11.9134  -17.3117  -16.1360 LP  0  0  0  0  0  0  0  0  0  0  0  0  # atno 8582 bound_to 539 
  -12.5842  -15.7257  -15.9496 LP  0  0  0  0  0  0  0  0  0  0  0  0  # atno 8583 bound_to 539 
   -7.7363  -12.5611  -10.3694 LP  0  0  0  0  0  0  0  0  0  0  0  0  # atno 8584 bound_to 5408
   -9.0070  -11.5505  -10.1944 LP  0  0  0  0  0  0  0  0  0  0  0  0  # atno 8585 bound_to 5408
  -19.0110  -19.8453  -16.7884 LP  0  0  0  0  0  0  0  0  0  0  0  0  # atno 8586 bound_to 1252
  -19.7586  -19.2729  -15.3346 LP  0  0  0  0  0  0  0  0  0  0  0  0  # atno 8587 bound_to 1252
  -26.4020  -14.8760  -15.5778 LP  0  0  0  0  0  0  0  0  0  0  0  0  # atno 8588 bound_to 1378
  -25.6695  -15.8324  -14.3333 LP  0  0  0  0  0  0  0  0  0  0  0  0  # atno 8589 bound_to 1378
  -14.3183  -16.8133  -18.8600 LP  0  0  0  0  0  0  0  0  0  0  0  0  # atno 8592 bound_to 562 
  -24.4457  -19.9734  -13.4945 LP  0  0  0  0  0  0  0  0  0  0  0  0  # atno 8593 bound_to 1279
  -24.1346  -19.4257  -15.1079 LP  0  0  0  0  0  0  0  0  0  0  0  0  # atno 8594 bound_to 1279
  -22.6038  -20.7515  -13.9205 LP  0  0  0  0  0  0  0  0  0  0  0  0  # atno 8595 bound_to 1306
  -24.7405  -19.4166  -11.2129 LP  0  0  0  0  0  0  0  0  0  0  0  0  # atno 8596 bound_to 1309
  -24.3098  -17.7693  -10.8951 LP  0  0  0  0  0  0  0  0  0  0  0  0  # atno 8597 bound_to 1309
  -15.5936  -21.3056  -17.4639 LP  0  0  0  0  0  0  0  0  0  0  0  0  # atno 8602 bound_to 565 
  -16.6219  -19.9175  -17.3387 LP  0  0  0  0  0  0  0  0  0  0  0  0  # atno 8603 bound_to 565 
  -14.5582  -19.6911  -18.0347 LP  0  0  0  0  0  0  0  0  0  0  0  0  # atno 8604 bound_to 597 
   -9.6777  -18.7339  -18.7687 LP  0  0  0  0  0  0  0  0  0  0  0  0  # atno 8625 bound_to 524 
  -10.8913  -17.8663  -17.8888 LP  0  0  0  0  0  0  0  0  0  0  0  0  # atno 8626 bound_to 524 
  -11.1912  -16.2530  -20.6761 LP  0  0  0  0  0  0  0  0  0  0  0  0  # atno 8627 bound_to 536 
  -18.3549  -22.6352  -17.5292 LP  0  0  0  0  0  0  0  0  0  0  0  0  # atno 8630 bound_to 1249
  -23.2451  -11.0082  -18.5677 LP  0  0  0  0  0  0  0  0  0  0  0  0  # atno 8631 bound_to 1416
  -24.6500  -11.6225  -19.1294 LP  0  0  0  0  0  0  0  0  0  0  0  0  # atno 8632 bound_to 1416
  -24.8691  -14.9903  -18.0285 LP  0  0  0  0  0  0  0  0  0  0  0  0  # atno 8635 bound_to 1414
  -25.9301  -14.5892  -19.3375 LP  0  0  0  0  0  0  0  0  0  0  0  0  # atno 8636 bound_to 1414
  -25.2092  -13.3039  -20.4843 LP  0  0  0  0  0  0  0  0  0  0  0  0  # atno 8637 bound_to 1492
  -23.5041  -17.2907  -22.2050 LP  0  0  0  0  0  0  0  0  0  0  0  0  # atno 8638 bound_to 1495
  -22.7873  -15.9287  -22.9995 LP  0  0  0  0  0  0  0  0  0  0  0  0  # atno 8639 bound_to 1495
  -25.3625  -15.3675  -20.1702 LP  0  0  0  0  0  0  0  0  0  0  0  0  # atno 8640 bound_to 1518
  -10.0740  -20.4825  -21.0572 LP  0  0  0  0  0  0  0  0  0  0  0  0  # atno 8641 bound_to 521 
  -10.8533  -21.3549  -18.1004 LP  0  0  0  0  0  0  0  0  0  0  0  0  # atno 8642 bound_to 600 
  -11.0431  -20.5153  -19.6034 LP  0  0  0  0  0  0  0  0  0  0  0  0  # atno 8643 bound_to 600 
   -2.1963   -9.5773  -14.1516 LP  0  0  0  0  0  0  0  0  0  0  0  0  # atno 8648 bound_to 5333
   -2.2847   -8.5740  -15.4369 LP  0  0  0  0  0  0  0  0  0  0  0  0  # atno 8649 bound_to 5333
   -8.7101  -18.6228  -22.9725 LP  0  0  0  0  0  0  0  0  0  0  0  0  # atno 8650 bound_to 485 
   -7.6270  -19.9528  -23.2136 LP  0  0  0  0  0  0  0  0  0  0  0  0  # atno 8651 bound_to 485 
   -7.0802  -22.8747  -21.9899 LP  0  0  0  0  0  0  0  0  0  0  0  0  # atno 8652 bound_to 482 
   -7.4266  -23.7881  -20.2447 LP  0  0  0  0  0  0  0  0  0  0  0  0  # atno 8661 bound_to 466 
   -8.0568  -24.7807  -21.5165 LP  0  0  0  0  0  0  0  0  0  0  0  0  # atno 8662 bound_to 466 
  -13.0940  -19.6126  -20.9542 LP  0  0  0  0  0  0  0  0  0  0  0  0  # atno 8663 bound_to 602 
  -13.8699  -20.1487  -22.2873 LP  0  0  0  0  0  0  0  0  0  0  0  0  # atno 8664 bound_to 602 
  -13.0297  -23.4561  -19.0093 LP  0  0  0  0  0  0  0  0  0  0  0  0  # atno 8665 bound_to 620 
  -10.8980  -24.5434  -21.6492 LP  0  0  0  0  0  0  0  0  0  0  0  0  # atno 8672 bound_to 652 
   -5.7594   -1.2701  -17.3240 LP  0  0  0  0  0  0  0  0  0  0  0  0  # atno 8689 bound_to 6822
   -7.0905   -1.4959  -18.2426 LP  0  0  0  0  0  0  0  0  0  0  0  0  # atno 8690 bound_to 6822
    1.9803   -1.2552  -27.2112 LP  0  0  0  0  0  0  0  0  0  0  0  0  # atno 8712 bound_to 6623
    2.7328    0.0364  -26.3361 LP  0  0  0  0  0  0  0  0  0  0  0  0  # atno 8713 bound_to 6623
    5.5340   -0.9391  -12.8076 LP  0  0  0  0  0  0  0  0  0  0  0  0  # atno 8722 bound_to 5776
    6.2108    0.4264  -13.3941 LP  0  0  0  0  0  0  0  0  0  0  0  0  # atno 8723 bound_to 5776
    3.4744    1.4021  -29.4342 LP  0  0  0  0  0  0  0  0  0  0  0  0  # atno 8724 bound_to 6649
    0.0860    1.3331  -29.1193 LP  0  0  0  0  0  0  0  0  0  0  0  0  # atno 8725 bound_to 6674
   -1.7557    2.6410  -29.5315 LP  0  0  0  0  0  0  0  0  0  0  0  0  # atno 8728 bound_to 6709
    1.6435   -2.1070  -31.3573 LP  0  0  0  0  0  0  0  0  0  0  0  0  # atno 8729 bound_to 6598
    1.8345   -1.3826  -29.7956 LP  0  0  0  0  0  0  0  0  0  0  0  0  # atno 8730 bound_to 6598
    3.8021   -1.3195  -30.9104 LP  0  0  0  0  0  0  0  0  0  0  0  0  # atno 8731 bound_to 6620
   -0.4981    1.5050  -31.0210 LP  0  0  0  0  0  0  0  0  0  0  0  0  # atno 8732 bound_to 6652
    1.2193    1.7282  -30.9894 LP  0  0  0  0  0  0  0  0  0  0  0  0  # atno 8733 bound_to 6652

> <Gold.Score>
     Fitness  S(hb_ext) S(vdw_ext)  S(hb_int)    S(int)      intcor
     34.00       8.36      19.65       0.00      -1.38      -0.76

> <Gold.Goldscore.Fitness>
33.9987

> <Gold.Goldscore.Internal.Vdw>
-1.4658

> <Gold.Goldscore.Internal.Torsion>
-0.6712

> <Gold.Goldscore.External.Vdw>
19.6475

> <Gold.Goldscore.Internal.HBond>
0.0000

> <Gold.Goldscore.External.HBond>
8.3619

> <Gold.Goldscore.Internal.Correction>
-0.7585

> <Gold.Goldscore.Hbonds>
donor molecule, donor type, donor heavy atom, donor atom, acceptor molecule, acceptor atom, score
      P1  H  4194  4227       L1    17  1.00
      L1  H     8    22       P1  4266  0.40

> <Gold.Goldscore.Internal.Vdw.Weighted>
-1.4658

> <Gold.Goldscore.Internal.Torsion.Weighted>
-0.6712

> <Gold.Goldscore.External.Vdw.Weighted>
27.0153

> <Gold.Goldscore.Internal.HBond.Weighted>
0.0000

> <Gold.Goldscore.External.HBond.Weighted>
8.3619

> <Gold.Goldscore.Internal.Correction.Weighted>
-0.7585

> <Gold.Rescore>
     Score     S(PLP)   S(hbond)     S(cho)   S(metal)  DE(clash)   DE(tors)     intcor
     23.20     -21.88       1.18       0.00       0.00       0.00       1.12       ----

> <Gold.PLP.Fitness>
23.2016

> <Gold.PLP.PLP>
-21.8808

> <Gold.PLP.part.hbond>
-2.0000

> <Gold.PLP.part.metal>
0.0000

> <Gold.PLP.part.buried>
2.3194

> <Gold.PLP.part.nonpolar>
-25.9972

> <Gold.PLP.part.repulsive>
3.7533

> <Gold.PLP.ligand.clash>
0.0000

> <Gold.PLP.ligand.torsion>
1.1156

> <Gold.PLP.Chemscore.Hbond>
1.1840

> <Gold.PLP.Chemscore.CHOScore>
0.0000

> <Gold.PLP.Chemscore.Metal>
0.0000

> <Gold.Chemscore.Hbonds>
donor molecule, donor type, donor heavy atom, donor atom, acceptor molecule, acceptor atom, score
      L1  H     8    22       P1  4266  0.48
      P1  H  4194  4227       L1    17  0.78

> <Gold.PLP.Chemscore.Internal.Correction>
   9.000000E+99

