#       Name:                CT1002167954
#       Creating user name   hitesit
#       Creation time:       Sun Apr 16 02:23:28 2023


#       File generated by GOLD software.
#

@<TRIPOS>MOLECULE
CT1002167954|ligand_prepared|mol2|1|dock9
    29    30     1
SMALL
NO_CHARGES


@<TRIPOS>ATOM
      1 C1          -8.6554 -13.6648 -16.2370 C.3            1 RES1               0.0000
      2 C2          -8.3539 -15.1671 -16.4132 C.ar           1 RES1               0.0000
      3 C3         -10.0490 -13.5768 -15.6218 C.2            1 RES1               0.0000
      4 C4          -7.5473 -13.1085 -15.3496 C.2            1 RES1               0.0000
      5 C5          -8.6521 -12.8673 -17.5619 C.3            1 RES1               0.0000
      6 C6          -7.5594 -15.6117 -17.4657 C.ar           1 RES1               0.0000
      7 C7          -8.8600 -16.1183 -15.5313 C.ar           1 RES1               0.0000
      8 N8         -10.1377 -13.2341 -14.3047 N.am           1 RES1               0.0000
      9 O9         -11.0524 -13.8427 -16.2719 O.2            1 RES1               0.0000
     10 N10         -7.8912 -12.6479 -14.1057 N.am           1 RES1               0.0000
     11 O11         -6.3770 -13.0803 -15.7100 O.2            1 RES1               0.0000
     12 C12         -9.1917 -11.4521 -17.4270 C.3            1 RES1               0.0000
     13 C13         -7.2786 -16.9581 -17.6291 C.ar           1 RES1               0.0000
     14 C14         -8.5781 -17.4643 -15.6966 C.ar           1 RES1               0.0000
     15 C15         -9.1314 -12.7138 -13.5313 C.2            1 RES1               0.0000
     16 C16         -7.7872 -17.8851 -16.7446 C.ar           1 RES1               0.0000
     17 O17         -9.3509 -12.3282 -12.3866 O.2            1 RES1               0.0000
     18 H18         -7.6243 -12.8186 -17.9422 H              1 RES1               0.0000
     19 H19         -9.2576 -13.4071 -18.3005 H              1 RES1               0.0000
     20 H20         -7.1523 -14.8971 -18.1733 H              1 RES1               0.0000
     21 H21         -9.4853 -15.8103 -14.7002 H              1 RES1               0.0000
     22 H22        -11.0353 -13.3779 -13.8532 H              1 RES1               0.0000
     23 H23         -7.1545 -12.2158 -13.5572 H              1 RES1               0.0000
     24 H24         -9.1672 -10.9370 -18.3850 H              1 RES1               0.0000
     25 H25        -10.2210 -11.4637 -17.0748 H              1 RES1               0.0000
     26 H26         -8.5974 -10.8787 -16.7186 H              1 RES1               0.0000
     27 H27         -6.6568 -17.2843 -18.4563 H              1 RES1               0.0000
     28 H28         -8.9811 -18.1904 -14.9984 H              1 RES1               0.0000
     29 H29         -7.5668 -18.9398 -16.8726 H              1 RES1               0.0000
@<TRIPOS>BOND
    1    1    2 1     
    2    1    3 1     
    3    1    4 1     
    4    1    5 1     
    5    2    6 ar    
    6    2    7 ar    
    7    3    8 1     
    8    3    9 2     
    9    4   10 1     
   10    4   11 2     
   11    5   12 1     
   12    5   18 1     
   13    5   19 1     
   14    6   13 ar    
   15    6   20 1     
   16    7   14 ar    
   17    7   21 1     
   18    8   15 1     
   19    8   22 1     
   20   10   15 1     
   21   10   23 1     
   22   12   24 1     
   23   12   25 1     
   24   12   26 1     
   25   13   16 ar    
   26   13   27 1     
   27   14   16 ar    
   28   14   28 1     
   29   15   17 2     
   30   16   29 1     
@<TRIPOS>SUBSTRUCTURE
      1 RES1           1
@<TRIPOS>SET
DONOR_HYDROGENS      STATIC     ATOMS    <user>   **** ""
2 22 23
ATOM$RED        STATIC     ATOMS    COLORGROUP SYSTEM
2 22 23
@<TRIPOS>COMMENT
> <Gold.Version>
2022.3.0

> <Gold.Id.Protein>
unknown|7kl0_clean|pdb

> <Gold.Protein.RotatedTorsions>
[ 6433 6412 6411 6409 ] final -100.53 input   60.01 | X-H torsion
[ 1391 1375 1376 1377 ] final   -7.61 input  130.72 | X-H torsion
[ 1421 1411 1412 1413 ] final   95.65 input  114.05 | X-H torsion
[ 6231 6210 6209 6207 ] final -136.26 input   60.00 | X-H torsion
[ 7222 7206 7205 7202 ] final  152.68 input   60.00 | X-H torsion
[ 1362 1344 1345 1346 ] final  120.79 input   95.07 | X-H torsion
[ 5430 5408 5407 5405 ] final -177.73 input   60.00 | X-H torsion
[  580  562  563  564 ] final  -30.56 input   55.02 | X-H torsion
[ 1326 1306 1307 1308 ] final    8.40 input  117.83 | X-H torsion
[  608  597  598  599 ] final   15.98 input   37.41 | X-H torsion
[  546  536  537  538 ] final   14.21 input  119.99 | X-H torsion
[ 4227 4194 4193 4192 ] final   57.51 input   60.00 | X-H torsion
[ 1262 1249 1250 1251 ] final   57.77 input  103.51 | X-H torsion
[ 1425 1416 1415 1412 ] final  -31.69 input   60.01 | X-H torsion
[ 1504 1492 1493 1494 ] final   49.57 input  118.60 | X-H torsion
[ 1535 1518 1519 1520 ] final    3.50 input  116.53 | X-H torsion
[  528  521  522  523 ] final  -35.59 input   38.54 | X-H torsion
[ 5354 5333 5331 5328 ] final  -93.33 input   59.99 | X-H torsion
[  504  482  483  484 ] final   42.73 input   40.33 | X-H torsion
[  612  602  601  598 ] final -127.54 input   59.99 | X-H torsion
[  636  620  621  622 ] final   51.04 input   33.60 | X-H torsion
[  668  652  653  654 ] final   -2.31 input   67.24 | X-H torsion
[ 6843 6822 6821 6819 ] final    4.31 input   59.97 | X-H torsion
[ 1596 1580 1579 1578 ] final  -81.47 input   59.99 | X-H torsion
[ 5797 5776 5775 5773 ] final   -8.49 input   60.02 | X-H torsion
[ 6661 6649 6650 6651 ] final   45.84 input   84.69 | X-H torsion
[ 6691 6674 6675 6676 ] final  -29.02 input  117.08 | X-H torsion
[ 6727 6709 6710 6711 ] final   92.50 input  123.04 | X-H torsion
[ 6635 6620 6621 6622 ] final  -60.01 input  122.94 | X-H torsion
[ 1613 1589 1588 1587 ] final  -41.09 input   59.99 | X-H torsion
[ 4214 4203 4202 4201 ] final   68.93 input   60.00 | X-H torsion
[ 8535 1347 1346 1345 ] final  131.84 input   -0.00 | X-H torsion
[ 8582  539  538  537 ] final   67.01 input    0.00 | X-H torsion
[ 8586 1252 1251 1250 ] final  -48.87 input    0.00 | X-H torsion
[ 8588 1378 1377 1376 ] final -105.24 input   -0.00 | X-H torsion
[ 8593 1279 1278 1277 ] final  -48.88 input    0.00 | X-H torsion
[ 8596 1309 1308 1307 ] final   73.02 input    0.00 | X-H torsion
[ 8602  565  564  563 ] final -128.25 input    0.00 | X-H torsion
[ 8625  524  523  522 ] final -157.09 input    0.00 | X-H torsion
[ 8635 1414 1413 1412 ] final  115.70 input    0.00 | X-H torsion
[ 8638 1495 1494 1493 ] final -150.43 input    0.00 | X-H torsion
[ 8642  600  599  598 ] final  -60.51 input    0.00 | X-H torsion
[ 8650  485  484  483 ] final   98.66 input    0.00 | X-H torsion
[ 8661  466  465  464 ] final   95.20 input   -0.00 | X-H torsion
[ 8712 6623 6622 6621 ] final  101.47 input    0.00 | X-H torsion
[ 8729 6598 6597 6596 ] final  125.29 input   -0.00 | X-H torsion
[ 8732 6652 6651 6650 ] final  129.34 input   -0.00 | X-H torsion

> <Gold.Protein.ActiveResidues>
 GLU18   GLY20   LYS21   GLY22   ALA23   PHE24   SER25   VAL26   VAL27   ARG28  
 ILE44   ASN45   THR46   LYS47   LYS48   LEU49   SER50   ARG52   ASP53   HIS54  
 LYS56   ARG59   GLY95   GLU96   LEU97   PHE98   GLU99   ASP100  ILE101  VAL102 
 ALA103  GLU105  TYR106  HIS133  ARG134  ASN135  LEU136  LYS137  PRO138  GLU139 
 ASN140  LEU142  ASP156  GLY158  LEU159  ILE161  TRP170  PHE171  GLY172  PHE173 
 ALA174  GLY175  THR176  PRO177  GLY178  TYR179  LEU180  VAL184  LEU185  LYS187 
 TYR190  VAL201  ILE202  TYR204  ILE205  LEU206  VAL208  GLY209  TYR210  PRO211 
 PRO212  PHE213  TRP214  ASP215  GLU216  ASP217  GLN218  HIS219  LEU221  TYR222 
 GLN224  ILE225  ALA229  TYR230  ASP231  PHE232  PRO233  SER234  PRO235  GLU236 
 TRP237 

> <Gold.Protein.RotatedAtoms>
   -6.7674  -21.3586  -22.8145 H   0  0  0  0  0  0  0  0  0  0  0  0  # atno 504  bound_to 482 
   -9.0812  -19.5120  -20.0872 H   0  0  0  0  0  0  0  0  0  0  0  0  # atno 528  bound_to 521 
  -12.1554  -17.5286  -19.9661 H   0  0  0  0  0  0  0  0  0  0  0  0  # atno 546  bound_to 536 
  -13.1508  -17.7310  -18.6089 H   0  0  0  0  0  0  0  0  0  0  0  0  # atno 580  bound_to 562 
  -12.8703  -19.5056  -18.3740 H   0  0  0  0  0  0  0  0  0  0  0  0  # atno 608  bound_to 597 
  -13.9108  -19.7175  -21.9127 H   0  0  0  0  0  0  0  0  0  0  0  0  # atno 612  bound_to 602 
  -13.1482  -23.6644  -19.5347 H   0  0  0  0  0  0  0  0  0  0  0  0  # atno 636  bound_to 620 
   -9.7055  -25.4791  -20.8024 H   0  0  0  0  0  0  0  0  0  0  0  0  # atno 668  bound_to 652 
  -17.5338  -21.3970  -17.2411 H   0  0  0  0  0  0  0  0  0  0  0  0  # atno 1262 bound_to 1249
  -21.8486  -19.8084  -13.7660 H   0  0  0  0  0  0  0  0  0  0  0  0  # atno 1326 bound_to 1306
  -21.1182  -18.2034  -12.0569 H   0  0  0  0  0  0  0  0  0  0  0  0  # atno 1362 bound_to 1344
  -23.8676  -16.2084  -13.3737 H   0  0  0  0  0  0  0  0  0  0  0  0  # atno 1391 bound_to 1375
  -23.2539  -13.8045  -16.6633 H   0  0  0  0  0  0  0  0  0  0  0  0  # atno 1421 bound_to 1411
  -23.6251  -12.6478  -18.5408 H   0  0  0  0  0  0  0  0  0  0  0  0  # atno 1425 bound_to 1416
  -25.2086  -13.3737  -20.4791 H   0  0  0  0  0  0  0  0  0  0  0  0  # atno 1504 bound_to 1492
  -25.0510  -15.0982  -21.7408 H   0  0  0  0  0  0  0  0  0  0  0  0  # atno 1535 bound_to 1518
    8.3112   -4.8764  -21.6326 H   0  0  0  0  0  0  0  0  0  0  0  0  # atno 1596 bound_to 1580
    8.7920   -5.4417  -23.1146 H   0  0  0  0  0  0  0  0  0  0  0  0  # atno 1597 bound_to 1580
    7.6366   -6.2583  -22.2506 H   0  0  0  0  0  0  0  0  0  0  0  0  # atno 1598 bound_to 1580
  -19.2038  -10.8631  -25.0200 H   0  0  0  0  0  0  0  0  0  0  0  0  # atno 1613 bound_to 1589
  -18.5151  -12.2942  -24.5442 H   0  0  0  0  0  0  0  0  0  0  0  0  # atno 1614 bound_to 1589
  -18.1559  -11.6549  -26.0310 H   0  0  0  0  0  0  0  0  0  0  0  0  # atno 1615 bound_to 1589
   -6.7830  -12.7612  -30.4299 H   0  0  0  0  0  0  0  0  0  0  0  0  # atno 4214 bound_to 4203
   -6.6121  -14.1318  -29.5131 H   0  0  0  0  0  0  0  0  0  0  0  0  # atno 4215 bound_to 4203
   -5.2809  -13.4231  -30.2019 H   0  0  0  0  0  0  0  0  0  0  0  0  # atno 4216 bound_to 4203
   -3.1964  -11.0645  -15.2533 H   0  0  0  0  0  0  0  0  0  0  0  0  # atno 4227 bound_to 4194
   -2.6075  -12.3987  -16.0412 H   0  0  0  0  0  0  0  0  0  0  0  0  # atno 4228 bound_to 4194
   -4.1460  -12.4119  -15.4246 H   0  0  0  0  0  0  0  0  0  0  0  0  # atno 4229 bound_to 4194
   -3.1070   -9.5895  -15.7186 H   0  0  0  0  0  0  0  0  0  0  0  0  # atno 5354 bound_to 5333
   -8.3721  -12.0318  -10.7474 H   0  0  0  0  0  0  0  0  0  0  0  0  # atno 5430 bound_to 5408
    5.8440   -0.8263  -12.7945 H   0  0  0  0  0  0  0  0  0  0  0  0  # atno 5797 bound_to 5776
  -16.6408   -6.0849   -1.9670 H   0  0  0  0  0  0  0  0  0  0  0  0  # atno 6231 bound_to 6210
  -18.8812   -9.5465   -1.3452 H   0  0  0  0  0  0  0  0  0  0  0  0  # atno 6433 bound_to 6412
    3.4226   -0.9751  -30.8158 H   0  0  0  0  0  0  0  0  0  0  0  0  # atno 6635 bound_to 6620
    2.8046    0.8780  -29.8950 H   0  0  0  0  0  0  0  0  0  0  0  0  # atno 6661 bound_to 6649
   -0.2070    1.8185  -29.0119 H   0  0  0  0  0  0  0  0  0  0  0  0  # atno 6691 bound_to 6674
   -1.9440    3.0441  -28.7303 H   0  0  0  0  0  0  0  0  0  0  0  0  # atno 6727 bound_to 6709
   -6.7934   -2.3397  -16.8217 H   0  0  0  0  0  0  0  0  0  0  0  0  # atno 6843 bound_to 6822
  -26.3219   -7.0633    4.2665 H   0  0  0  0  0  0  0  0  0  0  0  0  # atno 7222 bound_to 7206
  -23.9604  -14.1574  -13.3280 LP  0  0  0  0  0  0  0  0  0  0  0  0  # atno 8535 bound_to 1347
  -24.5443  -14.9070  -11.8798 LP  0  0  0  0  0  0  0  0  0  0  0  0  # atno 8536 bound_to 1347
  -20.3560   -9.7280   -2.0092 LP  0  0  0  0  0  0  0  0  0  0  0  0  # atno 8539 bound_to 6412
  -19.4338   -8.4388   -2.4018 LP  0  0  0  0  0  0  0  0  0  0  0  0  # atno 8540 bound_to 6412
  -22.6541  -17.3667  -13.8959 LP  0  0  0  0  0  0  0  0  0  0  0  0  # atno 8545 bound_to 1375
  -24.3848  -14.5114  -15.5244 LP  0  0  0  0  0  0  0  0  0  0  0  0  # atno 8546 bound_to 1411
  -17.1371   -7.3462   -1.0662 LP  0  0  0  0  0  0  0  0  0  0  0  0  # atno 8553 bound_to 6210
  -17.0351   -7.4887   -2.6898 LP  0  0  0  0  0  0  0  0  0  0  0  0  # atno 8554 bound_to 6210
  -24.7765   -7.1454    3.7639 LP  0  0  0  0  0  0  0  0  0  0  0  0  # atno 8565 bound_to 7206
  -25.3400   -8.2176    4.8590 LP  0  0  0  0  0  0  0  0  0  0  0  0  # atno 8566 bound_to 7206
  -22.8234  -18.5976  -12.0806 LP  0  0  0  0  0  0  0  0  0  0  0  0  # atno 8581 bound_to 1344
  -12.4848  -15.6874  -15.9866 LP  0  0  0  0  0  0  0  0  0  0  0  0  # atno 8582 bound_to 539 
  -12.0128  -17.3501  -16.0989 LP  0  0  0  0  0  0  0  0  0  0  0  0  # atno 8583 bound_to 539 
   -8.9635  -11.6256   -9.2862 LP  0  0  0  0  0  0  0  0  0  0  0  0  # atno 8584 bound_to 5408
   -7.6898  -12.6412   -9.4010 LP  0  0  0  0  0  0  0  0  0  0  0  0  # atno 8585 bound_to 5408
  -18.7626  -19.4857  -15.4637 LP  0  0  0  0  0  0  0  0  0  0  0  0  # atno 8586 bound_to 1252
  -20.0071  -19.6326  -16.6593 LP  0  0  0  0  0  0  0  0  0  0  0  0  # atno 8587 bound_to 1252
  -26.3251  -15.4765  -15.7626 LP  0  0  0  0  0  0  0  0  0  0  0  0  # atno 8588 bound_to 1378
  -25.7464  -15.2318  -14.1485 LP  0  0  0  0  0  0  0  0  0  0  0  0  # atno 8589 bound_to 1378
  -14.0961  -16.3185  -18.1674 LP  0  0  0  0  0  0  0  0  0  0  0  0  # atno 8592 bound_to 562 
  -24.0273  -19.2009  -14.9587 LP  0  0  0  0  0  0  0  0  0  0  0  0  # atno 8593 bound_to 1279
  -24.5530  -20.1982  -13.6437 LP  0  0  0  0  0  0  0  0  0  0  0  0  # atno 8594 bound_to 1279
  -21.7595  -21.5355  -13.4772 LP  0  0  0  0  0  0  0  0  0  0  0  0  # atno 8595 bound_to 1306
  -24.2860  -18.8339  -10.2573 LP  0  0  0  0  0  0  0  0  0  0  0  0  # atno 8596 bound_to 1309
  -24.7644  -18.3520  -11.8507 LP  0  0  0  0  0  0  0  0  0  0  0  0  # atno 8597 bound_to 1309
  -15.5589  -21.2376  -17.1629 LP  0  0  0  0  0  0  0  0  0  0  0  0  # atno 8602 bound_to 565 
  -16.6566  -19.9856  -17.6397 LP  0  0  0  0  0  0  0  0  0  0  0  0  # atno 8603 bound_to 565 
  -14.6164  -19.5768  -18.2579 LP  0  0  0  0  0  0  0  0  0  0  0  0  # atno 8604 bound_to 597 
  -10.9375  -17.9306  -17.8961 LP  0  0  0  0  0  0  0  0  0  0  0  0  # atno 8625 bound_to 524 
   -9.6316  -18.6696  -18.7613 LP  0  0  0  0  0  0  0  0  0  0  0  0  # atno 8626 bound_to 524 
  -11.0697  -16.3010  -20.5984 LP  0  0  0  0  0  0  0  0  0  0  0  0  # atno 8627 bound_to 536 
  -17.7338  -23.1360  -17.1953 LP  0  0  0  0  0  0  0  0  0  0  0  0  # atno 8630 bound_to 1249
  -23.1672  -11.0865  -18.5231 LP  0  0  0  0  0  0  0  0  0  0  0  0  # atno 8631 bound_to 1416
  -24.6234  -11.5065  -19.1312 LP  0  0  0  0  0  0  0  0  0  0  0  0  # atno 8632 bound_to 1416
  -25.9865  -15.3311  -18.3477 LP  0  0  0  0  0  0  0  0  0  0  0  0  # atno 8635 bound_to 1414
  -24.8126  -14.2484  -19.0183 LP  0  0  0  0  0  0  0  0  0  0  0  0  # atno 8636 bound_to 1414
  -24.3336  -12.2789  -21.5367 LP  0  0  0  0  0  0  0  0  0  0  0  0  # atno 8637 bound_to 1492
  -23.8962  -16.9303  -22.8919 LP  0  0  0  0  0  0  0  0  0  0  0  0  # atno 8638 bound_to 1495
  -22.3952  -16.2891  -22.3125 LP  0  0  0  0  0  0  0  0  0  0  0  0  # atno 8639 bound_to 1495
  -24.8365  -15.7413  -20.1243 LP  0  0  0  0  0  0  0  0  0  0  0  0  # atno 8640 bound_to 1518
   -9.8148  -20.3885  -21.4232 LP  0  0  0  0  0  0  0  0  0  0  0  0  # atno 8641 bound_to 521 
  -11.1251  -20.4270  -19.5305 LP  0  0  0  0  0  0  0  0  0  0  0  0  # atno 8642 bound_to 600 
  -10.7712  -21.4432  -18.1733 LP  0  0  0  0  0  0  0  0  0  0  0  0  # atno 8643 bound_to 600 
   -2.4897   -9.9396  -14.2538 LP  0  0  0  0  0  0  0  0  0  0  0  0  # atno 8648 bound_to 5333
   -2.0451   -8.5701  -15.0241 LP  0  0  0  0  0  0  0  0  0  0  0  0  # atno 8649 bound_to 5333
   -8.7357  -19.7849  -23.5187 LP  0  0  0  0  0  0  0  0  0  0  0  0  # atno 8650 bound_to 485 
   -7.6014  -18.7906  -22.6675 LP  0  0  0  0  0  0  0  0  0  0  0  0  # atno 8651 bound_to 485 
   -7.1451  -22.8809  -22.0258 LP  0  0  0  0  0  0  0  0  0  0  0  0  # atno 8652 bound_to 482 
   -7.0592  -24.1536  -20.3638 LP  0  0  0  0  0  0  0  0  0  0  0  0  # atno 8661 bound_to 466 
   -8.4242  -24.4152  -21.3974 LP  0  0  0  0  0  0  0  0  0  0  0  0  # atno 8662 bound_to 466 
  -12.9511  -21.0111  -22.1454 LP  0  0  0  0  0  0  0  0  0  0  0  0  # atno 8663 bound_to 602 
  -12.6777  -20.0034  -20.8899 LP  0  0  0  0  0  0  0  0  0  0  0  0  # atno 8664 bound_to 602 
  -12.2287  -22.1671  -19.5563 LP  0  0  0  0  0  0  0  0  0  0  0  0  # atno 8665 bound_to 620 
  -10.7377  -24.4474  -21.7699 LP  0  0  0  0  0  0  0  0  0  0  0  0  # atno 8672 bound_to 652 
   -5.7786   -1.2150  -17.4164 LP  0  0  0  0  0  0  0  0  0  0  0  0  # atno 8689 bound_to 6822
   -7.1622   -1.5704  -18.2075 LP  0  0  0  0  0  0  0  0  0  0  0  0  # atno 8690 bound_to 6822
    2.7799    0.0001  -26.3271 LP  0  0  0  0  0  0  0  0  0  0  0  0  # atno 8712 bound_to 6623
    1.9332   -1.2188  -27.2202 LP  0  0  0  0  0  0  0  0  0  0  0  0  # atno 8713 bound_to 6623
    5.9808    0.6094  -13.5475 LP  0  0  0  0  0  0  0  0  0  0  0  0  # atno 8722 bound_to 5776
    4.5335   -0.1434  -13.4749 LP  0  0  0  0  0  0  0  0  0  0  0  0  # atno 8723 bound_to 5776
    3.3139    0.6554  -28.2288 LP  0  0  0  0  0  0  0  0  0  0  0  0  # atno 8724 bound_to 6649
   -0.3124    0.6635  -27.6979 LP  0  0  0  0  0  0  0  0  0  0  0  0  # atno 8725 bound_to 6674
   -3.0397    1.9321  -29.5231 LP  0  0  0  0  0  0  0  0  0  0  0  0  # atno 8728 bound_to 6709
    2.2008   -2.3932  -30.2353 LP  0  0  0  0  0  0  0  0  0  0  0  0  # atno 8729 bound_to 6598
    1.2772   -1.0964  -30.9175 LP  0  0  0  0  0  0  0  0  0  0  0  0  # atno 8730 bound_to 6598
    5.0100   -0.2239  -30.8110 LP  0  0  0  0  0  0  0  0  0  0  0  0  # atno 8731 bound_to 6620
    0.0890    0.7957  -31.0537 LP  0  0  0  0  0  0  0  0  0  0  0  0  # atno 8732 bound_to 6652
    0.6322    2.4375  -30.9567 LP  0  0  0  0  0  0  0  0  0  0  0  0  # atno 8733 bound_to 6652

> <Gold.Score>
     Fitness  S(hb_ext) S(vdw_ext)  S(hb_int)    S(int)      intcor
     28.66       4.77      17.95       0.00      -0.78      -0.76

> <Gold.Goldscore.Fitness>
28.6633

> <Gold.Goldscore.Internal.Vdw>
-0.9931

> <Gold.Goldscore.Internal.Torsion>
-0.5458

> <Gold.Goldscore.External.Vdw>
17.9466

> <Gold.Goldscore.Internal.HBond>
0.0000

> <Gold.Goldscore.External.HBond>
4.7672

> <Gold.Goldscore.Internal.Correction>
-0.7585

> <Gold.Goldscore.Hbonds>
donor molecule, donor type, donor heavy atom, donor atom, acceptor molecule, acceptor atom, score
      P1  H  5408  5430       L1    17  1.00
      P1  H  4194  4229       L1    11  0.46

> <Gold.Goldscore.Internal.Vdw.Weighted>
-0.9931

> <Gold.Goldscore.Internal.Torsion.Weighted>
-0.5458

> <Gold.Goldscore.External.Vdw.Weighted>
24.6765

> <Gold.Goldscore.Internal.HBond.Weighted>
0.0000

> <Gold.Goldscore.External.HBond.Weighted>
4.7672

> <Gold.Goldscore.Internal.Correction.Weighted>
-0.7585

> <Gold.Rescore>
     Score     S(PLP)   S(hbond)     S(cho)   S(metal)  DE(clash)   DE(tors)     intcor
     27.22     -25.94       1.00       0.00       0.00       0.46       0.63       ----

> <Gold.PLP.Fitness>
27.2196

> <Gold.PLP.PLP>
-25.9411

> <Gold.PLP.part.hbond>
-2.0000

> <Gold.PLP.part.metal>
0.0000

> <Gold.PLP.part.buried>
-1.8003

> <Gold.PLP.part.nonpolar>
-25.4823

> <Gold.PLP.part.repulsive>
2.9648

> <Gold.PLP.ligand.clash>
0.4638

> <Gold.PLP.ligand.torsion>
0.6289

> <Gold.PLP.Chemscore.Hbond>
1.0000

> <Gold.PLP.Chemscore.CHOScore>
0.0000

> <Gold.PLP.Chemscore.Metal>
0.0000

> <Gold.Chemscore.Hbonds>
donor molecule, donor type, donor heavy atom, donor atom, acceptor molecule, acceptor atom, score
      P1  H  5408  5430       L1    17  1.00
      P1  H  4194  4229       L1    11  0.39

> <Gold.PLP.Chemscore.Internal.Correction>
   9.000000E+99

