#       Name:                CT1002167954
#       Creating user name   hitesit
#       Creation time:       Sun Apr 16 02:23:11 2023


#       File generated by GOLD software.
#

@<TRIPOS>MOLECULE
CT1002167954|ligand_prepared|mol2|1|dock2
    29    30     1
SMALL
NO_CHARGES


@<TRIPOS>ATOM
      1 C1          -6.9673 -15.2441 -18.0836 C.3            1 RES1               0.0000
      2 C2          -7.3558 -16.3878 -17.1244 C.ar           1 RES1               0.0000
      3 C3          -8.2569 -14.8043 -18.7704 C.2            1 RES1               0.0000
      4 C4          -6.3224 -14.1647 -17.2213 C.2            1 RES1               0.0000
      5 C5          -5.9487 -15.6591 -19.1706 C.3            1 RES1               0.0000
      6 C6          -7.8662 -16.1096 -15.8600 C.ar           1 RES1               0.0000
      7 C7          -7.2122 -17.7235 -17.4903 C.ar           1 RES1               0.0000
      8 N8          -8.8056 -13.6172 -18.3838 N.am           1 RES1               0.0000
      9 O9          -8.8054 -15.5073 -19.6103 O.2            1 RES1               0.0000
     10 N10         -6.9694 -12.9621 -17.1074 N.am           1 RES1               0.0000
     11 O11         -5.2682 -14.3504 -16.6260 O.2            1 RES1               0.0000
     12 C12         -5.3589 -14.4863 -19.9379 C.3            1 RES1               0.0000
     13 C13         -8.2229 -17.1297 -14.9937 C.ar           1 RES1               0.0000
     14 C14         -7.5694 -18.7421 -16.6224 C.ar           1 RES1               0.0000
     15 C15         -8.1971 -12.6501 -17.6248 C.2            1 RES1               0.0000
     16 C16         -8.0752 -18.4465 -15.3744 C.ar           1 RES1               0.0000
     17 O17         -8.7386 -11.5650 -17.4335 O.2            1 RES1               0.0000
     18 H18         -5.1322 -16.2165 -18.6951 H              1 RES1               0.0000
     19 H19         -6.4448 -16.3320 -19.8809 H              1 RES1               0.0000
     20 H20         -7.9872 -15.0794 -15.5420 H              1 RES1               0.0000
     21 H21         -6.8153 -17.9797 -18.4667 H              1 RES1               0.0000
     22 H22         -9.7563 -13.4313 -18.6870 H              1 RES1               0.0000
     23 H23         -6.4915 -12.2319 -16.5891 H              1 RES1               0.0000
     24 H24         -4.6509 -14.8329 -20.6878 H              1 RES1               0.0000
     25 H25         -6.1408 -13.9242 -20.4443 H              1 RES1               0.0000
     26 H26         -4.8360 -13.8093 -19.2655 H              1 RES1               0.0000
     27 H27         -8.6193 -16.8918 -14.0121 H              1 RES1               0.0000
     28 H28         -7.4508 -19.7770 -16.9259 H              1 RES1               0.0000
     29 H29         -8.3551 -19.2454 -14.6957 H              1 RES1               0.0000
@<TRIPOS>BOND
    1    1    2 1     
    2    1    3 1     
    3    1    4 1     
    4    1    5 1     
    5    2    6 ar    
    6    2    7 ar    
    7    3    8 1     
    8    3    9 2     
    9    4   10 1     
   10    4   11 2     
   11    5   12 1     
   12    5   18 1     
   13    5   19 1     
   14    6   13 ar    
   15    6   20 1     
   16    7   14 ar    
   17    7   21 1     
   18    8   15 1     
   19    8   22 1     
   20   10   15 1     
   21   10   23 1     
   22   12   24 1     
   23   12   25 1     
   24   12   26 1     
   25   13   16 ar    
   26   13   27 1     
   27   14   16 ar    
   28   14   28 1     
   29   15   17 2     
   30   16   29 1     
@<TRIPOS>SUBSTRUCTURE
      1 RES1           1
@<TRIPOS>SET
DONOR_HYDROGENS      STATIC     ATOMS    <user>   **** ""
2 22 23
ATOM$RED        STATIC     ATOMS    COLORGROUP SYSTEM
2 22 23
@<TRIPOS>COMMENT
> <Gold.Version>
2022.3.0

> <Gold.Id.Protein>
unknown|7kl0_clean|pdb

> <Gold.Protein.RotatedTorsions>
[ 6433 6412 6411 6409 ] final  -10.15 input   60.01 | X-H torsion
[ 1391 1375 1376 1377 ] final  105.90 input  130.72 | X-H torsion
[ 1421 1411 1412 1413 ] final   62.42 input  114.05 | X-H torsion
[ 6231 6210 6209 6207 ] final   53.31 input   60.00 | X-H torsion
[ 7222 7206 7205 7202 ] final   36.37 input   60.00 | X-H torsion
[ 1362 1344 1345 1346 ] final -156.37 input   95.07 | X-H torsion
[ 5430 5408 5407 5405 ] final   -8.43 input   60.00 | X-H torsion
[  580  562  563  564 ] final -137.16 input   55.02 | X-H torsion
[ 1326 1306 1307 1308 ] final -146.13 input  117.83 | X-H torsion
[  608  597  598  599 ] final -144.94 input   37.41 | X-H torsion
[  546  536  537  538 ] final  -66.22 input  119.99 | X-H torsion
[ 4227 4194 4193 4192 ] final  146.62 input   60.00 | X-H torsion
[ 1262 1249 1250 1251 ] final   78.45 input  103.51 | X-H torsion
[ 1425 1416 1415 1412 ] final  100.75 input   60.01 | X-H torsion
[ 1504 1492 1493 1494 ] final  128.44 input  118.60 | X-H torsion
[ 1535 1518 1519 1520 ] final   34.98 input  116.53 | X-H torsion
[  528  521  522  523 ] final  -59.87 input   38.54 | X-H torsion
[ 5354 5333 5331 5328 ] final   81.04 input   59.99 | X-H torsion
[  504  482  483  484 ] final   54.45 input   40.33 | X-H torsion
[  612  602  601  598 ] final  178.00 input   59.99 | X-H torsion
[  636  620  621  622 ] final   15.23 input   33.60 | X-H torsion
[  668  652  653  654 ] final   32.03 input   67.24 | X-H torsion
[ 6843 6822 6821 6819 ] final   61.48 input   59.97 | X-H torsion
[ 1596 1580 1579 1578 ] final  171.02 input   59.99 | X-H torsion
[ 5797 5776 5775 5773 ] final -100.28 input   60.02 | X-H torsion
[ 6661 6649 6650 6651 ] final  -73.16 input   84.69 | X-H torsion
[ 6691 6674 6675 6676 ] final   94.26 input  117.08 | X-H torsion
[ 6727 6709 6710 6711 ] final -164.11 input  123.04 | X-H torsion
[ 6635 6620 6621 6622 ] final  105.76 input  122.94 | X-H torsion
[ 1613 1589 1588 1587 ] final -142.48 input   59.99 | X-H torsion
[ 4214 4203 4202 4201 ] final  -31.70 input   60.00 | X-H torsion
[ 8535 1347 1346 1345 ] final -176.04 input   -0.00 | X-H torsion
[ 8582  539  538  537 ] final -104.35 input    0.00 | X-H torsion
[ 8586 1252 1251 1250 ] final  -32.68 input    0.00 | X-H torsion
[ 8588 1378 1377 1376 ] final  -55.09 input   -0.00 | X-H torsion
[ 8593 1279 1278 1277 ] final   60.12 input    0.00 | X-H torsion
[ 8596 1309 1308 1307 ] final  141.22 input    0.00 | X-H torsion
[ 8602  565  564  563 ] final  154.06 input    0.00 | X-H torsion
[ 8625  524  523  522 ] final   58.83 input    0.00 | X-H torsion
[ 8635 1414 1413 1412 ] final  136.22 input    0.00 | X-H torsion
[ 8638 1495 1494 1493 ] final  -43.81 input    0.00 | X-H torsion
[ 8642  600  599  598 ] final    9.59 input    0.00 | X-H torsion
[ 8650  485  484  483 ] final  114.97 input    0.00 | X-H torsion
[ 8661  466  465  464 ] final   48.88 input   -0.00 | X-H torsion
[ 8712 6623 6622 6621 ] final  109.55 input    0.00 | X-H torsion
[ 8729 6598 6597 6596 ] final  170.98 input   -0.00 | X-H torsion
[ 8732 6652 6651 6650 ] final  -73.68 input   -0.00 | X-H torsion

> <Gold.Protein.ActiveResidues>
 GLU18   GLY20   LYS21   GLY22   ALA23   PHE24   SER25   VAL26   VAL27   ARG28  
 ILE44   ASN45   THR46   LYS47   LYS48   LEU49   SER50   ARG52   ASP53   HIS54  
 LYS56   ARG59   GLY95   GLU96   LEU97   PHE98   GLU99   ASP100  ILE101  VAL102 
 ALA103  GLU105  TYR106  HIS133  ARG134  ASN135  LEU136  LYS137  PRO138  GLU139 
 ASN140  LEU142  ASP156  GLY158  LEU159  ILE161  TRP170  PHE171  GLY172  PHE173 
 ALA174  GLY175  THR176  PRO177  GLY178  TYR179  LEU180  VAL184  LEU185  LYS187 
 TYR190  VAL201  ILE202  TYR204  ILE205  LEU206  VAL208  GLY209  TYR210  PRO211 
 PRO212  PHE213  TRP214  ASP215  GLU216  ASP217  GLN218  HIS219  LEU221  TYR222 
 GLN224  ILE225  ALA229  TYR230  ASP231  PHE232  PRO233  SER234  PRO235  GLU236 
 TRP237 

> <Gold.Protein.RotatedAtoms>
   -6.6138  -21.3661  -22.7137 H   0  0  0  0  0  0  0  0  0  0  0  0  # atno 504  bound_to 482 
   -8.8524  -19.4217  -20.3773 H   0  0  0  0  0  0  0  0  0  0  0  0  # atno 528  bound_to 521 
  -11.0319  -17.3288  -19.7361 H   0  0  0  0  0  0  0  0  0  0  0  0  # atno 546  bound_to 536 
  -13.2514  -16.6609  -17.6444 H   0  0  0  0  0  0  0  0  0  0  0  0  # atno 580  bound_to 562 
  -14.5765  -19.7329  -18.0129 H   0  0  0  0  0  0  0  0  0  0  0  0  # atno 608  bound_to 597 
  -13.7334  -20.4081  -22.3881 H   0  0  0  0  0  0  0  0  0  0  0  0  # atno 612  bound_to 602 
  -13.0944  -23.5049  -20.0638 H   0  0  0  0  0  0  0  0  0  0  0  0  # atno 636  bound_to 620 
   -9.3934  -25.2084  -21.1276 H   0  0  0  0  0  0  0  0  0  0  0  0  # atno 668  bound_to 652 
  -17.2571  -21.4830  -17.1055 H   0  0  0  0  0  0  0  0  0  0  0  0  # atno 1262 bound_to 1249
  -22.1355  -21.5211  -13.5794 H   0  0  0  0  0  0  0  0  0  0  0  0  # atno 1326 bound_to 1306
  -21.8618  -18.4975  -11.1925 H   0  0  0  0  0  0  0  0  0  0  0  0  # atno 1362 bound_to 1344
  -23.5952  -17.5564  -13.9968 H   0  0  0  0  0  0  0  0  0  0  0  0  # atno 1391 bound_to 1375
  -23.5056  -14.1727  -16.9161 H   0  0  0  0  0  0  0  0  0  0  0  0  # atno 1421 bound_to 1411
  -24.5430  -11.3202  -19.1149 H   0  0  0  0  0  0  0  0  0  0  0  0  # atno 1425 bound_to 1416
  -24.4107  -12.5970  -20.2200 H   0  0  0  0  0  0  0  0  0  0  0  0  # atno 1504 bound_to 1492
  -25.4253  -14.9300  -21.4814 H   0  0  0  0  0  0  0  0  0  0  0  0  # atno 1535 bound_to 1518
    7.5910   -6.1706  -22.0679 H   0  0  0  0  0  0  0  0  0  0  0  0  # atno 1596 bound_to 1580
    8.4534   -4.7897  -21.7571 H   0  0  0  0  0  0  0  0  0  0  0  0  # atno 1597 bound_to 1580
    8.6949   -5.6170  -23.1732 H   0  0  0  0  0  0  0  0  0  0  0  0  # atno 1598 bound_to 1580
  -18.3065  -11.3886  -26.0747 H   0  0  0  0  0  0  0  0  0  0  0  0  # atno 1613 bound_to 1589
  -19.2405  -11.0199  -24.7554 H   0  0  0  0  0  0  0  0  0  0  0  0  # atno 1614 bound_to 1589
  -18.3278  -12.4038  -24.7647 H   0  0  0  0  0  0  0  0  0  0  0  0  # atno 1615 bound_to 1589
   -5.3669  -13.1619  -30.3688 H   0  0  0  0  0  0  0  0  0  0  0  0  # atno 4214 bound_to 4203
   -7.0065  -12.9348  -30.2767 H   0  0  0  0  0  0  0  0  0  0  0  0  # atno 4215 bound_to 4203
   -6.3019  -14.2188  -29.4999 H   0  0  0  0  0  0  0  0  0  0  0  0  # atno 4216 bound_to 4203
   -2.4263  -11.9368  -15.9235 H   0  0  0  0  0  0  0  0  0  0  0  0  # atno 4227 bound_to 4194
   -3.8537  -12.7431  -15.6790 H   0  0  0  0  0  0  0  0  0  0  0  0  # atno 4228 bound_to 4194
   -3.6693  -11.1948  -15.1167 H   0  0  0  0  0  0  0  0  0  0  0  0  # atno 4229 bound_to 4194
   -1.9699   -9.0670  -14.3278 H   0  0  0  0  0  0  0  0  0  0  0  0  # atno 5354 bound_to 5333
   -8.1745  -12.2716   -8.9079 H   0  0  0  0  0  0  0  0  0  0  0  0  # atno 5430 bound_to 5408
    6.2702    0.3319  -13.3264 H   0  0  0  0  0  0  0  0  0  0  0  0  # atno 5797 bound_to 5776
  -17.2360   -7.8325   -1.6945 H   0  0  0  0  0  0  0  0  0  0  0  0  # atno 6231 bound_to 6210
  -19.0305   -8.4978   -2.1474 H   0  0  0  0  0  0  0  0  0  0  0  0  # atno 6433 bound_to 6412
    4.9331   -0.0226  -30.7369 H   0  0  0  0  0  0  0  0  0  0  0  0  # atno 6635 bound_to 6620
    2.6806    0.1123  -28.5489 H   0  0  0  0  0  0  0  0  0  0  0  0  # atno 6661 bound_to 6649
   -0.7080    1.3884  -27.5832 H   0  0  0  0  0  0  0  0  0  0  0  0  # atno 6691 bound_to 6674
   -3.1949    2.4407  -28.5766 H   0  0  0  0  0  0  0  0  0  0  0  0  # atno 6727 bound_to 6709
   -7.3619   -2.2221  -17.5040 H   0  0  0  0  0  0  0  0  0  0  0  0  # atno 6843 bound_to 6822
  -24.8201   -7.1076    3.7446 H   0  0  0  0  0  0  0  0  0  0  0  0  # atno 7222 bound_to 7206
  -24.5880  -14.5815  -13.4007 LP  0  0  0  0  0  0  0  0  0  0  0  0  # atno 8535 bound_to 1347
  -23.9166  -14.4830  -11.8071 LP  0  0  0  0  0  0  0  0  0  0  0  0  # atno 8536 bound_to 1347
  -19.2293   -9.8750   -1.3032 LP  0  0  0  0  0  0  0  0  0  0  0  0  # atno 8539 bound_to 6412
  -20.4102   -9.3476   -2.3001 LP  0  0  0  0  0  0  0  0  0  0  0  0  # atno 8540 bound_to 6412
  -22.9117  -16.0922  -13.3068 LP  0  0  0  0  0  0  0  0  0  0  0  0  # atno 8545 bound_to 1375
  -24.1442  -14.1595  -15.2828 LP  0  0  0  0  0  0  0  0  0  0  0  0  # atno 8546 bound_to 1411
  -16.7789   -6.7363   -2.8071 LP  0  0  0  0  0  0  0  0  0  0  0  0  # atno 8553 bound_to 6210
  -16.7940   -6.3388   -1.2233 LP  0  0  0  0  0  0  0  0  0  0  0  0  # atno 8554 bound_to 6210
  -25.2826   -8.2193    4.8391 LP  0  0  0  0  0  0  0  0  0  0  0  0  # atno 8565 bound_to 7206
  -26.3461   -7.0991    4.3093 LP  0  0  0  0  0  0  0  0  0  0  0  0  # atno 8566 bound_to 7206
  -22.1046  -18.3133  -12.9161 LP  0  0  0  0  0  0  0  0  0  0  0  0  # atno 8581 bound_to 1344
  -11.8983  -17.3044  -16.1417 LP  0  0  0  0  0  0  0  0  0  0  0  0  # atno 8582 bound_to 539 
  -12.5993  -15.7330  -15.9439 LP  0  0  0  0  0  0  0  0  0  0  0  0  # atno 8583 bound_to 539 
   -7.8054  -12.5010  -10.4766 LP  0  0  0  0  0  0  0  0  0  0  0  0  # atno 8584 bound_to 5408
   -9.0468  -11.5246  -10.0616 LP  0  0  0  0  0  0  0  0  0  0  0  0  # atno 8585 bound_to 5408
  -18.6240  -19.5658  -15.6478 LP  0  0  0  0  0  0  0  0  0  0  0  0  # atno 8586 bound_to 1252
  -20.1456  -19.5525  -16.4753 LP  0  0  0  0  0  0  0  0  0  0  0  0  # atno 8587 bound_to 1252
  -26.0472  -16.0734  -15.4379 LP  0  0  0  0  0  0  0  0  0  0  0  0  # atno 8588 bound_to 1378
  -26.0243  -14.6350  -14.4732 LP  0  0  0  0  0  0  0  0  0  0  0  0  # atno 8589 bound_to 1378
  -14.0007  -17.3340  -19.0828 LP  0  0  0  0  0  0  0  0  0  0  0  0  # atno 8592 bound_to 562 
  -24.6405  -20.4246  -14.6198 LP  0  0  0  0  0  0  0  0  0  0  0  0  # atno 8593 bound_to 1279
  -23.9398  -18.9744  -13.9826 LP  0  0  0  0  0  0  0  0  0  0  0  0  # atno 8594 bound_to 1279
  -21.4847  -19.8947  -13.6560 LP  0  0  0  0  0  0  0  0  0  0  0  0  # atno 8595 bound_to 1306
  -24.2303  -17.9235  -10.5905 LP  0  0  0  0  0  0  0  0  0  0  0  0  # atno 8596 bound_to 1309
  -24.8200  -19.2624  -11.5176 LP  0  0  0  0  0  0  0  0  0  0  0  0  # atno 8597 bound_to 1309
  -15.9893  -21.0450  -18.1416 LP  0  0  0  0  0  0  0  0  0  0  0  0  # atno 8602 bound_to 565 
  -16.2262  -20.1781  -16.6609 LP  0  0  0  0  0  0  0  0  0  0  0  0  # atno 8603 bound_to 565 
  -12.9718  -19.3578  -18.6059 LP  0  0  0  0  0  0  0  0  0  0  0  0  # atno 8604 bound_to 597 
   -9.4782  -18.1779  -18.6203 LP  0  0  0  0  0  0  0  0  0  0  0  0  # atno 8625 bound_to 524 
  -11.0908  -18.4222  -18.0372 LP  0  0  0  0  0  0  0  0  0  0  0  0  # atno 8626 bound_to 524 
  -12.1345  -16.4904  -20.8163 LP  0  0  0  0  0  0  0  0  0  0  0  0  # atno 8627 bound_to 536 
  -18.0006  -23.0531  -17.3260 LP  0  0  0  0  0  0  0  0  0  0  0  0  # atno 8630 bound_to 1249
  -23.8082  -12.6855  -18.6213 LP  0  0  0  0  0  0  0  0  0  0  0  0  # atno 8631 bound_to 1416
  -23.0577  -11.2448  -18.4547 LP  0  0  0  0  0  0  0  0  0  0  0  0  # atno 8632 bound_to 1416
  -26.1398  -15.2307  -18.5958 LP  0  0  0  0  0  0  0  0  0  0  0  0  # atno 8635 bound_to 1414
  -24.6593  -14.3489  -18.7702 LP  0  0  0  0  0  0  0  0  0  0  0  0  # atno 8636 bound_to 1414
  -25.0918  -13.0170  -21.7829 LP  0  0  0  0  0  0  0  0  0  0  0  0  # atno 8637 bound_to 1492
  -22.9465  -15.9420  -23.1165 LP  0  0  0  0  0  0  0  0  0  0  0  0  # atno 8638 bound_to 1495
  -23.3449  -17.2774  -22.0879 LP  0  0  0  0  0  0  0  0  0  0  0  0  # atno 8639 bound_to 1495
  -24.4777  -15.9026  -20.3728 LP  0  0  0  0  0  0  0  0  0  0  0  0  # atno 8640 bound_to 1518
  -10.0304  -20.4736  -21.1499 LP  0  0  0  0  0  0  0  0  0  0  0  0  # atno 8641 bound_to 521 
  -11.4705  -20.2888  -18.6080 LP  0  0  0  0  0  0  0  0  0  0  0  0  # atno 8642 bound_to 600 
  -10.4259  -21.5814  -19.0958 LP  0  0  0  0  0  0  0  0  0  0  0  0  # atno 8643 bound_to 600 
   -2.6662   -8.8555  -15.7837 LP  0  0  0  0  0  0  0  0  0  0  0  0  # atno 8648 bound_to 5333
   -3.0135  -10.1802  -14.8943 LP  0  0  0  0  0  0  0  0  0  0  0  0  # atno 8649 bound_to 5333
   -8.8817  -19.5913  -23.4795 LP  0  0  0  0  0  0  0  0  0  0  0  0  # atno 8650 bound_to 485 
   -7.4554  -18.9843  -22.7067 LP  0  0  0  0  0  0  0  0  0  0  0  0  # atno 8651 bound_to 485 
   -7.2910  -22.8738  -22.1215 LP  0  0  0  0  0  0  0  0  0  0  0  0  # atno 8652 bound_to 482 
   -6.9749  -24.6769  -20.7917 LP  0  0  0  0  0  0  0  0  0  0  0  0  # atno 8661 bound_to 466 
   -8.5085  -23.8919  -20.9695 LP  0  0  0  0  0  0  0  0  0  0  0  0  # atno 8662 bound_to 466 
  -12.4664  -20.8257  -21.4561 LP  0  0  0  0  0  0  0  0  0  0  0  0  # atno 8663 bound_to 602 
  -13.3411  -19.4934  -21.1005 LP  0  0  0  0  0  0  0  0  0  0  0  0  # atno 8664 bound_to 602 
  -12.2795  -22.3179  -19.0564 LP  0  0  0  0  0  0  0  0  0  0  0  0  # atno 8665 bound_to 620 
  -11.0392  -24.7089  -21.4557 LP  0  0  0  0  0  0  0  0  0  0  0  0  # atno 8672 bound_to 652 
   -5.9660   -1.8178  -16.7718 LP  0  0  0  0  0  0  0  0  0  0  0  0  # atno 8689 bound_to 6822
   -6.4023   -1.0861  -18.1649 LP  0  0  0  0  0  0  0  0  0  0  0  0  # atno 8690 bound_to 6822
    2.6825    0.0705  -26.3476 LP  0  0  0  0  0  0  0  0  0  0  0  0  # atno 8712 bound_to 6623
    2.0307   -1.2893  -27.1998 LP  0  0  0  0  0  0  0  0  0  0  0  0  # atno 8713 bound_to 6623
    4.6791    0.2524  -13.6567 LP  0  0  0  0  0  0  0  0  0  0  0  0  # atno 8722 bound_to 5776
    5.4057   -0.9537  -12.8296 LP  0  0  0  0  0  0  0  0  0  0  0  0  # atno 8723 bound_to 5776
    3.4314    1.3809  -29.5039 LP  0  0  0  0  0  0  0  0  0  0  0  0  # atno 8724 bound_to 6649
    0.1683    1.0761  -29.0685 LP  0  0  0  0  0  0  0  0  0  0  0  0  # atno 8725 bound_to 6674
   -1.8307    2.5154  -29.6716 LP  0  0  0  0  0  0  0  0  0  0  0  0  # atno 8728 bound_to 6709
    2.0968   -1.8902  -29.8013 LP  0  0  0  0  0  0  0  0  0  0  0  0  # atno 8729 bound_to 6598
    1.3812   -1.5994  -31.3516 LP  0  0  0  0  0  0  0  0  0  0  0  0  # atno 8730 bound_to 6598
    3.5765   -1.1278  -30.8859 LP  0  0  0  0  0  0  0  0  0  0  0  0  # atno 8731 bound_to 6620
    0.2889    2.4784  -30.9583 LP  0  0  0  0  0  0  0  0  0  0  0  0  # atno 8732 bound_to 6652
    0.4323    0.7548  -31.0521 LP  0  0  0  0  0  0  0  0  0  0  0  0  # atno 8733 bound_to 6652

> <Gold.Score>
     Fitness  S(hb_ext) S(vdw_ext)  S(hb_int)    S(int)      intcor
     29.15       6.00      16.95       0.00      -0.16      -0.76

> <Gold.Goldscore.Fitness>
29.1458

> <Gold.Goldscore.Internal.Vdw>
-0.3515

> <Gold.Goldscore.Internal.Torsion>
-0.5681

> <Gold.Goldscore.External.Vdw>
16.9505

> <Gold.Goldscore.Internal.HBond>
0.0000

> <Gold.Goldscore.External.HBond>
6.0000

> <Gold.Goldscore.Internal.Correction>
-0.7585

> <Gold.Goldscore.Hbonds>
donor molecule, donor type, donor heavy atom, donor atom, acceptor molecule, acceptor atom, score
      P1  H  4194  4228       L1    11  1.00

> <Gold.Goldscore.Internal.Vdw.Weighted>
-0.3515

> <Gold.Goldscore.Internal.Torsion.Weighted>
-0.5681

> <Gold.Goldscore.External.Vdw.Weighted>
23.3069

> <Gold.Goldscore.Internal.HBond.Weighted>
0.0000

> <Gold.Goldscore.External.HBond.Weighted>
6.0000

> <Gold.Goldscore.Internal.Correction.Weighted>
-0.7585

> <Gold.Rescore>
     Score     S(PLP)   S(hbond)     S(cho)   S(metal)  DE(clash)   DE(tors)     intcor
     24.33     -22.27       0.94       0.00       0.00       0.00       0.38       ----

> <Gold.PLP.Fitness>
24.3313

> <Gold.PLP.PLP>
-22.2670

> <Gold.PLP.part.hbond>
-1.0000

> <Gold.PLP.part.metal>
0.0000

> <Gold.PLP.part.buried>
-3.7253

> <Gold.PLP.part.nonpolar>
-18.4875

> <Gold.PLP.part.repulsive>
0.7741

> <Gold.PLP.ligand.clash>
0.0000

> <Gold.PLP.ligand.torsion>
0.3816

> <Gold.PLP.Chemscore.Hbond>
0.9425

> <Gold.PLP.Chemscore.CHOScore>
0.0000

> <Gold.PLP.Chemscore.Metal>
0.0000

> <Gold.Chemscore.Hbonds>
donor molecule, donor type, donor heavy atom, donor atom, acceptor molecule, acceptor atom, score
      P1  H  4194  4228       L1    11  0.39

> <Gold.PLP.Chemscore.Internal.Correction>
   9.000000E+99

