#       Name:                CT1002167954
#       Creating user name   hitesit
#       Creation time:       Sun Apr 16 02:23:09 2023


#       File generated by GOLD software.
#

@<TRIPOS>MOLECULE
CT1002167954|ligand_prepared|mol2|1|dock1
    29    30     1
SMALL
NO_CHARGES


@<TRIPOS>ATOM
      1 C1          -6.9451 -15.5016 -17.9853 C.3            1 RES1               0.0000
      2 C2          -7.1878 -16.5706 -16.9004 C.ar           1 RES1               0.0000
      3 C3          -5.4858 -15.0770 -17.8495 C.2            1 RES1               0.0000
      4 C4          -7.2792 -16.1627 -19.3180 C.2            1 RES1               0.0000
      5 C5          -7.8374 -14.2472 -17.8373 C.3            1 RES1               0.0000
      6 C6          -6.5844 -17.8213 -16.9904 C.ar           1 RES1               0.0000
      7 C7          -8.0091 -16.3202 -15.8043 C.ar           1 RES1               0.0000
      8 N8          -4.6094 -15.5150 -18.7982 N.am           1 RES1               0.0000
      9 O9          -5.1024 -14.4009 -16.9028 O.2            1 RES1               0.0000
     10 N10         -6.2597 -16.3537 -20.2134 N.am           1 RES1               0.0000
     11 O11         -8.4130 -16.5350 -19.5939 O.2            1 RES1               0.0000
     12 C12         -7.6824 -13.2471 -18.9722 C.3            1 RES1               0.0000
     13 C13         -6.7920 -18.7859 -16.0184 C.ar           1 RES1               0.0000
     14 C14         -8.2155 -17.2863 -14.8334 C.ar           1 RES1               0.0000
     15 C15         -4.9343 -16.0878 -20.0016 C.2            1 RES1               0.0000
     16 C16         -7.6072 -18.5189 -14.9391 C.ar           1 RES1               0.0000
     17 O17         -4.0685 -16.3379 -20.8352 O.2            1 RES1               0.0000
     18 H18         -8.8864 -14.5641 -17.7867 H              1 RES1               0.0000
     19 H19         -7.5917 -13.7487 -16.8915 H              1 RES1               0.0000
     20 H20         -5.9416 -18.0505 -17.8338 H              1 RES1               0.0000
     21 H21         -8.4988 -15.3578 -15.7009 H              1 RES1               0.0000
     22 H22         -3.6210 -15.4068 -18.5940 H              1 RES1               0.0000
     23 H23         -6.5122 -16.7289 -21.1222 H              1 RES1               0.0000
     24 H24         -8.3302 -12.3865 -18.8191 H              1 RES1               0.0000
     25 H25         -6.6561 -12.8916 -19.0357 H              1 RES1               0.0000
     26 H26         -7.9431 -13.7022 -19.9255 H              1 RES1               0.0000
     27 H27         -6.3120 -19.7549 -16.1069 H              1 RES1               0.0000
     28 H28         -8.8583 -17.0720 -13.9860 H              1 RES1               0.0000
     29 H29         -7.7693 -19.2746 -14.1776 H              1 RES1               0.0000
@<TRIPOS>BOND
    1    1    2 1     
    2    1    3 1     
    3    1    4 1     
    4    1    5 1     
    5    2    6 ar    
    6    2    7 ar    
    7    3    8 1     
    8    3    9 2     
    9    4   10 1     
   10    4   11 2     
   11    5   12 1     
   12    5   18 1     
   13    5   19 1     
   14    6   13 ar    
   15    6   20 1     
   16    7   14 ar    
   17    7   21 1     
   18    8   15 1     
   19    8   22 1     
   20   10   15 1     
   21   10   23 1     
   22   12   24 1     
   23   12   25 1     
   24   12   26 1     
   25   13   16 ar    
   26   13   27 1     
   27   14   16 ar    
   28   14   28 1     
   29   15   17 2     
   30   16   29 1     
@<TRIPOS>SUBSTRUCTURE
      1 RES1           1
@<TRIPOS>SET
DONOR_HYDROGENS      STATIC     ATOMS    <user>   **** ""
2 22 23
ATOM$RED        STATIC     ATOMS    COLORGROUP SYSTEM
2 22 23
@<TRIPOS>COMMENT
> <Gold.Version>
2022.3.0

> <Gold.Id.Protein>
unknown|7kl0_clean|pdb

> <Gold.Protein.RotatedTorsions>
[ 6433 6412 6411 6409 ] final  -14.09 input   60.01 | X-H torsion
[ 1391 1375 1376 1377 ] final -141.80 input  130.72 | X-H torsion
[ 1421 1411 1412 1413 ] final  118.53 input  114.05 | X-H torsion
[ 6231 6210 6209 6207 ] final  116.41 input   60.00 | X-H torsion
[ 7222 7206 7205 7202 ] final -138.23 input   60.00 | X-H torsion
[ 1362 1344 1345 1346 ] final  138.70 input   95.07 | X-H torsion
[ 5430 5408 5407 5405 ] final  102.12 input   60.00 | X-H torsion
[  580  562  563  564 ] final  -71.63 input   55.02 | X-H torsion
[ 1326 1306 1307 1308 ] final  -96.08 input  117.83 | X-H torsion
[  608  597  598  599 ] final   70.97 input   37.41 | X-H torsion
[  546  536  537  538 ] final -118.98 input  119.99 | X-H torsion
[ 4227 4194 4193 4192 ] final  -98.58 input   60.00 | X-H torsion
[ 1262 1249 1250 1251 ] final   31.17 input  103.51 | X-H torsion
[ 1425 1416 1415 1412 ] final -103.68 input   60.01 | X-H torsion
[ 1504 1492 1493 1494 ] final   35.55 input  118.60 | X-H torsion
[ 1535 1518 1519 1520 ] final  -84.73 input  116.53 | X-H torsion
[  528  521  522  523 ] final  -61.44 input   38.54 | X-H torsion
[ 5354 5333 5331 5328 ] final   27.48 input   59.99 | X-H torsion
[  504  482  483  484 ] final -143.89 input   40.33 | X-H torsion
[  612  602  601  598 ] final -157.98 input   59.99 | X-H torsion
[  636  620  621  622 ] final  -55.15 input   33.60 | X-H torsion
[  668  652  653  654 ] final   50.85 input   67.24 | X-H torsion
[ 6843 6822 6821 6819 ] final   13.44 input   59.97 | X-H torsion
[ 1596 1580 1579 1578 ] final  -26.02 input   59.99 | X-H torsion
[ 5797 5776 5775 5773 ] final   96.17 input   60.02 | X-H torsion
[ 6661 6649 6650 6651 ] final  164.43 input   84.69 | X-H torsion
[ 6691 6674 6675 6676 ] final  166.35 input  117.08 | X-H torsion
[ 6727 6709 6710 6711 ] final  177.90 input  123.04 | X-H torsion
[ 6635 6620 6621 6622 ] final  139.82 input  122.94 | X-H torsion
[ 1613 1589 1588 1587 ] final -161.04 input   59.99 | X-H torsion
[ 4214 4203 4202 4201 ] final  134.25 input   60.00 | X-H torsion
[ 8535 1347 1346 1345 ] final   74.63 input   -0.00 | X-H torsion
[ 8582  539  538  537 ] final   53.16 input    0.00 | X-H torsion
[ 8586 1252 1251 1250 ] final   92.39 input    0.00 | X-H torsion
[ 8588 1378 1377 1376 ] final -133.00 input   -0.00 | X-H torsion
[ 8593 1279 1278 1277 ] final  156.69 input    0.00 | X-H torsion
[ 8596 1309 1308 1307 ] final -137.08 input    0.00 | X-H torsion
[ 8602  565  564  563 ] final -100.30 input    0.00 | X-H torsion
[ 8625  524  523  522 ] final  -27.43 input    0.00 | X-H torsion
[ 8635 1414 1413 1412 ] final    4.69 input    0.00 | X-H torsion
[ 8638 1495 1494 1493 ] final -149.62 input    0.00 | X-H torsion
[ 8642  600  599  598 ] final   38.39 input    0.00 | X-H torsion
[ 8650  485  484  483 ] final   97.33 input    0.00 | X-H torsion
[ 8661  466  465  464 ] final  108.25 input   -0.00 | X-H torsion
[ 8712 6623 6622 6621 ] final   52.64 input    0.00 | X-H torsion
[ 8729 6598 6597 6596 ] final -150.26 input   -0.00 | X-H torsion
[ 8732 6652 6651 6650 ] final  -41.97 input   -0.00 | X-H torsion

> <Gold.Protein.ActiveResidues>
 GLU18   GLY20   LYS21   GLY22   ALA23   PHE24   SER25   VAL26   VAL27   ARG28  
 ILE44   ASN45   THR46   LYS47   LYS48   LEU49   SER50   ARG52   ASP53   HIS54  
 LYS56   ARG59   GLY95   GLU96   LEU97   PHE98   GLU99   ASP100  ILE101  VAL102 
 ALA103  GLU105  TYR106  HIS133  ARG134  ASN135  LEU136  LYS137  PRO138  GLU139 
 ASN140  LEU142  ASP156  GLY158  LEU159  ILE161  TRP170  PHE171  GLY172  PHE173 
 ALA174  GLY175  THR176  PRO177  GLY178  TYR179  LEU180  VAL184  LEU185  LYS187 
 TYR190  VAL201  ILE202  TYR204  ILE205  LEU206  VAL208  GLY209  TYR210  PRO211 
 PRO212  PHE213  TRP214  ASP215  GLU216  ASP217  GLN218  HIS219  LEU221  TYR222 
 GLN224  ILE225  ALA229  TYR230  ASP231  PHE232  PRO233  SER234  PRO235  GLU236 
 TRP237 

> <Gold.Protein.RotatedAtoms>
   -7.0860  -22.8839  -21.9209 H   0  0  0  0  0  0  0  0  0  0  0  0  # atno 504  bound_to 482 
   -8.8410  -19.4189  -20.3992 H   0  0  0  0  0  0  0  0  0  0  0  0  # atno 528  bound_to 521 
  -10.7370  -16.6908  -20.1205 H   0  0  0  0  0  0  0  0  0  0  0  0  # atno 546  bound_to 536 
  -12.9025  -17.4480  -18.1015 H   0  0  0  0  0  0  0  0  0  0  0  0  # atno 580  bound_to 562 
  -13.3058  -19.1923  -18.9985 H   0  0  0  0  0  0  0  0  0  0  0  0  # atno 608  bound_to 597 
  -13.8899  -20.0829  -22.2411 H   0  0  0  0  0  0  0  0  0  0  0  0  # atno 612  bound_to 602 
  -12.5774  -22.6730  -20.4163 H   0  0  0  0  0  0  0  0  0  0  0  0  # atno 636  bound_to 620 
   -9.3433  -25.0160  -21.3403 H   0  0  0  0  0  0  0  0  0  0  0  0  # atno 668  bound_to 652 
  -17.9048  -21.4536  -17.4064 H   0  0  0  0  0  0  0  0  0  0  0  0  # atno 1262 bound_to 1249
  -22.6137  -20.9969  -13.8441 H   0  0  0  0  0  0  0  0  0  0  0  0  # atno 1326 bound_to 1306
  -21.1549  -18.2524  -11.7866 H   0  0  0  0  0  0  0  0  0  0  0  0  # atno 1362 bound_to 1344
  -22.3437  -16.7818  -13.7113 H   0  0  0  0  0  0  0  0  0  0  0  0  # atno 1391 bound_to 1375
  -23.1906  -13.6110  -16.3718 H   0  0  0  0  0  0  0  0  0  0  0  0  # atno 1421 bound_to 1411
  -22.9558  -11.7979  -18.3401 H   0  0  0  0  0  0  0  0  0  0  0  0  # atno 1425 bound_to 1416
  -25.2988  -13.4410  -20.6678 H   0  0  0  0  0  0  0  0  0  0  0  0  # atno 1504 bound_to 1492
  -24.2099  -15.8491  -21.2110 H   0  0  0  0  0  0  0  0  0  0  0  0  # atno 1535 bound_to 1518
    8.8328   -4.7692  -22.3463 H   0  0  0  0  0  0  0  0  0  0  0  0  # atno 1596 bound_to 1580
    8.2351   -6.1352  -23.0704 H   0  0  0  0  0  0  0  0  0  0  0  0  # atno 1597 bound_to 1580
    7.6722   -5.6719  -21.5816 H   0  0  0  0  0  0  0  0  0  0  0  0  # atno 1598 bound_to 1580
  -18.1554  -11.6540  -26.0307 H   0  0  0  0  0  0  0  0  0  0  0  0  # atno 1613 bound_to 1589
  -19.2048  -10.8637  -25.0193 H   0  0  0  0  0  0  0  0  0  0  0  0  # atno 1614 bound_to 1589
  -18.5147  -12.2945  -24.5449 H   0  0  0  0  0  0  0  0  0  0  0  0  # atno 1615 bound_to 1589
   -7.1563  -13.5274  -29.8463 H   0  0  0  0  0  0  0  0  0  0  0  0  # atno 4214 bound_to 4203
   -5.5982  -14.0758  -29.7052 H   0  0  0  0  0  0  0  0  0  0  0  0  # atno 4215 bound_to 4203
   -5.9210  -12.7135  -30.5932 H   0  0  0  0  0  0  0  0  0  0  0  0  # atno 4216 bound_to 4203
   -3.7859  -12.7793  -15.7203 H   0  0  0  0  0  0  0  0  0  0  0  0  # atno 4227 bound_to 4194
   -3.7427  -11.2405  -15.1057 H   0  0  0  0  0  0  0  0  0  0  0  0  # atno 4228 bound_to 4194
   -2.4207  -11.8560  -15.8936 H   0  0  0  0  0  0  0  0  0  0  0  0  # atno 4229 bound_to 4194
   -2.0450   -8.5772  -15.0111 H   0  0  0  0  0  0  0  0  0  0  0  0  # atno 5354 bound_to 5333
   -9.0662  -11.5128   -9.9084 H   0  0  0  0  0  0  0  0  0  0  0  0  # atno 5430 bound_to 5408
    4.5524   -0.3603  -13.3500 H   0  0  0  0  0  0  0  0  0  0  0  0  # atno 5797 bound_to 5776
  -17.0793   -7.1578   -1.0014 H   0  0  0  0  0  0  0  0  0  0  0  0  # atno 6231 bound_to 6210
  -18.9852   -8.5204   -2.1076 H   0  0  0  0  0  0  0  0  0  0  0  0  # atno 6433 bound_to 6412
    5.1341   -0.5072  -30.7927 H   0  0  0  0  0  0  0  0  0  0  0  0  # atno 6635 bound_to 6620
    3.6436    1.3578  -28.6829 H   0  0  0  0  0  0  0  0  0  0  0  0  # atno 6661 bound_to 6649
   -0.2169    0.4925  -27.8357 H   0  0  0  0  0  0  0  0  0  0  0  0  # atno 6691 bound_to 6674
   -3.0335    2.6164  -28.4332 H   0  0  0  0  0  0  0  0  0  0  0  0  # atno 6727 bound_to 6709
   -6.9165   -2.3640  -16.9020 H   0  0  0  0  0  0  0  0  0  0  0  0  # atno 6843 bound_to 6822
  -26.0835   -7.9028    4.8712 H   0  0  0  0  0  0  0  0  0  0  0  0  # atno 7222 bound_to 7206
  -23.5458  -14.0317  -12.6209 LP  0  0  0  0  0  0  0  0  0  0  0  0  # atno 8535 bound_to 1347
  -24.9589  -15.0327  -12.5869 LP  0  0  0  0  0  0  0  0  0  0  0  0  # atno 8536 bound_to 1347
  -19.2850   -9.9075   -1.3107 LP  0  0  0  0  0  0  0  0  0  0  0  0  # atno 8539 bound_to 6412
  -20.4002   -9.2924   -2.3328 LP  0  0  0  0  0  0  0  0  0  0  0  0  # atno 8540 bound_to 6412
  -24.0950  -16.8246  -13.5768 LP  0  0  0  0  0  0  0  0  0  0  0  0  # atno 8545 bound_to 1375
  -24.4453  -14.6964  -15.8031 LP  0  0  0  0  0  0  0  0  0  0  0  0  # atno 8546 bound_to 1411
  -17.0956   -7.6366   -2.5566 LP  0  0  0  0  0  0  0  0  0  0  0  0  # atno 8553 bound_to 6210
  -16.6351   -6.1179   -2.1718 LP  0  0  0  0  0  0  0  0  0  0  0  0  # atno 8554 bound_to 6210
  -25.7620   -6.7315    3.7885 LP  0  0  0  0  0  0  0  0  0  0  0  0  # atno 8565 bound_to 7206
  -24.5945   -7.7863    4.2255 LP  0  0  0  0  0  0  0  0  0  0  0  0  # atno 8566 bound_to 7206
  -22.7879  -18.5502  -12.3419 LP  0  0  0  0  0  0  0  0  0  0  0  0  # atno 8581 bound_to 1344
  -12.2912  -15.6539  -16.0575 LP  0  0  0  0  0  0  0  0  0  0  0  0  # atno 8582 bound_to 539 
  -12.2065  -17.3836  -16.0281 LP  0  0  0  0  0  0  0  0  0  0  0  0  # atno 8583 bound_to 539 
   -8.0596  -12.3646   -8.9539 LP  0  0  0  0  0  0  0  0  0  0  0  0  # atno 8584 bound_to 5408
   -7.8953  -12.4244  -10.5775 LP  0  0  0  0  0  0  0  0  0  0  0  0  # atno 8585 bound_to 5408
  -19.5040  -19.7897  -16.8877 LP  0  0  0  0  0  0  0  0  0  0  0  0  # atno 8586 bound_to 1252
  -19.2656  -19.3286  -15.2353 LP  0  0  0  0  0  0  0  0  0  0  0  0  # atno 8587 bound_to 1252
  -26.3973  -15.0738  -15.6908 LP  0  0  0  0  0  0  0  0  0  0  0  0  # atno 8588 bound_to 1378
  -25.6742  -15.6346  -14.2203 LP  0  0  0  0  0  0  0  0  0  0  0  0  # atno 8589 bound_to 1378
  -14.3317  -16.5870  -18.6490 LP  0  0  0  0  0  0  0  0  0  0  0  0  # atno 8592 bound_to 562 
  -24.4064  -19.8924  -13.4650 LP  0  0  0  0  0  0  0  0  0  0  0  0  # atno 8593 bound_to 1279
  -24.1739  -19.5066  -15.1374 LP  0  0  0  0  0  0  0  0  0  0  0  0  # atno 8594 bound_to 1279
  -21.0265  -20.3969  -13.4024 LP  0  0  0  0  0  0  0  0  0  0  0  0  # atno 8595 bound_to 1306
  -24.6208  -17.9745  -11.6527 LP  0  0  0  0  0  0  0  0  0  0  0  0  # atno 8596 bound_to 1309
  -24.4295  -19.2113  -10.4553 LP  0  0  0  0  0  0  0  0  0  0  0  0  # atno 8597 bound_to 1309
  -15.6236  -21.0207  -16.8112 LP  0  0  0  0  0  0  0  0  0  0  0  0  # atno 8602 bound_to 565 
  -16.5919  -20.2024  -17.9914 LP  0  0  0  0  0  0  0  0  0  0  0  0  # atno 8603 bound_to 565 
  -14.1966  -19.8789  -17.6560 LP  0  0  0  0  0  0  0  0  0  0  0  0  # atno 8604 bound_to 597 
  -10.2320  -19.0890  -18.6820 LP  0  0  0  0  0  0  0  0  0  0  0  0  # atno 8625 bound_to 524 
  -10.3370  -17.5111  -17.9754 LP  0  0  0  0  0  0  0  0  0  0  0  0  # atno 8626 bound_to 524 
  -12.4140  -17.0951  -20.4521 LP  0  0  0  0  0  0  0  0  0  0  0  0  # atno 8627 bound_to 536 
  -17.3760  -23.0814  -17.0359 LP  0  0  0  0  0  0  0  0  0  0  0  0  # atno 8630 bound_to 1249
  -24.1568  -10.9140  -18.9913 LP  0  0  0  0  0  0  0  0  0  0  0  0  # atno 8631 bound_to 1416
  -24.3080  -12.5351  -18.8653 LP  0  0  0  0  0  0  0  0  0  0  0  0  # atno 8632 bound_to 1416
  -24.6817  -14.7718  -18.1990 LP  0  0  0  0  0  0  0  0  0  0  0  0  # atno 8635 bound_to 1414
  -26.1175  -14.8078  -19.1670 LP  0  0  0  0  0  0  0  0  0  0  0  0  # atno 8636 bound_to 1414
  -24.2479  -12.2151  -21.3574 LP  0  0  0  0  0  0  0  0  0  0  0  0  # atno 8637 bound_to 1492
  -23.8963  -16.9218  -22.9007 LP  0  0  0  0  0  0  0  0  0  0  0  0  # atno 8638 bound_to 1495
  -22.3950  -16.2976  -22.3037 LP  0  0  0  0  0  0  0  0  0  0  0  0  # atno 8639 bound_to 1495
  -25.6427  -15.0216  -20.6321 LP  0  0  0  0  0  0  0  0  0  0  0  0  # atno 8640 bound_to 1518
  -10.0411  -20.4763  -21.1292 LP  0  0  0  0  0  0  0  0  0  0  0  0  # atno 8641 bound_to 521 
  -11.4063  -20.5164  -18.2480 LP  0  0  0  0  0  0  0  0  0  0  0  0  # atno 8642 bound_to 600 
  -10.4900  -21.3539  -19.4559 LP  0  0  0  0  0  0  0  0  0  0  0  0  # atno 8643 bound_to 600 
   -3.1054   -9.5808  -15.7305 LP  0  0  0  0  0  0  0  0  0  0  0  0  # atno 8648 bound_to 5333
   -2.4985   -9.9479  -14.2596 LP  0  0  0  0  0  0  0  0  0  0  0  0  # atno 8649 bound_to 5333
   -8.7216  -19.7992  -23.5204 LP  0  0  0  0  0  0  0  0  0  0  0  0  # atno 8650 bound_to 485 
   -7.6155  -18.7763  -22.6658 LP  0  0  0  0  0  0  0  0  0  0  0  0  # atno 8651 bound_to 485 
   -6.8422  -21.4307  -22.8753 LP  0  0  0  0  0  0  0  0  0  0  0  0  # atno 8652 bound_to 482 
   -7.1691  -24.0062  -20.2934 LP  0  0  0  0  0  0  0  0  0  0  0  0  # atno 8661 bound_to 466 
   -8.3143  -24.5626  -21.4678 LP  0  0  0  0  0  0  0  0  0  0  0  0  # atno 8662 bound_to 466 
  -12.6210  -20.9902  -21.7770 LP  0  0  0  0  0  0  0  0  0  0  0  0  # atno 8663 bound_to 602 
  -13.0289  -19.6564  -20.9276 LP  0  0  0  0  0  0  0  0  0  0  0  0  # atno 8664 bound_to 602 
  -12.7680  -23.1038  -18.7234 LP  0  0  0  0  0  0  0  0  0  0  0  0  # atno 8665 bound_to 620 
  -11.0877  -24.8948  -21.2502 LP  0  0  0  0  0  0  0  0  0  0  0  0  # atno 8672 bound_to 652 
   -5.7550   -1.2923  -17.2899 LP  0  0  0  0  0  0  0  0  0  0  0  0  # atno 8689 bound_to 6822
   -7.0618   -1.4687  -18.2531 LP  0  0  0  0  0  0  0  0  0  0  0  0  # atno 8690 bound_to 6822
    3.1348   -0.6181  -26.3939 LP  0  0  0  0  0  0  0  0  0  0  0  0  # atno 8712 bound_to 6623
    1.5783   -0.6007  -27.1535 LP  0  0  0  0  0  0  0  0  0  0  0  0  # atno 8713 bound_to 6623
    6.0546   -0.6922  -12.8207 LP  0  0  0  0  0  0  0  0  0  0  0  0  # atno 8722 bound_to 5776
    5.7613    0.6885  -13.6419 LP  0  0  0  0  0  0  0  0  0  0  0  0  # atno 8723 bound_to 5776
    2.5190    0.2009  -29.3770 LP  0  0  0  0  0  0  0  0  0  0  0  0  # atno 8724 bound_to 6649
   -0.3029    1.9357  -28.8263 LP  0  0  0  0  0  0  0  0  0  0  0  0  # atno 8725 bound_to 6674
   -1.9867    2.3455  -29.8102 LP  0  0  0  0  0  0  0  0  0  0  0  0  # atno 8728 bound_to 6709
    1.8326   -1.3798  -29.7967 LP  0  0  0  0  0  0  0  0  0  0  0  0  # atno 8729 bound_to 6598
    1.6453   -2.1098  -31.3562 LP  0  0  0  0  0  0  0  0  0  0  0  0  # atno 8730 bound_to 6598
    3.3857   -0.6680  -30.8329 LP  0  0  0  0  0  0  0  0  0  0  0  0  # atno 8731 bound_to 6620
    0.7533    2.3871  -30.9582 LP  0  0  0  0  0  0  0  0  0  0  0  0  # atno 8732 bound_to 6652
   -0.0321    0.8462  -31.0522 LP  0  0  0  0  0  0  0  0  0  0  0  0  # atno 8733 bound_to 6652

> <Gold.Score>
     Fitness  S(hb_ext) S(vdw_ext)  S(hb_int)    S(int)      intcor
     30.99       6.65      17.71       0.00      -0.01      -0.76

> <Gold.Goldscore.Fitness>
30.9893

> <Gold.Goldscore.Internal.Vdw>
-0.3593

> <Gold.Goldscore.Internal.Torsion>
-0.4045

> <Gold.Goldscore.External.Vdw>
17.7059

> <Gold.Goldscore.Internal.HBond>
0.0000

> <Gold.Goldscore.External.HBond>
6.6490

> <Gold.Goldscore.Internal.Correction>
-0.7585

> <Gold.Goldscore.Hbonds>
donor molecule, donor type, donor heavy atom, donor atom, acceptor molecule, acceptor atom, score
      P1  H   536   546       L1    11  0.37
      P1  H  4194  4227       L1     9  0.99

> <Gold.Goldscore.Internal.Vdw.Weighted>
-0.3593

> <Gold.Goldscore.Internal.Torsion.Weighted>
-0.4045

> <Gold.Goldscore.External.Vdw.Weighted>
24.3456

> <Gold.Goldscore.Internal.HBond.Weighted>
0.0000

> <Gold.Goldscore.External.HBond.Weighted>
6.6490

> <Gold.Goldscore.Internal.Correction.Weighted>
-0.7585

> <Gold.Rescore>
     Score     S(PLP)   S(hbond)     S(cho)   S(metal)  DE(clash)   DE(tors)     intcor
     29.84     -29.88       0.00       0.00       0.00       0.00       0.02       ----

> <Gold.PLP.Fitness>
29.8411

> <Gold.PLP.PLP>
-29.8810

> <Gold.PLP.part.hbond>
0.0000

> <Gold.PLP.part.metal>
0.0000

> <Gold.PLP.part.buried>
-5.6096

> <Gold.PLP.part.nonpolar>
-24.9060

> <Gold.PLP.part.repulsive>
0.2212

> <Gold.PLP.ligand.clash>
0.0000

> <Gold.PLP.ligand.torsion>
0.0199

> <Gold.PLP.Chemscore.Hbond>
0.0000

> <Gold.PLP.Chemscore.CHOScore>
0.0000

> <Gold.PLP.Chemscore.Metal>
0.0000

> <Gold.Chemscore.Hbonds>
donor molecule, donor type, donor heavy atom, donor atom, acceptor molecule, acceptor atom, score
      P1  H   536   546       L1    11  0.28
      P1  H  4194  4227       L1     9  0.24

> <Gold.PLP.Chemscore.Internal.Correction>
   9.000000E+99

