#       Name:                CT1002167954
#       Creating user name   hitesit
#       Creation time:       Sun Apr 16 02:23:30 2023


#       File generated by GOLD software.
#

@<TRIPOS>MOLECULE
CT1002167954|ligand_prepared|mol2|1|dock10
    29    30     1
SMALL
NO_CHARGES


@<TRIPOS>ATOM
      1 C1           1.6726 -21.3370 -16.0841 C.3            1 RES1               0.0000
      2 C2           1.9695 -20.2212 -17.1067 C.ar           1 RES1               0.0000
      3 C3           0.9569 -20.6670 -14.9148 C.2            1 RES1               0.0000
      4 C4           0.8298 -22.3745 -16.8174 C.2            1 RES1               0.0000
      5 C5           2.9383 -22.0437 -15.5454 C.3            1 RES1               0.0000
      6 C6           1.0010 -19.8248 -18.0241 C.ar           1 RES1               0.0000
      7 C7           3.2041 -19.5785 -17.1431 C.ar           1 RES1               0.0000
      8 N8          -0.3831 -20.8854 -14.7854 N.am           1 RES1               0.0000
      9 O9           1.5515 -19.9267 -14.1411 O.2            1 RES1               0.0000
     10 N10         -0.4632 -22.5605 -16.4033 N.am           1 RES1               0.0000
     11 O11          1.2685 -23.0209 -17.7608 O.2            1 RES1               0.0000
     12 C12          2.6464 -23.3255 -14.7812 C.3            1 RES1               0.0000
     13 C13          1.2563 -18.8201 -18.9426 C.ar           1 RES1               0.0000
     14 C14          3.4574 -18.5742 -18.0627 C.ar           1 RES1               0.0000
     15 C15         -1.1173 -21.8411 -15.4405 C.2            1 RES1               0.0000
     16 C16          2.4844 -18.1939 -18.9623 C.ar           1 RES1               0.0000
     17 O17         -2.2977 -22.0306 -15.1615 O.2            1 RES1               0.0000
     18 H18          3.5980 -22.2785 -16.3898 H              1 RES1               0.0000
     19 H19          3.4741 -21.3523 -14.8834 H              1 RES1               0.0000
     20 H20          0.0296 -20.3078 -18.0252 H              1 RES1               0.0000
     21 H21          3.9850 -19.8619 -16.4456 H              1 RES1               0.0000
     22 H22         -0.8857 -20.2822 -14.1422 H              1 RES1               0.0000
     23 H23         -0.9864 -23.3041 -16.8544 H              1 RES1               0.0000
     24 H24          3.5682 -23.7809 -14.4254 H              1 RES1               0.0000
     25 H25          2.0128 -23.1253 -13.9197 H              1 RES1               0.0000
     26 H26          2.1360 -24.0460 -15.4171 H              1 RES1               0.0000
     27 H27          0.4876 -18.5255 -19.6494 H              1 RES1               0.0000
     28 H28          4.4255 -18.0845 -18.0750 H              1 RES1               0.0000
     29 H29          2.6840 -17.4066 -19.6818 H              1 RES1               0.0000
@<TRIPOS>BOND
    1    1    2 1     
    2    1    3 1     
    3    1    4 1     
    4    1    5 1     
    5    2    6 ar    
    6    2    7 ar    
    7    3    8 1     
    8    3    9 2     
    9    4   10 1     
   10    4   11 2     
   11    5   12 1     
   12    5   18 1     
   13    5   19 1     
   14    6   13 ar    
   15    6   20 1     
   16    7   14 ar    
   17    7   21 1     
   18    8   15 1     
   19    8   22 1     
   20   10   15 1     
   21   10   23 1     
   22   12   24 1     
   23   12   25 1     
   24   12   26 1     
   25   13   16 ar    
   26   13   27 1     
   27   14   16 ar    
   28   14   28 1     
   29   15   17 2     
   30   16   29 1     
@<TRIPOS>SUBSTRUCTURE
      1 RES1           1
@<TRIPOS>SET
DONOR_HYDROGENS      STATIC     ATOMS    <user>   **** ""
2 22 23
ATOM$RED        STATIC     ATOMS    COLORGROUP SYSTEM
2 22 23
@<TRIPOS>COMMENT
> <Gold.Version>
2022.3.0

> <Gold.Id.Protein>
unknown|7kl0_clean|pdb

> <Gold.Protein.RotatedTorsions>
[ 6433 6412 6411 6409 ] final  -69.30 input   60.01 | X-H torsion
[ 1391 1375 1376 1377 ] final  -94.03 input  130.72 | X-H torsion
[ 1421 1411 1412 1413 ] final -167.99 input  114.05 | X-H torsion
[ 6231 6210 6209 6207 ] final   30.70 input   60.00 | X-H torsion
[ 7222 7206 7205 7202 ] final -101.66 input   60.00 | X-H torsion
[ 1362 1344 1345 1346 ] final  -17.44 input   95.07 | X-H torsion
[ 5430 5408 5407 5405 ] final   49.22 input   60.00 | X-H torsion
[  580  562  563  564 ] final -130.88 input   55.02 | X-H torsion
[ 1326 1306 1307 1308 ] final -123.85 input  117.83 | X-H torsion
[  608  597  598  599 ] final   22.02 input   37.41 | X-H torsion
[  546  536  537  538 ] final   91.80 input  119.99 | X-H torsion
[ 4227 4194 4193 4192 ] final   -3.25 input   60.00 | X-H torsion
[ 1262 1249 1250 1251 ] final   93.90 input  103.51 | X-H torsion
[ 1425 1416 1415 1412 ] final   48.96 input   60.01 | X-H torsion
[ 1504 1492 1493 1494 ] final  -97.85 input  118.60 | X-H torsion
[ 1535 1518 1519 1520 ] final  103.72 input  116.53 | X-H torsion
[  528  521  522  523 ] final -119.13 input   38.54 | X-H torsion
[ 5354 5333 5331 5328 ] final -174.79 input   59.99 | X-H torsion
[  504  482  483  484 ] final -143.69 input   40.33 | X-H torsion
[  612  602  601  598 ] final -112.91 input   59.99 | X-H torsion
[  636  620  621  622 ] final   48.94 input   33.60 | X-H torsion
[  668  652  653  654 ] final  -58.99 input   67.24 | X-H torsion
[ 6843 6822 6821 6819 ] final  124.92 input   59.97 | X-H torsion
[ 1596 1580 1579 1578 ] final  110.37 input   59.99 | X-H torsion
[ 5797 5776 5775 5773 ] final  124.64 input   60.02 | X-H torsion
[ 6661 6649 6650 6651 ] final  -75.63 input   84.69 | X-H torsion
[ 6691 6674 6675 6676 ] final -137.10 input  117.08 | X-H torsion
[ 6727 6709 6710 6711 ] final  -71.31 input  123.04 | X-H torsion
[ 6635 6620 6621 6622 ] final  -73.56 input  122.94 | X-H torsion
[ 1613 1589 1588 1587 ] final -161.37 input   59.99 | X-H torsion
[ 4214 4203 4202 4201 ] final  166.82 input   60.00 | X-H torsion
[ 8535 1347 1346 1345 ] final -156.29 input   -0.00 | X-H torsion
[ 8582  539  538  537 ] final  140.30 input    0.00 | X-H torsion
[ 8586 1252 1251 1250 ] final  -72.22 input    0.00 | X-H torsion
[ 8588 1378 1377 1376 ] final  165.61 input   -0.00 | X-H torsion
[ 8593 1279 1278 1277 ] final  -63.82 input    0.00 | X-H torsion
[ 8596 1309 1308 1307 ] final  -35.71 input    0.00 | X-H torsion
[ 8602  565  564  563 ] final   48.68 input    0.00 | X-H torsion
[ 8625  524  523  522 ] final -173.50 input    0.00 | X-H torsion
[ 8635 1414 1413 1412 ] final  -31.64 input    0.00 | X-H torsion
[ 8638 1495 1494 1493 ] final   51.36 input    0.00 | X-H torsion
[ 8642  600  599  598 ] final  162.51 input    0.00 | X-H torsion
[ 8650  485  484  483 ] final  -23.16 input    0.00 | X-H torsion
[ 8661  466  465  464 ] final  135.63 input   -0.00 | X-H torsion
[ 8712 6623 6622 6621 ] final  168.14 input    0.00 | X-H torsion
[ 8729 6598 6597 6596 ] final  -44.88 input   -0.00 | X-H torsion
[ 8732 6652 6651 6650 ] final -121.66 input   -0.00 | X-H torsion

> <Gold.Protein.ActiveResidues>
 GLU18   GLY20   LYS21   GLY22   ALA23   PHE24   SER25   VAL26   VAL27   ARG28  
 ILE44   ASN45   THR46   LYS47   LYS48   LEU49   SER50   ARG52   ASP53   HIS54  
 LYS56   ARG59   GLY95   GLU96   LEU97   PHE98   GLU99   ASP100  ILE101  VAL102 
 ALA103  GLU105  TYR106  HIS133  ARG134  ASN135  LEU136  LYS137  PRO138  GLU139 
 ASN140  LEU142  ASP156  GLY158  LEU159  ILE161  TRP170  PHE171  GLY172  PHE173 
 ALA174  GLY175  THR176  PRO177  GLY178  TYR179  LEU180  VAL184  LEU185  LYS187 
 TYR190  VAL201  ILE202  TYR204  ILE205  LEU206  VAL208  GLY209  TYR210  PRO211 
 PRO212  PHE213  TRP214  ASP215  GLU216  ASP217  GLN218  HIS219  LEU221  TYR222 
 GLN224  ILE225  ALA229  TYR230  ASP231  PHE232  PRO233  SER234  PRO235  GLU236 
 TRP237 

> <Gold.Protein.RotatedAtoms>
   -7.0887  -22.8844  -21.9223 H   0  0  0  0  0  0  0  0  0  0  0  0  # atno 504  bound_to 482 
   -8.7947  -19.5798  -21.2559 H   0  0  0  0  0  0  0  0  0  0  0  0  # atno 528  bound_to 521 
  -12.3816  -16.6857  -20.6831 H   0  0  0  0  0  0  0  0  0  0  0  0  # atno 546  bound_to 536 
  -13.1838  -16.7322  -17.6528 H   0  0  0  0  0  0  0  0  0  0  0  0  # atno 580  bound_to 562 
  -12.8825  -19.4630  -18.4568 H   0  0  0  0  0  0  0  0  0  0  0  0  # atno 608  bound_to 597 
  -13.8476  -19.5887  -21.7223 H   0  0  0  0  0  0  0  0  0  0  0  0  # atno 612  bound_to 602 
  -13.1504  -23.6628  -19.5677 H   0  0  0  0  0  0  0  0  0  0  0  0  # atno 636  bound_to 620 
  -10.5405  -25.5139  -20.6749 H   0  0  0  0  0  0  0  0  0  0  0  0  # atno 668  bound_to 652 
  -17.0809  -21.6155  -17.0117 H   0  0  0  0  0  0  0  0  0  0  0  0  # atno 1262 bound_to 1249
  -22.4054  -21.3471  -13.7080 H   0  0  0  0  0  0  0  0  0  0  0  0  # atno 1326 bound_to 1306
  -22.6480  -18.4476  -12.6614 H   0  0  0  0  0  0  0  0  0  0  0  0  # atno 1362 bound_to 1344
  -22.6331  -16.1758  -13.4226 H   0  0  0  0  0  0  0  0  0  0  0  0  # atno 1391 bound_to 1375
  -23.6307  -13.6262  -15.3940 H   0  0  0  0  0  0  0  0  0  0  0  0  # atno 1421 bound_to 1411
  -24.5996  -12.1326  -19.0432 H   0  0  0  0  0  0  0  0  0  0  0  0  # atno 1425 bound_to 1416
  -24.5805  -12.5569  -21.8658 H   0  0  0  0  0  0  0  0  0  0  0  0  # atno 1504 bound_to 1492
  -25.6669  -15.0899  -20.5135 H   0  0  0  0  0  0  0  0  0  0  0  0  # atno 1535 bound_to 1518
    8.0467   -6.2580  -22.9157 H   0  0  0  0  0  0  0  0  0  0  0  0  # atno 1596 bound_to 1580
    7.7922   -5.4436  -21.4946 H   0  0  0  0  0  0  0  0  0  0  0  0  # atno 1597 bound_to 1580
    8.9007   -4.8758  -22.5885 H   0  0  0  0  0  0  0  0  0  0  0  0  # atno 1598 bound_to 1580
  -18.1532  -11.6587  -26.0291 H   0  0  0  0  0  0  0  0  0  0  0  0  # atno 1613 bound_to 1589
  -19.2036  -10.8616  -25.0242 H   0  0  0  0  0  0  0  0  0  0  0  0  # atno 1614 bound_to 1589
  -18.5182  -12.2919  -24.5415 H   0  0  0  0  0  0  0  0  0  0  0  0  # atno 1615 bound_to 1589
   -6.9097  -13.9367  -29.6021 H   0  0  0  0  0  0  0  0  0  0  0  0  # atno 4214 bound_to 4203
   -5.3125  -13.7227  -29.9914 H   0  0  0  0  0  0  0  0  0  0  0  0  # atno 4215 bound_to 4203
   -6.4528  -12.6573  -30.5512 H   0  0  0  0  0  0  0  0  0  0  0  0  # atno 4216 bound_to 4203
   -4.0328  -11.5288  -15.1061 H   0  0  0  0  0  0  0  0  0  0  0  0  # atno 4227 bound_to 4194
   -2.4919  -11.4945  -15.7160 H   0  0  0  0  0  0  0  0  0  0  0  0  # atno 4228 bound_to 4194
   -3.4253  -12.8522  -15.8972 H   0  0  0  0  0  0  0  0  0  0  0  0  # atno 4229 bound_to 4194
   -2.8846  -10.1761  -14.6697 H   0  0  0  0  0  0  0  0  0  0  0  0  # atno 5354 bound_to 5333
   -8.8535  -11.7177   -9.1277 H   0  0  0  0  0  0  0  0  0  0  0  0  # atno 5430 bound_to 5408
    4.5813    0.0458  -13.5646 H   0  0  0  0  0  0  0  0  0  0  0  0  # atno 5797 bound_to 5776
  -17.2096   -7.8540   -2.0599 H   0  0  0  0  0  0  0  0  0  0  0  0  # atno 6231 bound_to 6210
  -18.7046   -9.1188   -1.5449 H   0  0  0  0  0  0  0  0  0  0  0  0  # atno 6433 bound_to 6412
    3.5351   -1.1541  -30.8371 H   0  0  0  0  0  0  0  0  0  0  0  0  # atno 6635 bound_to 6620
    2.7015    0.1241  -28.5184 H   0  0  0  0  0  0  0  0  0  0  0  0  # atno 6661 bound_to 6649
    0.1517    0.4782  -28.5985 H   0  0  0  0  0  0  0  0  0  0  0  0  # atno 6691 bound_to 6674
   -2.8851    1.9284  -29.7185 H   0  0  0  0  0  0  0  0  0  0  0  0  # atno 6727 bound_to 6709
   -7.1529   -1.5632  -18.2050 H   0  0  0  0  0  0  0  0  0  0  0  0  # atno 6843 bound_to 6822
  -25.5663   -8.1790    4.9070 H   0  0  0  0  0  0  0  0  0  0  0  0  # atno 7222 bound_to 7206
  -24.7815  -14.7519  -13.2533 LP  0  0  0  0  0  0  0  0  0  0  0  0  # atno 8535 bound_to 1347
  -23.7232  -14.3125  -11.9545 LP  0  0  0  0  0  0  0  0  0  0  0  0  # atno 8536 bound_to 1347
  -20.0736   -9.9889   -1.6780 LP  0  0  0  0  0  0  0  0  0  0  0  0  # atno 8539 bound_to 6412
  -19.8940   -8.6086   -2.5319 LP  0  0  0  0  0  0  0  0  0  0  0  0  # atno 8540 bound_to 6412
  -23.8214  -17.3975  -13.8497 LP  0  0  0  0  0  0  0  0  0  0  0  0  # atno 8545 bound_to 1375
  -24.0246  -14.6818  -16.7379 LP  0  0  0  0  0  0  0  0  0  0  0  0  # atno 8546 bound_to 1411
  -16.6920   -6.4217   -2.6337 LP  0  0  0  0  0  0  0  0  0  0  0  0  # atno 8553 bound_to 6210
  -16.9074   -6.6318   -1.0287 LP  0  0  0  0  0  0  0  0  0  0  0  0  # atno 8554 bound_to 6210
  -26.2201   -6.9182    4.1130 LP  0  0  0  0  0  0  0  0  0  0  0  0  # atno 8565 bound_to 7206
  -24.6572   -7.3214    3.8650 LP  0  0  0  0  0  0  0  0  0  0  0  0  # atno 8566 bound_to 7206
  -21.3446  -18.3615  -11.4963 LP  0  0  0  0  0  0  0  0  0  0  0  0  # atno 8581 bound_to 1344
  -13.0638  -16.5104  -15.7499 LP  0  0  0  0  0  0  0  0  0  0  0  0  # atno 8582 bound_to 539 
  -11.4339  -16.5271  -16.3357 LP  0  0  0  0  0  0  0  0  0  0  0  0  # atno 8583 bound_to 539 
   -7.6298  -12.6803   -9.6028 LP  0  0  0  0  0  0  0  0  0  0  0  0  # atno 8584 bound_to 5408
   -8.5390  -11.9026  -10.7142 LP  0  0  0  0  0  0  0  0  0  0  0  0  # atno 8585 bound_to 5408
  -19.0454  -19.3820  -15.2847 LP  0  0  0  0  0  0  0  0  0  0  0  0  # atno 8586 bound_to 1252
  -19.7242  -19.7363  -16.8383 LP  0  0  0  0  0  0  0  0  0  0  0  0  # atno 8587 bound_to 1252
  -26.2666  -14.5215  -15.0128 LP  0  0  0  0  0  0  0  0  0  0  0  0  # atno 8588 bound_to 1378
  -25.8049  -16.1869  -14.8983 LP  0  0  0  0  0  0  0  0  0  0  0  0  # atno 8589 bound_to 1378
  -14.0648  -17.2664  -19.0748 LP  0  0  0  0  0  0  0  0  0  0  0  0  # atno 8592 bound_to 562 
  -23.9640  -19.0644  -14.7913 LP  0  0  0  0  0  0  0  0  0  0  0  0  # atno 8593 bound_to 1279
  -24.6163  -20.3347  -13.8111 LP  0  0  0  0  0  0  0  0  0  0  0  0  # atno 8594 bound_to 1279
  -21.2261  -20.0614  -13.5328 LP  0  0  0  0  0  0  0  0  0  0  0  0  # atno 8595 bound_to 1306
  -24.8121  -19.2896  -11.4809 LP  0  0  0  0  0  0  0  0  0  0  0  0  # atno 8596 bound_to 1309
  -24.2382  -17.8963  -10.6271 LP  0  0  0  0  0  0  0  0  0  0  0  0  # atno 8597 bound_to 1309
  -16.6559  -19.9700  -17.5959 LP  0  0  0  0  0  0  0  0  0  0  0  0  # atno 8602 bound_to 565 
  -15.5596  -21.2531  -17.2066 LP  0  0  0  0  0  0  0  0  0  0  0  0  # atno 8603 bound_to 565 
  -14.6046  -19.6179  -18.1781 LP  0  0  0  0  0  0  0  0  0  0  0  0  # atno 8604 bound_to 597 
  -10.7772  -17.7426  -17.8854 LP  0  0  0  0  0  0  0  0  0  0  0  0  # atno 8625 bound_to 524 
   -9.7918  -18.8575  -18.7720 LP  0  0  0  0  0  0  0  0  0  0  0  0  # atno 8626 bound_to 524 
  -10.8553  -17.0999  -19.9188 LP  0  0  0  0  0  0  0  0  0  0  0  0  # atno 8627 bound_to 536 
  -18.1705  -22.9252  -17.4165 LP  0  0  0  0  0  0  0  0  0  0  0  0  # atno 8630 bound_to 1249
  -23.1310  -12.2954  -18.3619 LP  0  0  0  0  0  0  0  0  0  0  0  0  # atno 8631 bound_to 1416
  -23.6779  -10.8165  -18.7864 LP  0  0  0  0  0  0  0  0  0  0  0  0  # atno 8632 bound_to 1416
  -24.6121  -14.4358  -18.6161 LP  0  0  0  0  0  0  0  0  0  0  0  0  # atno 8635 bound_to 1414
  -26.1871  -15.1438  -18.7499 LP  0  0  0  0  0  0  0  0  0  0  0  0  # atno 8636 bound_to 1414
  -24.9305  -13.0551  -20.2190 LP  0  0  0  0  0  0  0  0  0  0  0  0  # atno 8637 bound_to 1492
  -22.4428  -16.5352  -22.1018 LP  0  0  0  0  0  0  0  0  0  0  0  0  # atno 8638 bound_to 1495
  -23.8486  -16.6842  -23.1026 LP  0  0  0  0  0  0  0  0  0  0  0  0  # atno 8639 bound_to 1495
  -24.2462  -15.7493  -21.3007 LP  0  0  0  0  0  0  0  0  0  0  0  0  # atno 8640 bound_to 1518
  -10.0848  -20.3246  -20.3221 LP  0  0  0  0  0  0  0  0  0  0  0  0  # atno 8641 bound_to 521 
  -10.4835  -21.6501  -18.7004 LP  0  0  0  0  0  0  0  0  0  0  0  0  # atno 8642 bound_to 600 
  -11.4128  -20.2202  -19.0034 LP  0  0  0  0  0  0  0  0  0  0  0  0  # atno 8643 bound_to 600 
   -1.9318   -8.8688  -14.4901 LP  0  0  0  0  0  0  0  0  0  0  0  0  # atno 8648 bound_to 5333
   -2.8269   -9.0503  -15.8438 LP  0  0  0  0  0  0  0  0  0  0  0  0  # atno 8649 bound_to 5333
   -7.3587  -19.5511  -22.9354 LP  0  0  0  0  0  0  0  0  0  0  0  0  # atno 8650 bound_to 485 
   -8.9783  -19.0244  -23.2508 LP  0  0  0  0  0  0  0  0  0  0  0  0  # atno 8651 bound_to 485 
   -6.8395  -21.4303  -22.8740 LP  0  0  0  0  0  0  0  0  0  0  0  0  # atno 8652 bound_to 482 
   -7.4872  -23.7518  -20.2469 LP  0  0  0  0  0  0  0  0  0  0  0  0  # atno 8661 bound_to 466 
   -7.9962  -24.8170  -21.5143 LP  0  0  0  0  0  0  0  0  0  0  0  0  # atno 8662 bound_to 466 
  -13.1389  -20.9438  -22.2789 LP  0  0  0  0  0  0  0  0  0  0  0  0  # atno 8663 bound_to 602 
  -12.5535  -20.2004  -20.9480 LP  0  0  0  0  0  0  0  0  0  0  0  0  # atno 8664 bound_to 602 
  -12.2266  -22.1686  -19.5251 LP  0  0  0  0  0  0  0  0  0  0  0  0  # atno 8665 bound_to 620 
   -9.9310  -24.4138  -21.8931 LP  0  0  0  0  0  0  0  0  0  0  0  0  # atno 8672 bound_to 652 
   -6.8023   -2.3477  -16.8230 LP  0  0  0  0  0  0  0  0  0  0  0  0  # atno 8689 bound_to 6822
   -5.7764   -1.2199  -17.4078 LP  0  0  0  0  0  0  0  0  0  0  0  0  # atno 8690 bound_to 6822
    1.9149    0.1320  -26.7015 LP  0  0  0  0  0  0  0  0  0  0  0  0  # atno 8712 bound_to 6623
    2.7983   -1.3508  -26.8458 LP  0  0  0  0  0  0  0  0  0  0  0  0  # atno 8713 bound_to 6623
    5.6474   -0.9127  -12.7955 LP  0  0  0  0  0  0  0  0  0  0  0  0  # atno 8722 bound_to 5776
    6.1394    0.4998  -13.4507 LP  0  0  0  0  0  0  0  0  0  0  0  0  # atno 8723 bound_to 5776
    3.4115    1.3697  -29.5329 LP  0  0  0  0  0  0  0  0  0  0  0  0  # atno 8724 bound_to 6649
   -0.6565    1.9494  -28.0944 LP  0  0  0  0  0  0  0  0  0  0  0  0  # atno 8725 bound_to 6674
   -2.1301    3.0106  -28.5678 LP  0  0  0  0  0  0  0  0  0  0  0  0  # atno 8728 bound_to 6709
    1.2756   -1.1793  -31.0406 LP  0  0  0  0  0  0  0  0  0  0  0  0  # atno 8729 bound_to 6598
    2.2024   -2.3103  -30.1123 LP  0  0  0  0  0  0  0  0  0  0  0  0  # atno 8730 bound_to 6598
    4.9032   -0.0540  -30.7908 LP  0  0  0  0  0  0  0  0  0  0  0  0  # atno 8731 bound_to 6620
   -0.3285    2.1407  -30.9839 LP  0  0  0  0  0  0  0  0  0  0  0  0  # atno 8732 bound_to 6652
    1.0497    1.0926  -31.0265 LP  0  0  0  0  0  0  0  0  0  0  0  0  # atno 8733 bound_to 6652

> <Gold.Score>
     Fitness  S(hb_ext) S(vdw_ext)  S(hb_int)    S(int)      intcor
     27.54       3.14      17.90       0.00      -0.21      -0.76

> <Gold.Goldscore.Fitness>
27.5383

> <Gold.Goldscore.Internal.Vdw>
-0.3635

> <Gold.Goldscore.Internal.Torsion>
-0.6090

> <Gold.Goldscore.External.Vdw>
17.9009

> <Gold.Goldscore.Internal.HBond>
0.0000

> <Gold.Goldscore.External.HBond>
3.1385

> <Gold.Goldscore.Internal.Correction>
-0.7585

> <Gold.Goldscore.Hbonds>
donor molecule, donor type, donor heavy atom, donor atom, acceptor molecule, acceptor atom, score
      P1  H   490   515       L1    17  0.37
      L1  H     8    22       P1  4261  0.46

> <Gold.Goldscore.Internal.Vdw.Weighted>
-0.3635

> <Gold.Goldscore.Internal.Torsion.Weighted>
-0.6090

> <Gold.Goldscore.External.Vdw.Weighted>
24.6138

> <Gold.Goldscore.Internal.HBond.Weighted>
0.0000

> <Gold.Goldscore.External.HBond.Weighted>
3.1385

> <Gold.Goldscore.Internal.Correction.Weighted>
-0.7585

> <Gold.Rescore>
     Score     S(PLP)   S(hbond)     S(cho)   S(metal)  DE(clash)   DE(tors)     intcor
     23.99     -21.80       0.90       0.00       0.00       0.00       0.26       ----

> <Gold.PLP.Fitness>
23.9938

> <Gold.PLP.PLP>
-21.7990

> <Gold.PLP.part.hbond>
-2.0000

> <Gold.PLP.part.metal>
0.0000

> <Gold.PLP.part.buried>
-3.7592

> <Gold.PLP.part.nonpolar>
-17.6540

> <Gold.PLP.part.repulsive>
0.4995

> <Gold.PLP.ligand.clash>
0.0000

> <Gold.PLP.ligand.torsion>
0.2586

> <Gold.PLP.Chemscore.Hbond>
0.9040

> <Gold.PLP.Chemscore.CHOScore>
0.0000

> <Gold.PLP.Chemscore.Metal>
0.0000

> <Gold.Chemscore.Hbonds>
donor molecule, donor type, donor heavy atom, donor atom, acceptor molecule, acceptor atom, score
      P1  H   490   515       L1    17  0.94

> <Gold.PLP.Chemscore.Internal.Correction>
   9.000000E+99

