#       Name:                CT1002167954
#       Creating user name   hitesit
#       Creation time:       Sun Apr 16 02:23:23 2023


#       File generated by GOLD software.
#

@<TRIPOS>MOLECULE
CT1002167954|ligand_prepared|mol2|1|dock7
    29    30     1
SMALL
NO_CHARGES


@<TRIPOS>ATOM
      1 C1         -16.9484 -17.4689 -11.9831 C.3            1 RES1               0.0000
      2 C2         -16.5367 -17.6546 -10.5084 C.ar           1 RES1               0.0000
      3 C3         -17.0448 -15.9638 -12.2147 C.2            1 RES1               0.0000
      4 C4         -15.8738 -18.1589 -12.8161 C.2            1 RES1               0.0000
      5 C5         -18.3111 -18.1086 -12.3368 C.3            1 RES1               0.0000
      6 C6         -17.1015 -18.6660  -9.7371 C.ar           1 RES1               0.0000
      7 C7         -15.5934 -16.8257  -9.9072 C.ar           1 RES1               0.0000
      8 N8         -16.0543 -15.3715 -12.9413 N.am           1 RES1               0.0000
      9 O9         -17.9552 -15.3003 -11.7337 O.2            1 RES1               0.0000
     10 N10        -15.0892 -17.3792 -13.6250 N.am           1 RES1               0.0000
     11 O11        -15.6884 -19.3686 -12.7667 O.2            1 RES1               0.0000
     12 C12        -18.8040 -17.7682 -13.7344 C.3            1 RES1               0.0000
     13 C13        -16.7343 -18.8442  -8.4135 C.ar           1 RES1               0.0000
     14 C14        -15.2278 -17.0054  -8.5834 C.ar           1 RES1               0.0000
     15 C15        -15.1104 -16.0133 -13.7022 C.2            1 RES1               0.0000
     16 C16        -15.7970 -18.0144  -7.8359 C.ar           1 RES1               0.0000
     17 O17        -14.3359 -15.3793 -14.4130 O.2            1 RES1               0.0000
     18 H18        -18.2229 -19.1986 -12.2492 H              1 RES1               0.0000
     19 H19        -19.0587 -17.7731 -11.6074 H              1 RES1               0.0000
     20 H20        -17.8425 -19.3272 -10.1737 H              1 RES1               0.0000
     21 H21        -15.1332 -16.0246 -10.4756 H              1 RES1               0.0000
     22 H22        -16.0112 -14.3577 -12.9165 H              1 RES1               0.0000
     23 H23        -14.4282 -17.8619 -14.2254 H              1 RES1               0.0000
     24 H24        -19.7634 -18.2421 -13.9311 H              1 RES1               0.0000
     25 H25        -18.9273 -16.6932 -13.8488 H              1 RES1               0.0000
     26 H26        -18.0965 -18.1102 -14.4869 H              1 RES1               0.0000
     27 H27        -17.1863 -19.6389  -7.8292 H              1 RES1               0.0000
     28 H28        -14.4901 -16.3496  -8.1327 H              1 RES1               0.0000
     29 H29        -15.5093 -18.1544  -6.7992 H              1 RES1               0.0000
@<TRIPOS>BOND
    1    1    2 1     
    2    1    3 1     
    3    1    4 1     
    4    1    5 1     
    5    2    6 ar    
    6    2    7 ar    
    7    3    8 1     
    8    3    9 2     
    9    4   10 1     
   10    4   11 2     
   11    5   12 1     
   12    5   18 1     
   13    5   19 1     
   14    6   13 ar    
   15    6   20 1     
   16    7   14 ar    
   17    7   21 1     
   18    8   15 1     
   19    8   22 1     
   20   10   15 1     
   21   10   23 1     
   22   12   24 1     
   23   12   25 1     
   24   12   26 1     
   25   13   16 ar    
   26   13   27 1     
   27   14   16 ar    
   28   14   28 1     
   29   15   17 2     
   30   16   29 1     
@<TRIPOS>SUBSTRUCTURE
      1 RES1           1
@<TRIPOS>SET
DONOR_HYDROGENS      STATIC     ATOMS    <user>   **** ""
2 22 23
ATOM$RED        STATIC     ATOMS    COLORGROUP SYSTEM
2 22 23
@<TRIPOS>COMMENT
> <Gold.Version>
2022.3.0

> <Gold.Id.Protein>
unknown|7kl0_clean|pdb

> <Gold.Protein.RotatedTorsions>
[ 6433 6412 6411 6409 ] final  -86.46 input   60.01 | X-H torsion
[ 1391 1375 1376 1377 ] final -128.79 input  130.72 | X-H torsion
[ 1421 1411 1412 1413 ] final  127.27 input  114.05 | X-H torsion
[ 6231 6210 6209 6207 ] final -153.50 input   60.00 | X-H torsion
[ 7222 7206 7205 7202 ] final  -19.77 input   60.00 | X-H torsion
[ 1362 1344 1345 1346 ] final -150.51 input   95.07 | X-H torsion
[ 5430 5408 5407 5405 ] final  169.17 input   60.00 | X-H torsion
[  580  562  563  564 ] final  -67.91 input   55.02 | X-H torsion
[ 1326 1306 1307 1308 ] final -154.18 input  117.83 | X-H torsion
[  608  597  598  599 ] final  -40.88 input   37.41 | X-H torsion
[  546  536  537  538 ] final -153.31 input  119.99 | X-H torsion
[ 4227 4194 4193 4192 ] final  -90.31 input   60.00 | X-H torsion
[ 1262 1249 1250 1251 ] final  142.67 input  103.51 | X-H torsion
[ 1425 1416 1415 1412 ] final   83.23 input   60.01 | X-H torsion
[ 1504 1492 1493 1494 ] final  111.22 input  118.60 | X-H torsion
[ 1535 1518 1519 1520 ] final -154.09 input  116.53 | X-H torsion
[  528  521  522  523 ] final   21.23 input   38.54 | X-H torsion
[ 5354 5333 5331 5328 ] final  -30.56 input   59.99 | X-H torsion
[  504  482  483  484 ] final  145.81 input   40.33 | X-H torsion
[  612  602  601  598 ] final  142.21 input   59.99 | X-H torsion
[  636  620  621  622 ] final  147.70 input   33.60 | X-H torsion
[  668  652  653  654 ] final   93.64 input   67.24 | X-H torsion
[ 6843 6822 6821 6819 ] final -163.86 input   59.97 | X-H torsion
[ 1596 1580 1579 1578 ] final  174.46 input   59.99 | X-H torsion
[ 5797 5776 5775 5773 ] final   63.31 input   60.02 | X-H torsion
[ 6661 6649 6650 6651 ] final  144.44 input   84.69 | X-H torsion
[ 6691 6674 6675 6676 ] final  -37.99 input  117.08 | X-H torsion
[ 6727 6709 6710 6711 ] final   77.42 input  123.04 | X-H torsion
[ 6635 6620 6621 6622 ] final  110.24 input  122.94 | X-H torsion
[ 1613 1589 1588 1587 ] final   53.53 input   59.99 | X-H torsion
[ 4214 4203 4202 4201 ] final -108.89 input   60.00 | X-H torsion
[ 8535 1347 1346 1345 ] final  -56.51 input   -0.00 | X-H torsion
[ 8582  539  538  537 ] final   83.55 input    0.00 | X-H torsion
[ 8586 1252 1251 1250 ] final  -79.23 input    0.00 | X-H torsion
[ 8588 1378 1377 1376 ] final -118.23 input   -0.00 | X-H torsion
[ 8593 1279 1278 1277 ] final  112.57 input    0.00 | X-H torsion
[ 8596 1309 1308 1307 ] final   34.89 input    0.00 | X-H torsion
[ 8602  565  564  563 ] final  -76.49 input    0.00 | X-H torsion
[ 8625  524  523  522 ] final   13.79 input    0.00 | X-H torsion
[ 8635 1414 1413 1412 ] final   90.44 input    0.00 | X-H torsion
[ 8638 1495 1494 1493 ] final   71.70 input    0.00 | X-H torsion
[ 8642  600  599  598 ] final  137.21 input    0.00 | X-H torsion
[ 8650  485  484  483 ] final   80.94 input    0.00 | X-H torsion
[ 8661  466  465  464 ] final -149.61 input   -0.00 | X-H torsion
[ 8712 6623 6622 6621 ] final   74.05 input    0.00 | X-H torsion
[ 8729 6598 6597 6596 ] final   80.62 input   -0.00 | X-H torsion
[ 8732 6652 6651 6650 ] final  165.77 input   -0.00 | X-H torsion

> <Gold.Protein.ActiveResidues>
 GLU18   GLY20   LYS21   GLY22   ALA23   PHE24   SER25   VAL26   VAL27   ARG28  
 ILE44   ASN45   THR46   LYS47   LYS48   LEU49   SER50   ARG52   ASP53   HIS54  
 LYS56   ARG59   GLY95   GLU96   LEU97   PHE98   GLU99   ASP100  ILE101  VAL102 
 ALA103  GLU105  TYR106  HIS133  ARG134  ASN135  LEU136  LYS137  PRO138  GLU139 
 ASN140  LEU142  ASP156  GLY158  LEU159  ILE161  TRP170  PHE171  GLY172  PHE173 
 ALA174  GLY175  THR176  PRO177  GLY178  TYR179  LEU180  VAL184  LEU185  LYS187 
 TYR190  VAL201  ILE202  TYR204  ILE205  LEU206  VAL208  GLY209  TYR210  PRO211 
 PRO212  PHE213  TRP214  ASP215  GLU216  ASP217  GLN218  HIS219  LEU221  TYR222 
 GLN224  ILE225  ALA229  TYR230  ASP231  PHE232  PRO233  SER234  PRO235  GLU236 
 TRP237 

> <Gold.Protein.RotatedAtoms>
   -6.2620  -22.2593  -21.8562 H   0  0  0  0  0  0  0  0  0  0  0  0  # atno 504  bound_to 482 
   -9.7975  -19.9648  -19.9356 H   0  0  0  0  0  0  0  0  0  0  0  0  # atno 528  bound_to 521 
  -10.9222  -16.3259  -20.4605 H   0  0  0  0  0  0  0  0  0  0  0  0  # atno 546  bound_to 536 
  -12.9104  -17.4853  -18.1457 H   0  0  0  0  0  0  0  0  0  0  0  0  # atno 580  bound_to 562 
  -13.2153  -19.8690  -17.6885 H   0  0  0  0  0  0  0  0  0  0  0  0  # atno 608  bound_to 597 
  -13.3361  -20.8238  -22.3678 H   0  0  0  0  0  0  0  0  0  0  0  0  # atno 612  bound_to 602 
  -12.5239  -22.8531  -18.6560 H   0  0  0  0  0  0  0  0  0  0  0  0  # atno 636  bound_to 620 
   -9.5740  -24.5905  -21.7738 H   0  0  0  0  0  0  0  0  0  0  0  0  # atno 668  bound_to 652 
  -16.8316  -22.2847  -16.8327 H   0  0  0  0  0  0  0  0  0  0  0  0  # atno 1262 bound_to 1249
  -22.0235  -21.5542  -13.5326 H   0  0  0  0  0  0  0  0  0  0  0  0  # atno 1326 bound_to 1306
  -21.9503  -18.5177  -11.1869 H   0  0  0  0  0  0  0  0  0  0  0  0  # atno 1362 bound_to 1344
  -22.3649  -16.5969  -13.6267 H   0  0  0  0  0  0  0  0  0  0  0  0  # atno 1391 bound_to 1375
  -23.1937  -13.5583  -16.2458 H   0  0  0  0  0  0  0  0  0  0  0  0  # atno 1421 bound_to 1411
  -24.6383  -11.5887  -19.1258 H   0  0  0  0  0  0  0  0  0  0  0  0  # atno 1425 bound_to 1416
  -24.5857  -12.7852  -20.1385 H   0  0  0  0  0  0  0  0  0  0  0  0  # atno 1504 bound_to 1492
  -24.5754  -15.9179  -20.2630 H   0  0  0  0  0  0  0  0  0  0  0  0  # atno 1535 bound_to 1518
    7.5838   -6.1408  -22.0193 H   0  0  0  0  0  0  0  0  0  0  0  0  # atno 1596 bound_to 1580
    8.4912   -4.7718  -21.7964 H   0  0  0  0  0  0  0  0  0  0  0  0  # atno 1597 bound_to 1580
    8.6642   -5.6647  -23.1824 H   0  0  0  0  0  0  0  0  0  0  0  0  # atno 1598 bound_to 1580
  -18.7849  -12.0309  -24.3569 H   0  0  0  0  0  0  0  0  0  0  0  0  # atno 1613 bound_to 1589
  -18.0304  -12.0041  -25.8329 H   0  0  0  0  0  0  0  0  0  0  0  0  # atno 1614 bound_to 1589
  -19.0597  -10.7769  -25.4052 H   0  0  0  0  0  0  0  0  0  0  0  0  # atno 1615 bound_to 1589
   -5.6383  -14.1001  -29.6823 H   0  0  0  0  0  0  0  0  0  0  0  0  # atno 4214 bound_to 4203
   -5.8715  -12.7316  -30.5884 H   0  0  0  0  0  0  0  0  0  0  0  0  # atno 4215 bound_to 4203
   -7.1647  -13.4843  -29.8745 H   0  0  0  0  0  0  0  0  0  0  0  0  # atno 4216 bound_to 4203
   -3.8910  -12.7196  -15.6533 H   0  0  0  0  0  0  0  0  0  0  0  0  # atno 4227 bound_to 4194
   -3.6247  -11.1712  -15.1249 H   0  0  0  0  0  0  0  0  0  0  0  0  # atno 4228 bound_to 4194
   -2.4337  -11.9849  -15.9414 H   0  0  0  0  0  0  0  0  0  0  0  0  # atno 4229 bound_to 4194
   -2.5778   -8.7699  -15.7215 H   0  0  0  0  0  0  0  0  0  0  0  0  # atno 5354 bound_to 5333
   -8.5369  -11.9015  -10.7082 H   0  0  0  0  0  0  0  0  0  0  0  0  # atno 5430 bound_to 5408
    4.7877   -0.7513  -13.0819 H   0  0  0  0  0  0  0  0  0  0  0  0  # atno 5797 bound_to 5776
  -16.6714   -6.1005   -1.6885 H   0  0  0  0  0  0  0  0  0  0  0  0  # atno 6231 bound_to 6210
  -18.7728   -9.3577   -1.4171 H   0  0  0  0  0  0  0  0  0  0  0  0  # atno 6433 bound_to 6412
    4.9756   -0.0782  -30.7436 H   0  0  0  0  0  0  0  0  0  0  0  0  # atno 6635 bound_to 6620
    3.6254    1.4684  -28.9750 H   0  0  0  0  0  0  0  0  0  0  0  0  # atno 6661 bound_to 6649
   -0.1342    1.7194  -29.0785 H   0  0  0  0  0  0  0  0  0  0  0  0  # atno 6691 bound_to 6674
   -1.8140    3.0028  -28.9198 H   0  0  0  0  0  0  0  0  0  0  0  0  # atno 6727 bound_to 6709
   -6.2070   -1.0498  -18.0306 H   0  0  0  0  0  0  0  0  0  0  0  0  # atno 6843 bound_to 6822
  -24.6068   -7.8039    4.2405 H   0  0  0  0  0  0  0  0  0  0  0  0  # atno 7222 bound_to 7206
  -24.6360  -14.9544  -11.9523 LP  0  0  0  0  0  0  0  0  0  0  0  0  # atno 8535 bound_to 1347
  -23.8687  -14.1100  -13.2555 LP  0  0  0  0  0  0  0  0  0  0  0  0  # atno 8536 bound_to 1347
  -20.2540   -9.8689   -1.8574 LP  0  0  0  0  0  0  0  0  0  0  0  0  # atno 8539 bound_to 6412
  -19.6449   -8.4881   -2.4812 LP  0  0  0  0  0  0  0  0  0  0  0  0  # atno 8540 bound_to 6412
  -24.0749  -16.9994  -13.6568 LP  0  0  0  0  0  0  0  0  0  0  0  0  # atno 8545 bound_to 1375
  -24.4424  -14.7468  -15.9236 LP  0  0  0  0  0  0  0  0  0  0  0  0  # atno 8546 bound_to 1411
  -17.1956   -7.5707   -1.2276 LP  0  0  0  0  0  0  0  0  0  0  0  0  # atno 8553 bound_to 6210
  -16.9458   -7.2485   -2.8089 LP  0  0  0  0  0  0  0  0  0  0  0  0  # atno 8554 bound_to 6210
  -26.1047   -7.8874    4.8706 LP  0  0  0  0  0  0  0  0  0  0  0  0  # atno 8565 bound_to 7206
  -25.7386   -6.7299    3.7785 LP  0  0  0  0  0  0  0  0  0  0  0  0  # atno 8566 bound_to 7206
  -22.0191  -18.2938  -12.9215 LP  0  0  0  0  0  0  0  0  0  0  0  0  # atno 8581 bound_to 1344
  -12.6970  -15.7903  -15.9067 LP  0  0  0  0  0  0  0  0  0  0  0  0  # atno 8582 bound_to 539 
  -11.8006  -17.2472  -16.1788 LP  0  0  0  0  0  0  0  0  0  0  0  0  # atno 8583 bound_to 539 
   -8.8578  -11.7175   -9.1229 LP  0  0  0  0  0  0  0  0  0  0  0  0  # atno 8584 bound_to 5408
   -7.6296  -12.6804   -9.6037 LP  0  0  0  0  0  0  0  0  0  0  0  0  # atno 8585 bound_to 5408
  -19.1437  -19.3558  -15.2550 LP  0  0  0  0  0  0  0  0  0  0  0  0  # atno 8586 bound_to 1252
  -19.6260  -19.7625  -16.8681 LP  0  0  0  0  0  0  0  0  0  0  0  0  # atno 8587 bound_to 1252
  -26.3686  -15.2858  -15.7521 LP  0  0  0  0  0  0  0  0  0  0  0  0  # atno 8588 bound_to 1378
  -25.7029  -15.4226  -14.1590 LP  0  0  0  0  0  0  0  0  0  0  0  0  # atno 8589 bound_to 1378
  -14.3242  -16.5516  -18.6071 LP  0  0  0  0  0  0  0  0  0  0  0  0  # atno 8592 bound_to 562 
  -24.6284  -20.3616  -13.8570 LP  0  0  0  0  0  0  0  0  0  0  0  0  # atno 8593 bound_to 1279
  -23.9519  -19.0375  -14.7454 LP  0  0  0  0  0  0  0  0  0  0  0  0  # atno 8594 bound_to 1279
  -21.5919  -19.8630  -13.7007 LP  0  0  0  0  0  0  0  0  0  0  0  0  # atno 8595 bound_to 1306
  -24.4740  -19.2872  -10.5388 LP  0  0  0  0  0  0  0  0  0  0  0  0  # atno 8596 bound_to 1309
  -24.5763  -17.8987  -11.5692 LP  0  0  0  0  0  0  0  0  0  0  0  0  # atno 8597 bound_to 1309
  -15.7692  -20.7579  -16.6177 LP  0  0  0  0  0  0  0  0  0  0  0  0  # atno 8602 bound_to 565 
  -16.4463  -20.4653  -18.1849 LP  0  0  0  0  0  0  0  0  0  0  0  0  # atno 8603 bound_to 565 
  -14.2838  -19.2266  -18.9186 LP  0  0  0  0  0  0  0  0  0  0  0  0  # atno 8604 bound_to 597 
   -9.7149  -18.7789  -18.7718 LP  0  0  0  0  0  0  0  0  0  0  0  0  # atno 8625 bound_to 524 
  -10.8542  -17.8213  -17.8857 LP  0  0  0  0  0  0  0  0  0  0  0  0  # atno 8626 bound_to 524 
  -12.2385  -17.4410  -20.1298 LP  0  0  0  0  0  0  0  0  0  0  0  0  # atno 8627 bound_to 536 
  -18.4109  -22.2800  -17.5891 LP  0  0  0  0  0  0  0  0  0  0  0  0  # atno 8630 bound_to 1249
  -23.5491  -12.6294  -18.5109 LP  0  0  0  0  0  0  0  0  0  0  0  0  # atno 8631 bound_to 1416
  -23.2209  -11.0304  -18.5541 LP  0  0  0  0  0  0  0  0  0  0  0  0  # atno 8632 bound_to 1416
  -25.6984  -15.3598  -18.1036 LP  0  0  0  0  0  0  0  0  0  0  0  0  # atno 8635 bound_to 1414
  -25.1008  -14.2197  -19.2624 LP  0  0  0  0  0  0  0  0  0  0  0  0  # atno 8636 bound_to 1414
  -24.9256  -12.8382  -21.8603 LP  0  0  0  0  0  0  0  0  0  0  0  0  # atno 8637 bound_to 1492
  -22.5783  -16.7752  -21.9693 LP  0  0  0  0  0  0  0  0  0  0  0  0  # atno 8638 bound_to 1495
  -23.7131  -16.4442  -23.2352 LP  0  0  0  0  0  0  0  0  0  0  0  0  # atno 8639 bound_to 1495
  -25.2924  -14.9557  -21.5408 LP  0  0  0  0  0  0  0  0  0  0  0  0  # atno 8640 bound_to 1518
   -9.1399  -19.9618  -21.5661 LP  0  0  0  0  0  0  0  0  0  0  0  0  # atno 8641 bound_to 521 
  -10.6301  -21.5723  -18.3592 LP  0  0  0  0  0  0  0  0  0  0  0  0  # atno 8642 bound_to 600 
  -11.2663  -20.2979  -19.3446 LP  0  0  0  0  0  0  0  0  0  0  0  0  # atno 8643 bound_to 600 
   -3.0676  -10.1537  -15.0185 LP  0  0  0  0  0  0  0  0  0  0  0  0  # atno 8648 bound_to 5333
   -1.9999   -9.1811  -14.2565 LP  0  0  0  0  0  0  0  0  0  0  0  0  # atno 8649 bound_to 5333
   -8.5258  -19.9496  -23.5224 LP  0  0  0  0  0  0  0  0  0  0  0  0  # atno 8650 bound_to 485 
   -7.8112  -18.6259  -22.6638 LP  0  0  0  0  0  0  0  0  0  0  0  0  # atno 8651 bound_to 485 
   -7.6255  -22.0245  -22.9368 LP  0  0  0  0  0  0  0  0  0  0  0  0  # atno 8652 bound_to 482 
   -8.4019  -23.7359  -20.7653 LP  0  0  0  0  0  0  0  0  0  0  0  0  # atno 8661 bound_to 466 
   -7.0815  -24.8328  -20.9960 LP  0  0  0  0  0  0  0  0  0  0  0  0  # atno 8662 bound_to 466 
  -12.4681  -20.4068  -21.0559 LP  0  0  0  0  0  0  0  0  0  0  0  0  # atno 8663 bound_to 602 
  -13.7394  -19.4937  -21.5212 LP  0  0  0  0  0  0  0  0  0  0  0  0  # atno 8664 bound_to 602 
  -12.8185  -22.9336  -20.3865 LP  0  0  0  0  0  0  0  0  0  0  0  0  # atno 8665 bound_to 620 
  -10.8647  -25.3059  -20.8314 LP  0  0  0  0  0  0  0  0  0  0  0  0  # atno 8672 bound_to 652 
   -7.4045   -2.1035  -17.7080 LP  0  0  0  0  0  0  0  0  0  0  0  0  # atno 8689 bound_to 6822
   -6.1268   -1.9811  -16.6985 LP  0  0  0  0  0  0  0  0  0  0  0  0  # atno 8690 bound_to 6822
    3.0380   -0.3193  -26.3248 LP  0  0  0  0  0  0  0  0  0  0  0  0  # atno 8712 bound_to 6623
    1.6751   -0.8995  -27.2226 LP  0  0  0  0  0  0  0  0  0  0  0  0  # atno 8713 bound_to 6623
    6.3391   -0.2716  -12.9836 LP  0  0  0  0  0  0  0  0  0  0  0  0  # atno 8722 bound_to 5776
    5.2397    0.6620  -13.7492 LP  0  0  0  0  0  0  0  0  0  0  0  0  # atno 8723 bound_to 5776
    2.5363    0.0961  -29.1003 LP  0  0  0  0  0  0  0  0  0  0  0  0  # atno 8724 bound_to 6649
   -0.3822    0.7586  -27.6339 LP  0  0  0  0  0  0  0  0  0  0  0  0  # atno 8725 bound_to 6674
   -3.1654    1.9720  -29.3399 LP  0  0  0  0  0  0  0  0  0  0  0  0  # atno 8728 bound_to 6709
    2.0328   -2.5080  -30.8613 LP  0  0  0  0  0  0  0  0  0  0  0  0  # atno 8729 bound_to 6598
    1.4451   -0.9816  -30.2916 LP  0  0  0  0  0  0  0  0  0  0  0  0  # atno 8730 bound_to 6598
    3.5361   -1.0750  -30.8795 LP  0  0  0  0  0  0  0  0  0  0  0  0  # atno 8731 bound_to 6620
   -0.3462    1.1175  -31.0408 LP  0  0  0  0  0  0  0  0  0  0  0  0  # atno 8732 bound_to 6652
    1.0674    2.1158  -30.9697 LP  0  0  0  0  0  0  0  0  0  0  0  0  # atno 8733 bound_to 6652

> <Gold.Score>
     Fitness  S(hb_ext) S(vdw_ext)  S(hb_int)    S(int)      intcor
     30.81       0.00      23.00       0.00      -0.81      -0.76

> <Gold.Goldscore.Fitness>
30.8127

> <Gold.Goldscore.Internal.Vdw>
-1.1018

> <Gold.Goldscore.Internal.Torsion>
-0.4677

> <Gold.Goldscore.External.Vdw>
22.9990

> <Gold.Goldscore.Internal.HBond>
0.0000

> <Gold.Goldscore.External.HBond>
0.0000

> <Gold.Goldscore.Internal.Correction>
-0.7585

> <Gold.Goldscore.Internal.Vdw.Weighted>
-1.1018

> <Gold.Goldscore.Internal.Torsion.Weighted>
-0.4677

> <Gold.Goldscore.External.Vdw.Weighted>
31.6237

> <Gold.Goldscore.Internal.HBond.Weighted>
0.0000

> <Gold.Goldscore.External.HBond.Weighted>
0.0000

> <Gold.Goldscore.Internal.Correction.Weighted>
-0.7585

> <Gold.Rescore>
     Score     S(PLP)   S(hbond)     S(cho)   S(metal)  DE(clash)   DE(tors)     intcor
     33.31     -34.48       0.00       0.00       0.00       0.00       0.58       ----

> <Gold.PLP.Fitness>
33.3137

> <Gold.PLP.PLP>
-34.4800

> <Gold.PLP.part.hbond>
0.0000

> <Gold.PLP.part.metal>
0.0000

> <Gold.PLP.part.buried>
-4.2506

> <Gold.PLP.part.nonpolar>
-30.7731

> <Gold.PLP.part.repulsive>
0.1316

> <Gold.PLP.ligand.clash>
0.0000

> <Gold.PLP.ligand.torsion>
0.5832

> <Gold.PLP.Chemscore.Hbond>
0.0000

> <Gold.PLP.Chemscore.CHOScore>
0.0000

> <Gold.PLP.Chemscore.Metal>
0.0000

> <Gold.PLP.Chemscore.Internal.Correction>
   9.000000E+99

