#       Name:                CT1002167954
#       Creating user name   hitesit
#       Creation time:       Sun Apr 16 02:21:20 2023


#       File generated by GOLD software.
#

@<TRIPOS>MOLECULE
CT1002167954|ligand_prepared|mol2|1|dock8
    29    30     1
SMALL
NO_CHARGES


@<TRIPOS>ATOM
      1 C1          45.2436  30.8922  31.2006 C.3            1 RES1               0.0000
      2 C2          44.5053  32.2212  31.4605 C.ar           1 RES1               0.0000
      3 C3          44.9320  29.9892  32.3905 C.2            1 RES1               0.0000
      4 C4          44.7212  30.3675  29.8678 C.2            1 RES1               0.0000
      5 C5          46.7786  31.0421  31.0865 C.3            1 RES1               0.0000
      6 C6          43.4811  32.2908  32.4001 C.ar           1 RES1               0.0000
      7 C7          44.8385  33.3844  30.7717 C.ar           1 RES1               0.0000
      8 N8          44.0587  28.9607  32.1915 N.am           1 RES1               0.0000
      9 O9          45.4145  30.2001  33.4963 O.2            1 RES1               0.0000
     10 N10         44.0004  29.2022  29.8746 N.am           1 RES1               0.0000
     11 O11         44.9131  30.9615  28.8139 O.2            1 RES1               0.0000
     12 C12         47.5199  29.7168  31.0078 C.3            1 RES1               0.0000
     13 C13         42.8159  33.4808  32.6444 C.ar           1 RES1               0.0000
     14 C14         44.1718  34.5734  31.0174 C.ar           1 RES1               0.0000
     15 C15         43.6193  28.4912  30.9798 C.2            1 RES1               0.0000
     16 C16         43.1610  34.6229  31.9536 C.ar           1 RES1               0.0000
     17 O17         42.9245  27.4816  30.9091 O.2            1 RES1               0.0000
     18 H18         47.0102  31.6301  30.1898 H              1 RES1               0.0000
     19 H19         47.1446  31.6002  31.9572 H              1 RES1               0.0000
     20 H20         43.1939  31.4018  32.9516 H              1 RES1               0.0000
     21 H21         45.6297  33.3688  30.0299 H              1 RES1               0.0000
     22 H22         43.6991  28.4980  33.0203 H              1 RES1               0.0000
     23 H23         43.7222  28.8301  28.9721 H              1 RES1               0.0000
     24 H24         48.5928  29.8791  30.9291 H              1 RES1               0.0000
     25 H25         47.3323  29.1166  31.8957 H              1 RES1               0.0000
     26 H26         47.1987  29.1463  30.1389 H              1 RES1               0.0000
     27 H27         42.0202  33.5142  33.3812 H              1 RES1               0.0000
     28 H28         44.4464  35.4697  30.4710 H              1 RES1               0.0000
     29 H29         42.6401  35.5551  32.1455 H              1 RES1               0.0000
@<TRIPOS>BOND
    1    1    2 1     
    2    1    3 1     
    3    1    4 1     
    4    1    5 1     
    5    2    6 ar    
    6    2    7 ar    
    7    3    8 1     
    8    3    9 2     
    9    4   10 1     
   10    4   11 2     
   11    5   12 1     
   12    5   18 1     
   13    5   19 1     
   14    6   13 ar    
   15    6   20 1     
   16    7   14 ar    
   17    7   21 1     
   18    8   15 1     
   19    8   22 1     
   20   10   15 1     
   21   10   23 1     
   22   12   24 1     
   23   12   25 1     
   24   12   26 1     
   25   13   16 ar    
   26   13   27 1     
   27   14   16 ar    
   28   14   28 1     
   29   15   17 2     
   30   16   29 1     
@<TRIPOS>SUBSTRUCTURE
      1 RES1           1
@<TRIPOS>SET
DONOR_HYDROGENS      STATIC     ATOMS    <user>   **** ""
2 22 23
ATOM$RED        STATIC     ATOMS    COLORGROUP SYSTEM
2 22 23
@<TRIPOS>COMMENT
> <Gold.Version>
2022.3.0

> <Gold.Id.Protein>
unknown|2zaz_clean|pdb

> <Gold.Protein.RotatedTorsions>
[ 2465 2462 2458 2455 ] final  105.66 input  -12.99 | X-H torsion
[ 2449 2444 2443 2440 ] final   71.81 input   60.00 | X-H torsion
[ 1651 1646 1644 1641 ] final -104.88 input   60.01 | X-H torsion

> <Gold.Protein.ActiveResidues>
 VAL30   GLY31   VAL38   ALA51   ILE84   THR106  HIS107  LEU108  MET109  GLY110 
 ALA111  ASP112  LEU113  ASN114  ASN115  PRO153  SER154  ASN155  LEU156  ALA157 
 VAL158  LYS165  LEU167  ASP168 

> <Gold.Protein.RotatedAtoms>
   39.8181   34.5126   31.7479 H   0  0  0  0  0  0  0  0  0  0  0  0  # atno 1651 bound_to 1646
   50.4605   25.9607   35.8688 H   0  0  0  0  0  0  0  0  0  0  0  0  # atno 2449 bound_to 2444
   48.2239   26.1011   36.9366 H   0  0  0  0  0  0  0  0  0  0  0  0  # atno 2465 bound_to 2455 2458 2462
   47.3353   27.2042   35.9945 LP  0  0  0  0  0  0  0  0  0  0  0  0  # atno 5611 bound_to 2462
   47.0851   25.6056   35.7740 LP  0  0  0  0  0  0  0  0  0  0  0  0  # atno 5612 bound_to 2462

> <Gold.Score>
     Fitness  S(hb_ext) S(vdw_ext)  S(hb_int)    S(int)      intcor
     25.40       6.00      15.15       0.00      -1.43      -0.76

> <Gold.Goldscore.Fitness>
25.3964

> <Gold.Goldscore.Internal.Vdw>
-1.7310

> <Gold.Goldscore.Internal.Torsion>
-0.4560

> <Gold.Goldscore.External.Vdw>
15.1453

> <Gold.Goldscore.Internal.HBond>
0.0000

> <Gold.Goldscore.External.HBond>
6.0000

> <Gold.Goldscore.Internal.Correction>
-0.7585

> <Gold.Goldscore.Hbonds>
donor molecule, donor type, donor heavy atom, donor atom, acceptor molecule, acceptor atom, score
      L1  H     8    22       P1  2670  1.00

> <Gold.Goldscore.Internal.Vdw.Weighted>
-1.7310

> <Gold.Goldscore.Internal.Torsion.Weighted>
-0.4560

> <Gold.Goldscore.External.Vdw.Weighted>
20.8248

> <Gold.Goldscore.Internal.HBond.Weighted>
0.0000

> <Gold.Goldscore.External.HBond.Weighted>
6.0000

> <Gold.Goldscore.Internal.Correction.Weighted>
-0.7585

> <Gold.Rescore>
     Score     S(PLP)   S(hbond)     S(cho)   S(metal)  DE(clash)   DE(tors)     intcor
     21.37     -20.46       0.99       0.00       0.00       0.11       0.98       ----

> <Gold.PLP.Fitness>
21.3677

> <Gold.PLP.PLP>
-20.4623

> <Gold.PLP.part.hbond>
-1.0000

> <Gold.PLP.part.metal>
0.0000

> <Gold.PLP.part.buried>
-0.7465

> <Gold.PLP.part.nonpolar>
-19.2054

> <Gold.PLP.part.repulsive>
0.2611

> <Gold.PLP.ligand.clash>
0.1126

> <Gold.PLP.ligand.torsion>
0.9790

> <Gold.PLP.Chemscore.Hbond>
0.9920

> <Gold.PLP.Chemscore.CHOScore>
0.0000

> <Gold.PLP.Chemscore.Metal>
0.0000

> <Gold.Chemscore.Hbonds>
donor molecule, donor type, donor heavy atom, donor atom, acceptor molecule, acceptor atom, score
      L1  H     8    22       P1  2670  0.70

> <Gold.PLP.Chemscore.Internal.Correction>
   9.000000E+99

