#       Name:                CT1002167954
#       Creating user name   hitesit
#       Creation time:       Sun Apr 16 20:31:06 2023


#       File generated by GOLD software.
#

@<TRIPOS>MOLECULE
CT1002167954|ligand_prepared|mol2|1|dock5
    29    30     1
SMALL
NO_CHARGES


@<TRIPOS>ATOM
      1 C1         143.5008 127.4103 189.5476 C.3            1 RES1               0.0000
      2 C2         143.1547 128.8241 189.0377 C.ar           1 RES1               0.0000
      3 C3         142.2366 126.8731 190.2121 C.2            1 RES1               0.0000
      4 C4         143.9481 126.6141 188.3266 C.2            1 RES1               0.0000
      5 C5         144.6493 127.3832 190.5827 C.3            1 RES1               0.0000
      6 C6         142.0843 129.0225 188.1707 C.ar           1 RES1               0.0000
      7 C7         143.8936 129.9382 189.4269 C.ar           1 RES1               0.0000
      8 N8         141.5320 125.9135 189.5469 N.am           1 RES1               0.0000
      9 O9         141.8424 127.3131 191.2851 O.2            1 RES1               0.0000
     10 N10        143.1684 125.5610 187.9258 N.am           1 RES1               0.0000
     11 O11        144.9600 126.8996 187.6982 O.2            1 RES1               0.0000
     12 C12        144.9581 125.9945 191.1198 C.3            1 RES1               0.0000
     13 C13        141.7623 130.2889 187.7117 C.ar           1 RES1               0.0000
     14 C14        143.5701 131.2039 188.9665 C.ar           1 RES1               0.0000
     15 C15        141.9644 125.1936 188.4622 C.2            1 RES1               0.0000
     16 C16        142.5046 131.3804 188.1096 C.ar           1 RES1               0.0000
     17 O17        141.2951 124.2682 188.0120 O.2            1 RES1               0.0000
     18 H18        145.5547 127.7907 190.1163 H              1 RES1               0.0000
     19 H19        144.3825 128.0355 191.4234 H              1 RES1               0.0000
     20 H20        141.4902 128.1752 187.8447 H              1 RES1               0.0000
     21 H21        144.7367 129.8230 190.0996 H              1 RES1               0.0000
     22 H22        140.5971 125.7126 189.8873 H              1 RES1               0.0000
     23 H23        143.5180 124.9987 187.1564 H              1 RES1               0.0000
     24 H24        145.7710 126.0321 191.8419 H              1 RES1               0.0000
     25 H25        144.0864 125.5690 191.6127 H              1 RES1               0.0000
     26 H26        145.2517 125.3256 190.3134 H              1 RES1               0.0000
     27 H27        140.9237 130.4224 187.0363 H              1 RES1               0.0000
     28 H28        144.1574 132.0599 189.2818 H              1 RES1               0.0000
     29 H29        142.2520 132.3725 187.7502 H              1 RES1               0.0000
@<TRIPOS>BOND
    1    1    2 1     
    2    1    3 1     
    3    1    4 1     
    4    1    5 1     
    5    2    6 ar    
    6    2    7 ar    
    7    3    8 1     
    8    3    9 2     
    9    4   10 1     
   10    4   11 2     
   11    5   12 1     
   12    5   18 1     
   13    5   19 1     
   14    6   13 ar    
   15    6   20 1     
   16    7   14 ar    
   17    7   21 1     
   18    8   15 1     
   19    8   22 1     
   20   10   15 1     
   21   10   23 1     
   22   12   24 1     
   23   12   25 1     
   24   12   26 1     
   25   13   16 ar    
   26   13   27 1     
   27   14   16 ar    
   28   14   28 1     
   29   15   17 2     
   30   16   29 1     
@<TRIPOS>SUBSTRUCTURE
      1 RES1           1
@<TRIPOS>SET
DONOR_HYDROGENS      STATIC     ATOMS    <user>   **** ""
2 22 23
ATOM$RED        STATIC     ATOMS    COLORGROUP SYSTEM
2 22 23
@<TRIPOS>COMMENT
> <Gold.Version>
2022.3.0

> <Gold.Id.Protein>
unknown|7rmh_cavity_clean|pdb

> <Gold.Protein.RotatedTorsions>
[ 10359 10350 10349 10347 ] final -126.23 input   59.97 | X-H torsion
[ 10338 10331 10329 10326 ] final  -67.14 input   60.01 | X-H torsion
[ 10390 10381 10380 10378 ] final   66.55 input   59.98 | X-H torsion

> <Gold.Protein.ActiveResidues>
 ARG228  GLU230  ARG232  MET188  LEU190  ALA208  THR114  TYR115  ALA116  TYR117 
 ARG118  GLY119  GLN120 

> <Gold.Protein.RotatedAtoms>
  146.8893  127.8300  186.3373 H   0  0  0  0  0  0  0  0  0  0  0  0  # atno 10338 bound_to 10331
  135.7657  128.9759  179.5102 H   0  0  0  0  0  0  0  0  0  0  0  0  # atno 10359 bound_to 10350
  136.8898  135.9053  181.1427 H   0  0  0  0  0  0  0  0  0  0  0  0  # atno 10390 bound_to 10381
  136.2287  127.7672  178.5233 LP  0  0  0  0  0  0  0  0  0  0  0  0  # atno 14710 bound_to 10350
  136.8837  129.2541  178.3604 LP  0  0  0  0  0  0  0  0  0  0  0  0  # atno 14711 bound_to 10350
  147.8763  128.8193  185.5039 LP  0  0  0  0  0  0  0  0  0  0  0  0  # atno 14728 bound_to 10331
  147.4127  127.3919  184.8603 LP  0  0  0  0  0  0  0  0  0  0  0  0  # atno 14729 bound_to 10331
  135.3723  135.9714  180.5593 LP  0  0  0  0  0  0  0  0  0  0  0  0  # atno 14732 bound_to 10381
  136.5899  135.4287  179.6161 LP  0  0  0  0  0  0  0  0  0  0  0  0  # atno 14733 bound_to 10381

> <Gold.Score>
     Fitness  S(hb_ext) S(vdw_ext)  S(hb_int)    S(int)      intcor
     17.71       3.24      10.56       0.00      -0.05      -0.78

> <Gold.Goldscore.Fitness>
17.7128

> <Gold.Goldscore.Internal.Vdw>
-0.4499

> <Gold.Goldscore.Internal.Torsion>
-0.3740

> <Gold.Goldscore.External.Vdw>
10.5588

> <Gold.Goldscore.Internal.HBond>
0.0000

> <Gold.Goldscore.External.HBond>
3.2430

> <Gold.Goldscore.Internal.Correction>
-0.7752

> <Gold.Goldscore.Hbonds>
donor molecule, donor type, donor heavy atom, donor atom, acceptor molecule, acceptor atom, score
      P1  H 10331 10338       L1    11  0.04
      P1  H 10398 10410       L1    17  0.51
      P1  H 10401 10414       L1    17  0.01

> <Gold.Goldscore.Internal.Vdw.Weighted>
-0.4499

> <Gold.Goldscore.Internal.Torsion.Weighted>
-0.3740

> <Gold.Goldscore.External.Vdw.Weighted>
14.5184

> <Gold.Goldscore.Internal.HBond.Weighted>
0.0000

> <Gold.Goldscore.External.HBond.Weighted>
3.2430

> <Gold.Goldscore.Internal.Correction.Weighted>
-0.7752

> <Gold.Rescore>
     Score     S(PLP)   S(hbond)     S(cho)   S(metal)  DE(clash)   DE(tors)     intcor
     25.17     -17.12       2.80       0.00       0.00       0.00       0.18       ----

> <Gold.PLP.Fitness>
25.1665

> <Gold.PLP.PLP>
-17.1171

> <Gold.PLP.part.hbond>
-4.0000

> <Gold.PLP.part.metal>
0.0000

> <Gold.PLP.part.buried>
-2.6452

> <Gold.PLP.part.nonpolar>
-13.7295

> <Gold.PLP.part.repulsive>
0.6999

> <Gold.PLP.ligand.clash>
0.0000

> <Gold.PLP.ligand.torsion>
0.1818

> <Gold.PLP.Chemscore.Hbond>
2.8043

> <Gold.PLP.Chemscore.CHOScore>
0.0000

> <Gold.PLP.Chemscore.Metal>
0.0000

> <Gold.Chemscore.Hbonds>
donor molecule, donor type, donor heavy atom, donor atom, acceptor molecule, acceptor atom, score
      P1  H 10398 10410       L1    17  1.00
      P1  H 10401 10414       L1    17  0.08

> <Gold.PLP.Chemscore.Internal.Correction>
   9.000000E+99

