#       Name:                CT1002167954
#       Creating user name   hitesit
#       Creation time:       Sun Apr 16 20:31:06 2023


#       File generated by GOLD software.
#

@<TRIPOS>MOLECULE
CT1002167954|ligand_prepared|mol2|1|dock6
    29    30     1
SMALL
NO_CHARGES


@<TRIPOS>ATOM
      1 C1         142.7814 123.1919 188.5442 C.3            1 RES1               0.0000
      2 C2         143.4046 122.9741 189.9381 C.ar           1 RES1               0.0000
      3 C3         141.2823 123.3676 188.7679 C.2            1 RES1               0.0000
      4 C4         143.4705 124.4179 187.9556 C.2            1 RES1               0.0000
      5 C5         142.9975 122.0092 187.5715 C.3            1 RES1               0.0000
      6 C6         144.0297 124.0226 190.6065 C.ar           1 RES1               0.0000
      7 C7         143.3601 121.7334 190.5684 C.ar           1 RES1               0.0000
      8 N8         140.7673 124.6239 188.6394 N.am           1 RES1               0.0000
      9 O9         140.5696 122.4253 189.0910 O.2            1 RES1               0.0000
     10 N10        142.7129 125.5395 187.7415 N.am           1 RES1               0.0000
     11 O11        144.6664 124.4283 187.6907 O.2            1 RES1               0.0000
     12 C12        144.4302 121.5011 187.5328 C.3            1 RES1               0.0000
     13 C13        144.5875 123.8383 191.8608 C.ar           1 RES1               0.0000
     14 C14        143.9188 121.5512 191.8227 C.ar           1 RES1               0.0000
     15 C15        141.3993 125.7080 188.0853 C.2            1 RES1               0.0000
     16 C16        144.5321 122.6027 192.4698 C.ar           1 RES1               0.0000
     17 O17        140.8007 126.7655 187.9104 O.2            1 RES1               0.0000
     18 H18        142.3380 121.1840 187.8670 H              1 RES1               0.0000
     19 H19        142.7076 122.3251 186.5617 H              1 RES1               0.0000
     20 H20        144.0852 125.0014 190.1419 H              1 RES1               0.0000
     21 H21        142.8837 120.8915 190.0776 H              1 RES1               0.0000
     22 H22        139.8252 124.7709 188.9874 H              1 RES1               0.0000
     23 H23        143.1705 126.3211 187.2833 H              1 RES1               0.0000
     24 H24        144.5266 120.6719 186.8352 H              1 RES1               0.0000
     25 H25        145.1108 122.2895 187.2183 H              1 RES1               0.0000
     26 H26        144.7434 121.1552 188.5158 H              1 RES1               0.0000
     27 H27        145.0702 124.6687 192.3653 H              1 RES1               0.0000
     28 H28        143.8734 120.5769 192.2980 H              1 RES1               0.0000
     29 H29        144.9688 122.4587 193.4526 H              1 RES1               0.0000
@<TRIPOS>BOND
    1    1    2 1     
    2    1    3 1     
    3    1    4 1     
    4    1    5 1     
    5    2    6 ar    
    6    2    7 ar    
    7    3    8 1     
    8    3    9 2     
    9    4   10 1     
   10    4   11 2     
   11    5   12 1     
   12    5   18 1     
   13    5   19 1     
   14    6   13 ar    
   15    6   20 1     
   16    7   14 ar    
   17    7   21 1     
   18    8   15 1     
   19    8   22 1     
   20   10   15 1     
   21   10   23 1     
   22   12   24 1     
   23   12   25 1     
   24   12   26 1     
   25   13   16 ar    
   26   13   27 1     
   27   14   16 ar    
   28   14   28 1     
   29   15   17 2     
   30   16   29 1     
@<TRIPOS>SUBSTRUCTURE
      1 RES1           1
@<TRIPOS>SET
DONOR_HYDROGENS      STATIC     ATOMS    <user>   **** ""
2 22 23
ATOM$RED        STATIC     ATOMS    COLORGROUP SYSTEM
2 22 23
@<TRIPOS>COMMENT
> <Gold.Version>
2022.3.0

> <Gold.Id.Protein>
unknown|7rmh_cavity_clean|pdb

> <Gold.Protein.RotatedTorsions>
[ 10359 10350 10349 10347 ] final   96.64 input   59.97 | X-H torsion
[ 10338 10331 10329 10326 ] final -110.82 input   60.01 | X-H torsion
[ 10390 10381 10380 10378 ] final  -96.77 input   59.98 | X-H torsion

> <Gold.Protein.ActiveResidues>
 ARG228  GLU230  ARG232  MET188  LEU190  ALA208  THR114  TYR115  ALA116  TYR117 
 ARG118  GLY119  GLN120 

> <Gold.Protein.RotatedAtoms>
  147.2115  128.4460  186.3792 H   0  0  0  0  0  0  0  0  0  0  0  0  # atno 10338 bound_to 10331
  136.4233  127.8587  178.3438 H   0  0  0  0  0  0  0  0  0  0  0  0  # atno 10359 bound_to 10350
  135.5057  135.7244  179.9251 H   0  0  0  0  0  0  0  0  0  0  0  0  # atno 10390 bound_to 10381
  136.7777  129.4341  178.5483 LP  0  0  0  0  0  0  0  0  0  0  0  0  # atno 14710 bound_to 10350
  135.6727  128.7117  179.5093 LP  0  0  0  0  0  0  0  0  0  0  0  0  # atno 14711 bound_to 10350
  147.9517  128.4223  184.9304 LP  0  0  0  0  0  0  0  0  0  0  0  0  # atno 14728 bound_to 10331
  147.0127  127.1684  185.3915 LP  0  0  0  0  0  0  0  0  0  0  0  0  # atno 14729 bound_to 10331
  137.1100  135.4967  180.0736 LP  0  0  0  0  0  0  0  0  0  0  0  0  # atno 14732 bound_to 10381
  136.2463  136.0856  181.3282 LP  0  0  0  0  0  0  0  0  0  0  0  0  # atno 14733 bound_to 10381

> <Gold.Score>
     Fitness  S(hb_ext) S(vdw_ext)  S(hb_int)    S(int)      intcor
     16.36       0.65      13.78       0.00      -3.23      -0.78

> <Gold.Goldscore.Fitness>
16.3575

> <Gold.Goldscore.Internal.Vdw>
-3.3888

> <Gold.Goldscore.Internal.Torsion>
-0.6149

> <Gold.Goldscore.External.Vdw>
13.7751

> <Gold.Goldscore.Internal.HBond>
0.0000

> <Gold.Goldscore.External.HBond>
0.6451

> <Gold.Goldscore.Internal.Correction>
-0.7752

> <Gold.Goldscore.Hbonds>
donor molecule, donor type, donor heavy atom, donor atom, acceptor molecule, acceptor atom, score
      L1  H     8    22       P1 10418  0.32

> <Gold.Goldscore.Internal.Vdw.Weighted>
-3.3888

> <Gold.Goldscore.Internal.Torsion.Weighted>
-0.6149

> <Gold.Goldscore.External.Vdw.Weighted>
18.9408

> <Gold.Goldscore.Internal.HBond.Weighted>
0.0000

> <Gold.Goldscore.External.HBond.Weighted>
0.6451

> <Gold.Goldscore.Internal.Correction.Weighted>
-0.7752

> <Gold.Rescore>
     Score     S(PLP)   S(hbond)     S(cho)   S(metal)  DE(clash)   DE(tors)     intcor
     17.95     -17.75       0.89       0.00       0.00       0.49       0.99       ----

> <Gold.PLP.Fitness>
17.9505

> <Gold.PLP.PLP>
-17.7462

> <Gold.PLP.part.hbond>
-2.0537

> <Gold.PLP.part.metal>
0.0000

> <Gold.PLP.part.buried>
-5.1003

> <Gold.PLP.part.nonpolar>
-11.5189

> <Gold.PLP.part.repulsive>
0.5837

> <Gold.PLP.ligand.clash>
0.4871

> <Gold.PLP.ligand.torsion>
0.9866

> <Gold.PLP.Chemscore.Hbond>
0.8882

> <Gold.PLP.Chemscore.CHOScore>
0.0000

> <Gold.PLP.Chemscore.Metal>
0.0000

> <Gold.PLP.Chemscore.Internal.Correction>
   9.000000E+99

