#       Name:                CT1002167954
#       Creating user name   hitesit
#       Creation time:       Sun Apr 16 20:31:04 2023


#       File generated by GOLD software.
#

@<TRIPOS>MOLECULE
CT1002167954|ligand_prepared|mol2|1|dock1
    29    30     1
SMALL
NO_CHARGES


@<TRIPOS>ATOM
      1 C1         142.5170 125.7015 189.0796 C.3            1 RES1               0.0000
      2 C2         142.9280 124.3792 188.4003 C.ar           1 RES1               0.0000
      3 C3         142.3476 126.7239 187.9596 C.2            1 RES1               0.0000
      4 C4         141.2353 125.4048 189.8502 C.2            1 RES1               0.0000
      5 C5         143.5636 126.2404 190.0824 C.3            1 RES1               0.0000
      6 C6         144.1981 124.2293 187.8517 C.ar           1 RES1               0.0000
      7 C7         142.0504 123.3015 188.3171 C.ar           1 RES1               0.0000
      8 N8         141.0770 127.0872 187.6227 N.am           1 RES1               0.0000
      9 O9         143.3124 127.1748 187.3546 O.2            1 RES1               0.0000
     10 N10        140.0828 126.0237 189.4421 N.am           1 RES1               0.0000
     11 O11        141.2098 124.6279 190.7968 O.2            1 RES1               0.0000
     12 C12        143.1039 127.4728 190.8454 C.3            1 RES1               0.0000
     13 C13        144.5783 123.0439 187.2445 C.ar           1 RES1               0.0000
     14 C14        142.4326 122.1170 187.7092 C.ar           1 RES1               0.0000
     15 C15        139.9396 126.8277 188.3443 C.2            1 RES1               0.0000
     16 C16        143.6961 121.9870 187.1732 C.ar           1 RES1               0.0000
     17 O17        138.8585 127.3040 188.0103 O.2            1 RES1               0.0000
     18 H18        143.8033 125.4483 190.8025 H              1 RES1               0.0000
     19 H19        144.4826 126.4860 189.5359 H              1 RES1               0.0000
     20 H20        144.9051 125.0510 187.8961 H              1 RES1               0.0000
     21 H21        141.0509 123.3815 188.7309 H              1 RES1               0.0000
     22 H22        140.9619 127.5992 186.7538 H              1 RES1               0.0000
     23 H23        139.2551 125.8711 190.0094 H              1 RES1               0.0000
     24 H24        143.8752 127.8095 191.5350 H              1 RES1               0.0000
     25 H25        142.8810 128.2890 190.1615 H              1 RES1               0.0000
     26 H26        142.2057 127.2575 191.4205 H              1 RES1               0.0000
     27 H27        145.5734 122.9472 186.8230 H              1 RES1               0.0000
     28 H28        141.7348 121.2879 187.6549 H              1 RES1               0.0000
     29 H29        143.9943 121.0584 186.6979 H              1 RES1               0.0000
@<TRIPOS>BOND
    1    1    2 1     
    2    1    3 1     
    3    1    4 1     
    4    1    5 1     
    5    2    6 ar    
    6    2    7 ar    
    7    3    8 1     
    8    3    9 2     
    9    4   10 1     
   10    4   11 2     
   11    5   12 1     
   12    5   18 1     
   13    5   19 1     
   14    6   13 ar    
   15    6   20 1     
   16    7   14 ar    
   17    7   21 1     
   18    8   15 1     
   19    8   22 1     
   20   10   15 1     
   21   10   23 1     
   22   12   24 1     
   23   12   25 1     
   24   12   26 1     
   25   13   16 ar    
   26   13   27 1     
   27   14   16 ar    
   28   14   28 1     
   29   15   17 2     
   30   16   29 1     
@<TRIPOS>SUBSTRUCTURE
      1 RES1           1
@<TRIPOS>SET
DONOR_HYDROGENS      STATIC     ATOMS    <user>   **** ""
2 22 23
ATOM$RED        STATIC     ATOMS    COLORGROUP SYSTEM
2 22 23
@<TRIPOS>COMMENT
> <Gold.Version>
2022.3.0

> <Gold.Id.Protein>
unknown|7rmh_cavity_clean|pdb

> <Gold.Protein.RotatedTorsions>
[ 10359 10350 10349 10347 ] final  -24.08 input   59.97 | X-H torsion
[ 10338 10331 10329 10326 ] final  -86.46 input   60.01 | X-H torsion
[ 10390 10381 10380 10378 ] final  -55.02 input   59.98 | X-H torsion

> <Gold.Protein.ActiveResidues>
 ARG228  GLU230  ARG232  MET188  LEU190  ALA208  THR114  TYR115  ALA116  TYR117 
 ARG118  GLY119  GLN120 

> <Gold.Protein.RotatedAtoms>
  147.0054  128.1111  186.4160 H   0  0  0  0  0  0  0  0  0  0  0  0  # atno 10338 bound_to 10331
  136.7708  129.4347  178.5598 H   0  0  0  0  0  0  0  0  0  0  0  0  # atno 10359 bound_to 10350
  135.3740  135.9601  180.5353 H   0  0  0  0  0  0  0  0  0  0  0  0  # atno 10390 bound_to 10381
  135.6702  128.7002  179.5078 LP  0  0  0  0  0  0  0  0  0  0  0  0  # atno 14710 bound_to 10350
  136.4305  127.8593  178.3324 LP  0  0  0  0  0  0  0  0  0  0  0  0  # atno 14711 bound_to 10350
  147.9494  128.6906  185.2242 LP  0  0  0  0  0  0  0  0  0  0  0  0  # atno 14728 bound_to 10331
  147.2226  127.2374  185.0607 LP  0  0  0  0  0  0  0  0  0  0  0  0  # atno 14729 bound_to 10331
  136.6137  135.4278  179.6257 LP  0  0  0  0  0  0  0  0  0  0  0  0  # atno 14732 bound_to 10381
  136.8752  135.9170  181.1616 LP  0  0  0  0  0  0  0  0  0  0  0  0  # atno 14733 bound_to 10381

> <Gold.Score>
     Fitness  S(hb_ext) S(vdw_ext)  S(hb_int)    S(int)      intcor
     27.88       1.73      20.16       0.00      -1.56      -0.78

> <Gold.Goldscore.Fitness>
27.8835

> <Gold.Goldscore.Internal.Vdw>
-1.9320

> <Gold.Goldscore.Internal.Torsion>
-0.4098

> <Gold.Goldscore.External.Vdw>
20.1559

> <Gold.Goldscore.Internal.HBond>
0.0000

> <Gold.Goldscore.External.HBond>
1.7272

> <Gold.Goldscore.Internal.Correction>
-0.7838

> <Gold.Goldscore.Hbonds>
donor molecule, donor type, donor heavy atom, donor atom, acceptor molecule, acceptor atom, score
      P1  H 10339 10351       L1     9  0.02
      L1  H     8    22       P1 10342  0.81
      L1  H    10    23       P1 10418  0.03

> <Gold.Goldscore.Internal.Vdw.Weighted>
-1.9320

> <Gold.Goldscore.Internal.Torsion.Weighted>
-0.4098

> <Gold.Goldscore.External.Vdw.Weighted>
27.7144

> <Gold.Goldscore.Internal.HBond.Weighted>
0.0000

> <Gold.Goldscore.External.HBond.Weighted>
1.7272

> <Gold.Goldscore.Internal.Correction.Weighted>
-0.7838

> <Gold.Rescore>
     Score     S(PLP)   S(hbond)     S(cho)   S(metal)  DE(clash)   DE(tors)     intcor
     19.94     -19.86       0.96       0.00       0.00       0.00       1.40       ----

> <Gold.PLP.Fitness>
19.9362

> <Gold.PLP.PLP>
-19.8613

> <Gold.PLP.part.hbond>
-1.0000

> <Gold.PLP.part.metal>
0.0000

> <Gold.PLP.part.buried>
-4.8232

> <Gold.PLP.part.nonpolar>
-16.5069

> <Gold.PLP.part.repulsive>
2.0225

> <Gold.PLP.ligand.clash>
0.0000

> <Gold.PLP.ligand.torsion>
1.4026

> <Gold.PLP.Chemscore.Hbond>
0.9600

> <Gold.PLP.Chemscore.CHOScore>
0.0000

> <Gold.PLP.Chemscore.Metal>
0.0000

> <Gold.Chemscore.Hbonds>
donor molecule, donor type, donor heavy atom, donor atom, acceptor molecule, acceptor atom, score
      L1  H     8    22       P1 10342  1.00

> <Gold.PLP.Chemscore.Internal.Correction>
   9.000000E+99

