#       Name:                CT1002167954
#       Creating user name   hitesit
#       Creation time:       Sun Apr 16 02:21:25 2023


#       File generated by GOLD software.
#

@<TRIPOS>MOLECULE
CT1002167954|ligand_prepared|mol2|1|dock4
    29    30     1
SMALL
NO_CHARGES


@<TRIPOS>ATOM
      1 C1          -9.4359  -1.1006 -17.2178 C.3            1 RES1               0.0000
      2 C2          -8.6554  -2.0632 -16.2997 C.ar           1 RES1               0.0000
      3 C3         -10.6180  -1.8949 -17.7655 C.2            1 RES1               0.0000
      4 C4          -9.8338   0.0881 -16.3498 C.2            1 RES1               0.0000
      5 C5          -8.6088  -0.5658 -18.4100 C.3            1 RES1               0.0000
      6 C6          -9.1141  -2.3471 -15.0169 C.ar           1 RES1               0.0000
      7 C7          -7.4786  -2.6760 -16.7219 C.ar           1 RES1               0.0000
      8 N8         -11.8546  -1.6148 -17.2632 N.am           1 RES1               0.0000
      9 O9         -10.4623  -2.7809 -18.5967 O.2            1 RES1               0.0000
     10 N10        -11.1678   0.2897 -16.1096 N.am           1 RES1               0.0000
     11 O11         -9.0033   0.8421 -15.8580 O.2            1 RES1               0.0000
     12 C12         -9.2822   0.5709 -19.1627 C.3            1 RES1               0.0000
     13 C13         -8.4231  -3.2144 -14.1871 C.ar           1 RES1               0.0000
     14 C14         -6.7890  -3.5429 -15.8904 C.ar           1 RES1               0.0000
     15 C15        -12.1943  -0.5256 -16.5016 C.2            1 RES1               0.0000
     16 C16         -7.2605  -3.8132 -14.6233 C.ar           1 RES1               0.0000
     17 O17        -13.3641  -0.3069 -16.2004 O.2            1 RES1               0.0000
     18 H18         -7.6379  -0.2165 -18.0377 H              1 RES1               0.0000
     19 H19         -8.4228  -1.3907 -19.1090 H              1 RES1               0.0000
     20 H20        -10.0259  -1.8834 -14.6554 H              1 RES1               0.0000
     21 H21         -7.0883  -2.4774 -17.7143 H              1 RES1               0.0000
     22 H22        -12.5952  -2.2763 -17.4732 H              1 RES1               0.0000
     23 H23        -11.4188   1.1252 -15.5905 H              1 RES1               0.0000
     24 H24         -8.6599   0.9085 -19.9888 H              1 RES1               0.0000
     25 H25        -10.2397   0.2510 -19.5684 H              1 RES1               0.0000
     26 H26         -9.4594   1.4183 -18.5035 H              1 RES1               0.0000
     27 H27         -8.7977  -3.4228 -13.1903 H              1 RES1               0.0000
     28 H28         -5.8740  -4.0115 -16.2376 H              1 RES1               0.0000
     29 H29         -6.7195  -4.4929 -13.9732 H              1 RES1               0.0000
@<TRIPOS>BOND
    1    1    2 1     
    2    1    3 1     
    3    1    4 1     
    4    1    5 1     
    5    2    6 ar    
    6    2    7 ar    
    7    3    8 1     
    8    3    9 2     
    9    4   10 1     
   10    4   11 2     
   11    5   12 1     
   12    5   18 1     
   13    5   19 1     
   14    6   13 ar    
   15    6   20 1     
   16    7   14 ar    
   17    7   21 1     
   18    8   15 1     
   19    8   22 1     
   20   10   15 1     
   21   10   23 1     
   22   12   24 1     
   23   12   25 1     
   24   12   26 1     
   25   13   16 ar    
   26   13   27 1     
   27   14   16 ar    
   28   14   28 1     
   29   15   17 2     
   30   16   29 1     
@<TRIPOS>SUBSTRUCTURE
      1 RES1           1
@<TRIPOS>SET
DONOR_HYDROGENS      STATIC     ATOMS    <user>   **** ""
2 22 23
ATOM$RED        STATIC     ATOMS    COLORGROUP SYSTEM
2 22 23
@<TRIPOS>COMMENT
> <Gold.Version>
2022.3.0

> <Gold.Id.Protein>
unknown|5kcv_clean|pdb

> <Gold.Protein.RotatedTorsions>
[ 1057 1050 1048 1045 ] final  -21.12 input   59.97 | X-H torsion
[ 1068 1064 1062 1059 ] final -120.13 input   59.98 | X-H torsion
[ 3125 3116 3115 3113 ] final   -0.03 input   60.00 | X-H torsion
[  214  208  207  205 ] final  -67.75 input   59.97 | X-H torsion
[ 3719 3710 3709 3707 ] final  111.07 input   60.02 | X-H torsion
[ 2078 2074 2073 2070 ] final  104.83 input   59.98 | X-H torsion
[ 2173 2166 2164 2161 ] final -113.58 input   59.98 | X-H torsion
[ 3437 3430 3428 3425 ] final   55.62 input   60.02 | X-H torsion
[ 3056 3045 3044 3043 ] final  105.59 input   59.99 | X-H torsion
[  673  670  669  666 ] final   99.79 input   60.01 | X-H torsion
[ 3200 3189 3188 3187 ] final -164.81 input   60.01 | X-H torsion

> <Gold.Protein.ActiveResidues>
 TYR18   LEU52   ASN53   ASN54   PHE55   SER56   ALA58   GLN59   CYS60   CYS77  
 LEU78   GLN79   TRP80   THR81   THR82   VAL83   ILE84   LYS179  LEU202  GLN203 
 ASN204  SER205  HIS207  PHE209  LEU210  THR211  ALA212  LEU213  MET227  GLU228 
 ALA260  LEU261  TYR263  LEU264  HIS265  LYS268  ASN269  VAL270  VAL271  TYR272 
 ARG273  ASP274  LEU275  LYS276  ASN279  LEU280  LYS289  ILE290  THR291  ASP292 
 PHE293  GLY294  LEU295  CYS296  TYR326  VAL330  ASP331 

> <Gold.Protein.RotatedAtoms>
  -19.1170    7.0191  -17.2759 H   0  0  0  0  0  0  0  0  0  0  0  0  # atno 214  bound_to 208 
   -6.1526    6.2077  -29.8330 H   0  0  0  0  0  0  0  0  0  0  0  0  # atno 673  bound_to 670 
  -11.8824   -5.6786  -18.8124 H   0  0  0  0  0  0  0  0  0  0  0  0  # atno 1057 bound_to 1050
  -14.5578   -3.1828  -18.1370 H   0  0  0  0  0  0  0  0  0  0  0  0  # atno 1068 bound_to 1064
   -2.1634   -2.5348  -16.1821 H   0  0  0  0  0  0  0  0  0  0  0  0  # atno 2078 bound_to 2074
   -9.3282   -7.9130  -10.3877 H   0  0  0  0  0  0  0  0  0  0  0  0  # atno 2173 bound_to 2166
    2.2043   -1.5922  -18.5848 H   0  0  0  0  0  0  0  0  0  0  0  0  # atno 3056 bound_to 3045
    1.1981   -2.6553  -19.3605 H   0  0  0  0  0  0  0  0  0  0  0  0  # atno 3057 bound_to 3045
    1.4948   -1.1643  -20.0193 H   0  0  0  0  0  0  0  0  0  0  0  0  # atno 3058 bound_to 3045
  -12.6918   -1.7305  -11.4476 H   0  0  0  0  0  0  0  0  0  0  0  0  # atno 3125 bound_to 3116
  -20.1307    2.1248  -10.7949 H   0  0  0  0  0  0  0  0  0  0  0  0  # atno 3200 bound_to 3189
  -20.6706    2.9220   -9.4471 H   0  0  0  0  0  0  0  0  0  0  0  0  # atno 3201 bound_to 3189
  -19.1504    3.2210  -10.0322 H   0  0  0  0  0  0  0  0  0  0  0  0  # atno 3202 bound_to 3189
  -12.7565   -5.9806   -7.7912 H   0  0  0  0  0  0  0  0  0  0  0  0  # atno 3437 bound_to 3430
  -15.0169    8.5414  -19.5882 H   0  0  0  0  0  0  0  0  0  0  0  0  # atno 3719 bound_to 3710
  -11.3323   -6.9297  -17.9295 LP  0  0  0  0  0  0  0  0  0  0  0  0  # atno 5458 bound_to 1050
  -12.8586   -6.9448  -18.5100 LP  0  0  0  0  0  0  0  0  0  0  0  0  # atno 5459 bound_to 1050
  -12.9929   -2.9508  -18.5174 LP  0  0  0  0  0  0  0  0  0  0  0  0  # atno 5462 bound_to 1064
  -13.7442   -4.3354  -18.9476 LP  0  0  0  0  0  0  0  0  0  0  0  0  # atno 5463 bound_to 1064
  -13.8151   -0.6939  -10.8892 LP  0  0  0  0  0  0  0  0  0  0  0  0  # atno 5468 bound_to 3116
  -12.5859   -1.1679   -9.9242 LP  0  0  0  0  0  0  0  0  0  0  0  0  # atno 5469 bound_to 3116
  -19.2961    6.4734  -15.7533 LP  0  0  0  0  0  0  0  0  0  0  0  0  # atno 5492 bound_to 208 
  -18.6620    7.9537  -16.0238 LP  0  0  0  0  0  0  0  0  0  0  0  0  # atno 5493 bound_to 208 
  -13.3936    8.4350  -19.6355 LP  0  0  0  0  0  0  0  0  0  0  0  0  # atno 5498 bound_to 3710
  -14.2028    9.1624  -20.8532 LP  0  0  0  0  0  0  0  0  0  0  0  0  # atno 5499 bound_to 3710
   -0.6446   -2.1621  -16.6320 LP  0  0  0  0  0  0  0  0  0  0  0  0  # atno 5502 bound_to 2074
   -1.3379   -1.3913  -15.3703 LP  0  0  0  0  0  0  0  0  0  0  0  0  # atno 5503 bound_to 2074
   -9.4628   -6.3045  -10.5943 LP  0  0  0  0  0  0  0  0  0  0  0  0  # atno 5522 bound_to 2166
   -8.1569   -6.9269   -9.8368 LP  0  0  0  0  0  0  0  0  0  0  0  0  # atno 5523 bound_to 2166
  -13.4526   -6.7517   -9.0440 LP  0  0  0  0  0  0  0  0  0  0  0  0  # atno 5532 bound_to 3430
  -14.3665   -5.8818   -8.0073 LP  0  0  0  0  0  0  0  0  0  0  0  0  # atno 5533 bound_to 3430
   -7.6703    5.6424  -29.9912 LP  0  0  0  0  0  0  0  0  0  0  0  0  # atno 5564 bound_to 670 
   -6.5261    4.7273  -29.2701 LP  0  0  0  0  0  0  0  0  0  0  0  0  # atno 5565 bound_to 670 

> <Gold.Score>
     Fitness  S(hb_ext) S(vdw_ext)  S(hb_int)    S(int)      intcor
     36.30       3.14      24.19       0.00      -0.10      -0.76

> <Gold.Goldscore.Fitness>
36.3011

> <Gold.Goldscore.Internal.Vdw>
-0.3139

> <Gold.Goldscore.Internal.Torsion>
-0.5449

> <Gold.Goldscore.External.Vdw>
24.1928

> <Gold.Goldscore.Internal.HBond>
0.0000

> <Gold.Goldscore.External.HBond>
3.1363

> <Gold.Goldscore.Internal.Correction>
-0.7585

> <Gold.Goldscore.Hbonds>
donor molecule, donor type, donor heavy atom, donor atom, acceptor molecule, acceptor atom, score
      P1  H  1044  1056       L1     9  0.65
      L1  H     8    22       P1  1064  0.47
      L1  H    10    23       P1  3108  0.45

> <Gold.Goldscore.Internal.Vdw.Weighted>
-0.3139

> <Gold.Goldscore.Internal.Torsion.Weighted>
-0.5449

> <Gold.Goldscore.External.Vdw.Weighted>
33.2651

> <Gold.Goldscore.Internal.HBond.Weighted>
0.0000

> <Gold.Goldscore.External.HBond.Weighted>
3.1363

> <Gold.Goldscore.Internal.Correction.Weighted>
-0.7585

> <Gold.Rescore>
     Score     S(PLP)   S(hbond)     S(cho)   S(metal)  DE(clash)   DE(tors)     intcor
     38.86     -36.49       0.88       0.00       0.00       0.00       0.13       ----

> <Gold.PLP.Fitness>
38.8580

> <Gold.PLP.PLP>
-36.4907

> <Gold.PLP.part.hbond>
-1.4812

> <Gold.PLP.part.metal>
0.0000

> <Gold.PLP.part.buried>
-6.3975

> <Gold.PLP.part.nonpolar>
-30.3647

> <Gold.PLP.part.repulsive>
1.6361

> <Gold.PLP.ligand.clash>
0.0000

> <Gold.PLP.ligand.torsion>
0.1326

> <Gold.PLP.Chemscore.Hbond>
0.8775

> <Gold.PLP.Chemscore.CHOScore>
0.0000

> <Gold.PLP.Chemscore.Metal>
0.0000

> <Gold.Chemscore.Hbonds>
donor molecule, donor type, donor heavy atom, donor atom, acceptor molecule, acceptor atom, score
      L1  H     8    22       P1  1064  0.18

> <Gold.PLP.Chemscore.Internal.Correction>
   9.000000E+99

