#       Name:                CT1002167954
#       Creating user name   hitesit
#       Creation time:       Sun Apr 16 02:21:22 2023


#       File generated by GOLD software.
#

@<TRIPOS>MOLECULE
CT1002167954|ligand_prepared|mol2|1|dock2
    29    30     1
SMALL
NO_CHARGES


@<TRIPOS>ATOM
      1 C1          -9.7414  -0.8360 -17.4257 C.3            1 RES1               0.0000
      2 C2          -8.9693  -1.8380 -16.5434 C.ar           1 RES1               0.0000
      3 C3         -10.9485  -1.5905 -17.9752 C.2            1 RES1               0.0000
      4 C4         -10.1005   0.3389 -16.5227 C.2            1 RES1               0.0000
      5 C5          -8.9199  -0.2897 -18.6165 C.3            1 RES1               0.0000
      6 C6          -9.4310  -2.1650 -15.2719 C.ar           1 RES1               0.0000
      7 C7          -7.7973  -2.4445 -16.9875 C.ar           1 RES1               0.0000
      8 N8         -12.1713  -1.2962 -17.4477 N.am           1 RES1               0.0000
      9 O9         -10.8243  -2.4586 -18.8303 O.2            1 RES1               0.0000
     10 N10        -11.4261   0.5635 -16.2578 N.am           1 RES1               0.0000
     11 O11         -9.2465   1.0623 -16.0249 O.2            1 RES1               0.0000
     12 C12         -9.6024   0.8459 -19.3627 C.3            1 RES1               0.0000
     13 C13         -8.7475  -3.0678 -14.4744 C.ar           1 RES1               0.0000
     14 C14         -7.1152  -3.3469 -16.1882 C.ar           1 RES1               0.0000
     15 C15        -12.4758  -0.2194 -16.6545 C.2            1 RES1               0.0000
     16 C16         -7.5895  -3.6597 -14.9321 C.ar           1 RES1               0.0000
     17 O17        -13.6361   0.0172 -16.3306 O.2            1 RES1               0.0000
     18 H18         -7.9509   0.0647 -18.2440 H              1 RES1               0.0000
     19 H19         -8.7292  -1.1098 -19.3197 H              1 RES1               0.0000
     20 H20        -10.3391  -1.7075 -14.8938 H              1 RES1               0.0000
     21 H21         -7.4049  -2.2127 -17.9718 H              1 RES1               0.0000
     22 H22        -12.9293  -1.9361 -17.6630 H              1 RES1               0.0000
     23 H23        -11.6511   1.3909 -15.7146 H              1 RES1               0.0000
     24 H24         -8.9838   1.1919 -20.1881 H              1 RES1               0.0000
     25 H25        -10.5583   0.5213 -19.7686 H              1 RES1               0.0000
     26 H26         -9.7846   1.6888 -18.6992 H              1 RES1               0.0000
     27 H27         -9.1242  -3.3096 -13.4860 H              1 RES1               0.0000
     28 H28         -6.2039  -3.8099 -16.5522 H              1 RES1               0.0000
     29 H29         -7.0545  -4.3672 -14.3072 H              1 RES1               0.0000
@<TRIPOS>BOND
    1    1    2 1     
    2    1    3 1     
    3    1    4 1     
    4    1    5 1     
    5    2    6 ar    
    6    2    7 ar    
    7    3    8 1     
    8    3    9 2     
    9    4   10 1     
   10    4   11 2     
   11    5   12 1     
   12    5   18 1     
   13    5   19 1     
   14    6   13 ar    
   15    6   20 1     
   16    7   14 ar    
   17    7   21 1     
   18    8   15 1     
   19    8   22 1     
   20   10   15 1     
   21   10   23 1     
   22   12   24 1     
   23   12   25 1     
   24   12   26 1     
   25   13   16 ar    
   26   13   27 1     
   27   14   16 ar    
   28   14   28 1     
   29   15   17 2     
   30   16   29 1     
@<TRIPOS>SUBSTRUCTURE
      1 RES1           1
@<TRIPOS>SET
DONOR_HYDROGENS      STATIC     ATOMS    <user>   **** ""
2 22 23
ATOM$RED        STATIC     ATOMS    COLORGROUP SYSTEM
2 22 23
@<TRIPOS>COMMENT
> <Gold.Version>
2022.3.0

> <Gold.Id.Protein>
unknown|5kcv_clean|pdb

> <Gold.Protein.RotatedTorsions>
[ 1057 1050 1048 1045 ] final  -47.59 input   59.97 | X-H torsion
[ 1068 1064 1062 1059 ] final  -93.63 input   59.98 | X-H torsion
[ 3125 3116 3115 3113 ] final  -19.54 input   60.00 | X-H torsion
[  214  208  207  205 ] final  -58.80 input   59.97 | X-H torsion
[ 3719 3710 3709 3707 ] final -111.74 input   60.02 | X-H torsion
[ 2078 2074 2073 2070 ] final -108.53 input   59.98 | X-H torsion
[ 2173 2166 2164 2161 ] final   82.98 input   59.98 | X-H torsion
[ 3437 3430 3428 3425 ] final  177.73 input   60.02 | X-H torsion
[ 3056 3045 3044 3043 ] final -162.27 input   59.99 | X-H torsion
[  673  670  669  666 ] final -152.26 input   60.01 | X-H torsion
[ 3200 3189 3188 3187 ] final  166.35 input   60.01 | X-H torsion

> <Gold.Protein.ActiveResidues>
 TYR18   LEU52   ASN53   ASN54   PHE55   SER56   ALA58   GLN59   CYS60   CYS77  
 LEU78   GLN79   TRP80   THR81   THR82   VAL83   ILE84   LYS179  LEU202  GLN203 
 ASN204  SER205  HIS207  PHE209  LEU210  THR211  ALA212  LEU213  MET227  GLU228 
 ALA260  LEU261  TYR263  LEU264  HIS265  LYS268  ASN269  VAL270  VAL271  TYR272 
 ARG273  ASP274  LEU275  LYS276  ASN279  LEU280  LYS289  ILE290  THR291  ASP292 
 PHE293  GLY294  LEU295  CYS296  TYR326  VAL330  ASP331 

> <Gold.Protein.RotatedAtoms>
  -19.0593    7.1528  -17.2888 H   0  0  0  0  0  0  0  0  0  0  0  0  # atno 214  bound_to 208 
   -6.3518    4.8196  -29.2617 H   0  0  0  0  0  0  0  0  0  0  0  0  # atno 673  bound_to 670 
  -11.5073   -5.7626  -18.6229 H   0  0  0  0  0  0  0  0  0  0  0  0  # atno 1057 bound_to 1050
  -14.6669   -3.5691  -18.2888 H   0  0  0  0  0  0  0  0  0  0  0  0  # atno 1068 bound_to 1064
   -0.9504   -1.3682  -15.5618 H   0  0  0  0  0  0  0  0  0  0  0  0  # atno 2078 bound_to 2074
   -8.8645   -6.1216  -10.2905 H   0  0  0  0  0  0  0  0  0  0  0  0  # atno 2173 bound_to 2166
    1.4401   -2.6722  -18.9690 H   0  0  0  0  0  0  0  0  0  0  0  0  # atno 3056 bound_to 3045
    1.2395   -1.5256  -20.1478 H   0  0  0  0  0  0  0  0  0  0  0  0  # atno 3057 bound_to 3045
    2.2178   -1.2145  -18.8473 H   0  0  0  0  0  0  0  0  0  0  0  0  # atno 3058 bound_to 3045
  -12.9465   -1.6092  -11.5926 H   0  0  0  0  0  0  0  0  0  0  0  0  # atno 3125 bound_to 3116
  -19.6891    2.2863  -10.8707 H   0  0  0  0  0  0  0  0  0  0  0  0  # atno 3200 bound_to 3189
  -20.8585    2.5962   -9.7393 H   0  0  0  0  0  0  0  0  0  0  0  0  # atno 3201 bound_to 3189
  -19.4043    3.3852   -9.6642 H   0  0  0  0  0  0  0  0  0  0  0  0  # atno 3202 bound_to 3189
  -14.3746   -5.8988   -8.0369 H   0  0  0  0  0  0  0  0  0  0  0  0  # atno 3437 bound_to 3430
  -13.9268    9.1235  -20.8182 H   0  0  0  0  0  0  0  0  0  0  0  0  # atno 3719 bound_to 3710
  -11.6562   -7.2139  -17.9025 LP  0  0  0  0  0  0  0  0  0  0  0  0  # atno 5458 bound_to 1050
  -12.9126   -6.5760  -18.7279 LP  0  0  0  0  0  0  0  0  0  0  0  0  # atno 5459 bound_to 1050
  -13.2850   -2.7102  -18.3087 LP  0  0  0  0  0  0  0  0  0  0  0  0  # atno 5462 bound_to 1064
  -13.3421   -4.1870  -19.0034 LP  0  0  0  0  0  0  0  0  0  0  0  0  # atno 5463 bound_to 1064
  -13.7499   -0.6133  -10.5870 LP  0  0  0  0  0  0  0  0  0  0  0  0  # atno 5468 bound_to 3116
  -12.3948   -1.3707  -10.0803 LP  0  0  0  0  0  0  0  0  0  0  0  0  # atno 5469 bound_to 3116
  -19.3335    6.3975  -15.8737 LP  0  0  0  0  0  0  0  0  0  0  0  0  # atno 5492 bound_to 208 
  -18.6827    7.8950  -15.8904 LP  0  0  0  0  0  0  0  0  0  0  0  0  # atno 5493 bound_to 208 
  -15.1243    8.6704  -19.8134 LP  0  0  0  0  0  0  0  0  0  0  0  0  # atno 5498 bound_to 3710
  -13.5699    8.3409  -19.4366 LP  0  0  0  0  0  0  0  0  0  0  0  0  # atno 5499 bound_to 3710
   -2.2657   -2.2837  -15.8447 LP  0  0  0  0  0  0  0  0  0  0  0  0  # atno 5502 bound_to 2074
   -0.9384   -2.4447  -16.7822 LP  0  0  0  0  0  0  0  0  0  0  0  0  # atno 5503 bound_to 2074
   -8.3315   -7.6014   -9.8734 LP  0  0  0  0  0  0  0  0  0  0  0  0  # atno 5522 bound_to 2166
   -9.7550   -7.4337  -10.6556 LP  0  0  0  0  0  0  0  0  0  0  0  0  # atno 5523 bound_to 2166
  -12.7713   -5.9624   -7.7650 LP  0  0  0  0  0  0  0  0  0  0  0  0  # atno 5532 bound_to 3430
  -13.4183   -6.7534   -9.0387 LP  0  0  0  0  0  0  0  0  0  0  0  0  # atno 5533 bound_to 3430
   -6.2994    6.3067  -29.9201 LP  0  0  0  0  0  0  0  0  0  0  0  0  # atno 5564 bound_to 670 
   -7.6963    5.4610  -29.9165 LP  0  0  0  0  0  0  0  0  0  0  0  0  # atno 5565 bound_to 670 

> <Gold.Score>
     Fitness  S(hb_ext) S(vdw_ext)  S(hb_int)    S(int)      intcor
     36.33       3.11      24.19       0.00      -0.04      -0.76

> <Gold.Goldscore.Fitness>
36.3331

> <Gold.Goldscore.Internal.Vdw>
-0.3144

> <Gold.Goldscore.Internal.Torsion>
-0.4814

> <Gold.Goldscore.External.Vdw>
24.1851

> <Gold.Goldscore.Internal.HBond>
0.0000

> <Gold.Goldscore.External.HBond>
3.1149

> <Gold.Goldscore.Internal.Correction>
-0.7593

> <Gold.Goldscore.Hbonds>
donor molecule, donor type, donor heavy atom, donor atom, acceptor molecule, acceptor atom, score
      P1  H  1050  1057       L1     9  0.05
      P1  H  1044  1056       L1     9  0.31
      L1  H     8    22       P1  1064  0.52
      L1  H    10    23       P1  3108  0.68

> <Gold.Goldscore.Internal.Vdw.Weighted>
-0.3144

> <Gold.Goldscore.Internal.Torsion.Weighted>
-0.4814

> <Gold.Goldscore.External.Vdw.Weighted>
33.2546

> <Gold.Goldscore.Internal.HBond.Weighted>
0.0000

> <Gold.Goldscore.External.HBond.Weighted>
3.1149

> <Gold.Goldscore.Internal.Correction.Weighted>
-0.7593

> <Gold.Rescore>
     Score     S(PLP)   S(hbond)     S(cho)   S(metal)  DE(clash)   DE(tors)     intcor
     39.06     -36.43       0.99       0.00       0.00       0.00       0.17       ----

> <Gold.PLP.Fitness>
39.0601

> <Gold.PLP.PLP>
-36.4334

> <Gold.PLP.part.hbond>
-1.5437

> <Gold.PLP.part.metal>
0.0000

> <Gold.PLP.part.buried>
-6.4395

> <Gold.PLP.part.nonpolar>
-30.3296

> <Gold.PLP.part.repulsive>
1.5143

> <Gold.PLP.ligand.clash>
0.0000

> <Gold.PLP.ligand.torsion>
0.1735

> <Gold.PLP.Chemscore.Hbond>
0.9913

> <Gold.PLP.Chemscore.CHOScore>
0.0000

> <Gold.PLP.Chemscore.Metal>
0.0000

> <Gold.Chemscore.Hbonds>
donor molecule, donor type, donor heavy atom, donor atom, acceptor molecule, acceptor atom, score
      L1  H     8    22       P1  1064  1.00

> <Gold.PLP.Chemscore.Internal.Correction>
   9.000000E+99

