#       Name:                CT1002167954
#       Creating user name   hitesit
#       Creation time:       Sun Apr 16 20:22:38 2023


#       File generated by GOLD software.
#

@<TRIPOS>MOLECULE
CT1002167954|ligand_prepared|mol2|1|dock6
    29    30     1
SMALL
NO_CHARGES


@<TRIPOS>ATOM
      1 C1         134.9316 131.6056 130.0451 C.3            1 RES1               0.0000
      2 C2         136.2518 131.0423 130.6096 C.ar           1 RES1               0.0000
      3 C3         134.3275 130.5000 129.1843 C.2            1 RES1               0.0000
      4 C4         134.0815 131.9899 131.2511 C.2            1 RES1               0.0000
      5 C5         135.1145 132.8663 129.1683 C.3            1 RES1               0.0000
      6 C6         137.2403 131.8976 131.0872 C.ar           1 RES1               0.0000
      7 C7         136.4940 129.6722 130.6618 C.ar           1 RES1               0.0000
      8 N8         133.2454 129.8338 129.6795 N.am           1 RES1               0.0000
      9 O9         134.8172 130.1909 128.1050 O.2            1 RES1               0.0000
     10 N10        132.9223 131.2921 131.4680 N.am           1 RES1               0.0000
     11 O11        134.4134 132.8795 132.0248 O.2            1 RES1               0.0000
     12 C12        135.5612 134.0943 129.9458 C.3            1 RES1               0.0000
     13 C13        138.4269 131.4011 131.6010 C.ar           1 RES1               0.0000
     14 C14        137.6814 129.1778 131.1758 C.ar           1 RES1               0.0000
     15 C15        132.4813 130.2111 130.7544 C.2            1 RES1               0.0000
     16 C16        138.6480 130.0411 131.6461 C.ar           1 RES1               0.0000
     17 O17        131.4557 129.6017 131.0440 O.2            1 RES1               0.0000
     18 H18        135.8578 132.6509 128.3908 H              1 RES1               0.0000
     19 H19        134.1634 133.0907 128.6699 H              1 RES1               0.0000
     20 H20        137.0852 132.9709 131.0576 H              1 RES1               0.0000
     21 H21        135.7482 128.9744 130.2964 H              1 RES1               0.0000
     22 H22        132.9798 128.9757 129.2068 H              1 RES1               0.0000
     23 H23        132.3335 131.6078 132.2322 H              1 RES1               0.0000
     24 H24        135.6743 134.9501 129.2835 H              1 RES1               0.0000
     25 H25        134.8325 134.3523 130.7114 H              1 RES1               0.0000
     26 H26        136.5169 133.9151 130.4341 H              1 RES1               0.0000
     27 H27        139.1850 132.0847 131.9686 H              1 RES1               0.0000
     28 H28        137.8514 128.1067 131.2087 H              1 RES1               0.0000
     29 H29        139.5774 129.6524 132.0490 H              1 RES1               0.0000
@<TRIPOS>BOND
    1    1    2 1     
    2    1    3 1     
    3    1    4 1     
    4    1    5 1     
    5    2    6 ar    
    6    2    7 ar    
    7    3    8 1     
    8    3    9 2     
    9    4   10 1     
   10    4   11 2     
   11    5   12 1     
   12    5   18 1     
   13    5   19 1     
   14    6   13 ar    
   15    6   20 1     
   16    7   14 ar    
   17    7   21 1     
   18    8   15 1     
   19    8   22 1     
   20   10   15 1     
   21   10   23 1     
   22   12   24 1     
   23   12   25 1     
   24   12   26 1     
   25   13   16 ar    
   26   13   27 1     
   27   14   16 ar    
   28   14   28 1     
   29   15   17 2     
   30   16   29 1     
@<TRIPOS>SUBSTRUCTURE
      1 RES1           1
@<TRIPOS>SET
DONOR_HYDROGENS      STATIC     ATOMS    <user>   **** ""
2 22 23
ATOM$RED        STATIC     ATOMS    COLORGROUP SYSTEM
2 22 23
@<TRIPOS>COMMENT
> <Gold.Version>
2022.3.0

> <Gold.Id.Protein>
unknown|7rmi_cavity_clean|pdb

> <Gold.Protein.RotatedTorsions>
[ 10320 10303 10304 10305 ] final    6.09 input  114.60 | X-H torsion
[ 10439 10432 10433 10434 ] final    1.94 input  118.28 | X-H torsion
[ 10523 10518 10517 10514 ] final  155.42 input   59.99 | X-H torsion
[ 12976 12967 12966 12964 ] final  -10.61 input   60.00 | X-H torsion
[ 11928 11921 11919 11916 ] final -123.23 input   60.00 | X-H torsion
[ 11130 11118 11119 11120 ] final  169.03 input  109.13 | X-H torsion
[ 11138 11129 11128 11126 ] final  150.86 input   60.00 | X-H torsion

> <Gold.Protein.ActiveResidues>
 ASN392  LEU393  ILE32   VAL41   SER46   TYR92   HIS95   TRP98   ALA133  ILE135 
 HIS136  LEU138  ARG141  THR145  TYR216  VAL219  LEU223  GLN239  VAL252  VAL254 
 CYS255  PHE257  ALA258  TRP261  LEU262  ILE266  MET299  PRO302  ILE303  CYS306 
 CYS307 

> <Gold.Protein.RotatedAtoms>
  110.1893  135.6458   99.0912 H   0  0  0  0  0  0  0  0  0  0  0  0  # atno 10320 bound_to 10303
  114.1662  136.2117  111.9134 H   0  0  0  0  0  0  0  0  0  0  0  0  # atno 10439 bound_to 10432
  122.7277  136.1840  116.7525 H   0  0  0  0  0  0  0  0  0  0  0  0  # atno 10523 bound_to 10518
  120.7164  145.0135  102.5760 H   0  0  0  0  0  0  0  0  0  0  0  0  # atno 11130 bound_to 11118
  126.9669  145.5086   96.5552 H   0  0  0  0  0  0  0  0  0  0  0  0  # atno 11138 bound_to 11129
  146.4006  145.3213  135.1975 H   0  0  0  0  0  0  0  0  0  0  0  0  # atno 11928 bound_to 11921
  135.0934  125.9878  125.1703 H   0  0  0  0  0  0  0  0  0  0  0  0  # atno 12976 bound_to 12967
  122.4187  136.0151  118.3410 LP  0  0  0  0  0  0  0  0  0  0  0  0  # atno 14321 bound_to 10518
  122.2653  137.4758  117.6271 LP  0  0  0  0  0  0  0  0  0  0  0  0  # atno 14322 bound_to 10518
  133.8037  125.7754  124.2015 LP  0  0  0  0  0  0  0  0  0  0  0  0  # atno 14343 bound_to 12967
  135.1214  126.5667  123.6500 LP  0  0  0  0  0  0  0  0  0  0  0  0  # atno 14344 bound_to 12967
  146.1824  144.0244  136.1559 LP  0  0  0  0  0  0  0  0  0  0  0  0  # atno 14347 bound_to 11921
  144.9262  144.6428  135.3155 LP  0  0  0  0  0  0  0  0  0  0  0  0  # atno 14348 bound_to 11921
  125.9144  146.6190   96.0006 LP  0  0  0  0  0  0  0  0  0  0  0  0  # atno 14359 bound_to 11129
  125.7606  145.0535   95.5623 LP  0  0  0  0  0  0  0  0  0  0  0  0  # atno 14360 bound_to 11129

> <Gold.Score>
     Fitness  S(hb_ext) S(vdw_ext)  S(hb_int)    S(int)      intcor
      0.97       0.64       9.18       0.00     -12.29      -0.76

> <Gold.Goldscore.Fitness>
0.9670

> <Gold.Goldscore.Internal.Vdw>
-11.4541

> <Gold.Goldscore.Internal.Torsion>
-1.6014

> <Gold.Goldscore.External.Vdw>
9.1787

> <Gold.Goldscore.Internal.HBond>
0.0000

> <Gold.Goldscore.External.HBond>
0.6367

> <Gold.Goldscore.Internal.Correction>
-0.7650

> <Gold.Goldscore.Hbonds>
donor molecule, donor type, donor heavy atom, donor atom, acceptor molecule, acceptor atom, score
      P1  H  3275  3282       L1    17  0.32

> <Gold.Goldscore.Internal.Vdw.Weighted>
-11.4541

> <Gold.Goldscore.Internal.Torsion.Weighted>
-1.6014

> <Gold.Goldscore.External.Vdw.Weighted>
12.6208

> <Gold.Goldscore.Internal.HBond.Weighted>
0.0000

> <Gold.Goldscore.External.HBond.Weighted>
0.6367

> <Gold.Goldscore.Internal.Correction.Weighted>
-0.7650

> <Gold.Rescore>
     Score     S(PLP)   S(hbond)     S(cho)   S(metal)  DE(clash)   DE(tors)     intcor
    -35.72      33.75       1.00       0.00       0.00       3.25       0.86       ----

> <Gold.PLP.Fitness>
-35.7165

> <Gold.PLP.PLP>
33.7537

> <Gold.PLP.part.hbond>
-3.4394

> <Gold.PLP.part.metal>
0.0000

> <Gold.PLP.part.buried>
33.5869

> <Gold.PLP.part.nonpolar>
-19.7398

> <Gold.PLP.part.repulsive>
22.2219

> <Gold.PLP.ligand.clash>
3.2477

> <Gold.PLP.ligand.torsion>
0.8575

> <Gold.PLP.Chemscore.Hbond>
1.0000

> <Gold.PLP.Chemscore.CHOScore>
0.0000

> <Gold.PLP.Chemscore.Metal>
0.0000

> <Gold.Chemscore.Hbonds>
donor molecule, donor type, donor heavy atom, donor atom, acceptor molecule, acceptor atom, score
      P1  H  3275  3282       L1    17  1.00

> <Gold.PLP.Chemscore.Internal.Correction>
   9.000000E+99

