#       Name:                CT1002167954
#       Creating user name   hitesit
#       Creation time:       Sun Apr 16 20:22:43 2023


#       File generated by GOLD software.
#

@<TRIPOS>MOLECULE
CT1002167954|ligand_prepared|mol2|1|dock9
    29    30     1
SMALL
NO_CHARGES


@<TRIPOS>ATOM
      1 C1         141.5968 129.6288 139.7382 C.3            1 RES1               0.0000
      2 C2         140.6666 129.0467 140.8220 C.ar           1 RES1               0.0000
      3 C3         142.8465 128.7533 139.7309 C.2            1 RES1               0.0000
      4 C4         140.8063 129.5957 138.4349 C.2            1 RES1               0.0000
      5 C5         142.0235 131.0918 140.0011 C.3            1 RES1               0.0000
      6 C6         141.1381 128.1001 141.7267 C.ar           1 RES1               0.0000
      7 C7         139.3377 129.4476 140.9312 C.ar           1 RES1               0.0000
      8 N8         143.0057 127.8881 138.6888 N.am           1 RES1               0.0000
      9 O9         143.6601 128.7933 140.6456 O.2            1 RES1               0.0000
     10 N10        141.2500 128.7696 137.4356 N.am           1 RES1               0.0000
     11 O11        139.7938 130.2650 138.2703 O.2            1 RES1               0.0000
     12 C12        140.8920 131.9820 140.4906 C.3            1 RES1               0.0000
     13 C13        140.3120 127.5756 142.7069 C.ar           1 RES1               0.0000
     14 C14        138.5132 128.9216 141.9120 C.ar           1 RES1               0.0000
     15 C15        142.2962 127.8913 137.5147 C.2            1 RES1               0.0000
     16 C16        138.9993 127.9862 142.8005 C.ar           1 RES1               0.0000
     17 O17        142.6009 127.1414 136.5917 O.2            1 RES1               0.0000
     18 H18        142.8256 131.0966 140.7495 H              1 RES1               0.0000
     19 H19        142.4284 131.5137 139.0730 H              1 RES1               0.0000
     20 H20        142.1676 127.7631 141.6670 H              1 RES1               0.0000
     21 H21        138.9334 130.1816 140.2423 H              1 RES1               0.0000
     22 H22        143.7180 127.1724 138.7920 H              1 RES1               0.0000
     23 H23        140.7545 128.8136 136.5508 H              1 RES1               0.0000
     24 H24        141.2453 132.9971 140.6594 H              1 RES1               0.0000
     25 H25        140.0875 132.0204 139.7591 H              1 RES1               0.0000
     26 H26        140.4823 131.6058 141.4257 H              1 RES1               0.0000
     27 H27        140.6991 126.8386 143.4028 H              1 RES1               0.0000
     28 H28        137.4806 129.2472 141.9815 H              1 RES1               0.0000
     29 H29        138.3525 127.5754 143.5686 H              1 RES1               0.0000
@<TRIPOS>BOND
    1    1    2 1     
    2    1    3 1     
    3    1    4 1     
    4    1    5 1     
    5    2    6 ar    
    6    2    7 ar    
    7    3    8 1     
    8    3    9 2     
    9    4   10 1     
   10    4   11 2     
   11    5   12 1     
   12    5   18 1     
   13    5   19 1     
   14    6   13 ar    
   15    6   20 1     
   16    7   14 ar    
   17    7   21 1     
   18    8   15 1     
   19    8   22 1     
   20   10   15 1     
   21   10   23 1     
   22   12   24 1     
   23   12   25 1     
   24   12   26 1     
   25   13   16 ar    
   26   13   27 1     
   27   14   16 ar    
   28   14   28 1     
   29   15   17 2     
   30   16   29 1     
@<TRIPOS>SUBSTRUCTURE
      1 RES1           1
@<TRIPOS>SET
DONOR_HYDROGENS      STATIC     ATOMS    <user>   **** ""
2 22 23
ATOM$RED        STATIC     ATOMS    COLORGROUP SYSTEM
2 22 23
@<TRIPOS>COMMENT
> <Gold.Version>
2022.3.0

> <Gold.Id.Protein>
unknown|7rmi_cavity_clean|pdb

> <Gold.Protein.RotatedTorsions>
[ 10320 10303 10304 10305 ] final  163.08 input  114.60 | X-H torsion
[ 10439 10432 10433 10434 ] final -127.35 input  118.28 | X-H torsion
[ 10523 10518 10517 10514 ] final   -7.88 input   59.99 | X-H torsion
[ 12976 12967 12966 12964 ] final   98.88 input   60.00 | X-H torsion
[ 11928 11921 11919 11916 ] final   -6.54 input   60.00 | X-H torsion
[ 11130 11118 11119 11120 ] final  -24.31 input  109.13 | X-H torsion
[ 11138 11129 11128 11126 ] final  -42.07 input   60.00 | X-H torsion

> <Gold.Protein.ActiveResidues>
 ASN392  LEU393  ILE32   VAL41   SER46   TYR92   HIS95   TRP98   ALA133  ILE135 
 HIS136  LEU138  ARG141  THR145  TYR216  VAL219  LEU223  GLN239  VAL252  VAL254 
 CYS255  PHE257  ALA258  TRP261  LEU262  ILE266  MET299  PRO302  ILE303  CYS306 
 CYS307 

> <Gold.Protein.RotatedAtoms>
  111.1110  136.3242   97.7878 H   0  0  0  0  0  0  0  0  0  0  0  0  # atno 10320 bound_to 10303
  112.6327  136.5407  112.2248 H   0  0  0  0  0  0  0  0  0  0  0  0  # atno 10439 bound_to 10432
  122.2483  136.6738  118.4730 H   0  0  0  0  0  0  0  0  0  0  0  0  # atno 10523 bound_to 10518
  119.6198  143.9320  101.7546 H   0  0  0  0  0  0  0  0  0  0  0  0  # atno 11130 bound_to 11118
  125.4628  145.7377   95.4845 H   0  0  0  0  0  0  0  0  0  0  0  0  # atno 11138 bound_to 11129
  144.9419  144.6849  135.2844 H   0  0  0  0  0  0  0  0  0  0  0  0  # atno 11928 bound_to 11921
  135.2467  126.5759  123.7678 H   0  0  0  0  0  0  0  0  0  0  0  0  # atno 12976 bound_to 12967
  122.4454  137.2917  116.9807 LP  0  0  0  0  0  0  0  0  0  0  0  0  # atno 14321 bound_to 10518
  122.7215  135.7056  117.2540 LP  0  0  0  0  0  0  0  0  0  0  0  0  # atno 14322 bound_to 10518
  134.9496  125.9079  125.2213 LP  0  0  0  0  0  0  0  0  0  0  0  0  # atno 14343 bound_to 12967
  133.8210  125.8419  124.0430 LP  0  0  0  0  0  0  0  0  0  0  0  0  # atno 14344 bound_to 12967
  146.4451  145.3055  135.2251 LP  0  0  0  0  0  0  0  0  0  0  0  0  # atno 14347 bound_to 11921
  146.1328  144.0027  136.1588 LP  0  0  0  0  0  0  0  0  0  0  0  0  # atno 14348 bound_to 11921
  126.6668  144.9155   96.2074 LP  0  0  0  0  0  0  0  0  0  0  0  0  # atno 14359 bound_to 11129
  126.5233  146.5263   96.4341 LP  0  0  0  0  0  0  0  0  0  0  0  0  # atno 14360 bound_to 11129

> <Gold.Score>
     Fitness  S(hb_ext) S(vdw_ext)  S(hb_int)    S(int)      intcor
      8.44       0.00      16.11       0.00     -13.71      -0.76

> <Gold.Goldscore.Fitness>
8.4449

> <Gold.Goldscore.Internal.Vdw>
-13.3675

> <Gold.Goldscore.Internal.Torsion>
-1.1049

> <Gold.Goldscore.External.Vdw>
16.1108

> <Gold.Goldscore.Internal.HBond>
0.0000

> <Gold.Goldscore.External.HBond>
0.0000

> <Gold.Goldscore.Internal.Correction>
-0.7650

> <Gold.Goldscore.Internal.Vdw.Weighted>
-13.3675

> <Gold.Goldscore.Internal.Torsion.Weighted>
-1.1049

> <Gold.Goldscore.External.Vdw.Weighted>
22.1523

> <Gold.Goldscore.Internal.HBond.Weighted>
0.0000

> <Gold.Goldscore.External.HBond.Weighted>
0.0000

> <Gold.Goldscore.Internal.Correction.Weighted>
-0.7650

> <Gold.Rescore>
     Score     S(PLP)   S(hbond)     S(cho)   S(metal)  DE(clash)   DE(tors)     intcor
     28.46     -31.32       0.00       0.00       0.00       1.55       0.65       ----

> <Gold.PLP.Fitness>
28.4618

> <Gold.PLP.PLP>
-31.3164

> <Gold.PLP.part.hbond>
-2.3674

> <Gold.PLP.part.metal>
0.0000

> <Gold.PLP.part.buried>
-6.0090

> <Gold.PLP.part.nonpolar>
-24.2412

> <Gold.PLP.part.repulsive>
0.9036

> <Gold.PLP.ligand.clash>
1.5464

> <Gold.PLP.ligand.torsion>
0.6541

> <Gold.PLP.Chemscore.Hbond>
0.0000

> <Gold.PLP.Chemscore.CHOScore>
0.0000

> <Gold.PLP.Chemscore.Metal>
0.0000

> <Gold.PLP.Chemscore.Internal.Correction>
   9.000000E+99

