#       Name:                CT1002167954
#       Creating user name   hitesit
#       Creation time:       Sun Apr 16 20:22:33 2023


#       File generated by GOLD software.
#

@<TRIPOS>MOLECULE
CT1002167954|ligand_prepared|mol2|1|dock3
    29    30     1
SMALL
NO_CHARGES


@<TRIPOS>ATOM
      1 C1         143.1886 129.9317 132.0451 C.3            1 RES1               0.0000
      2 C2         142.9810 131.3869 131.5783 C.ar           1 RES1               0.0000
      3 C3         144.5313 129.9014 132.7693 C.2            1 RES1               0.0000
      4 C4         141.9955 129.5940 132.9323 C.2            1 RES1               0.0000
      5 C5         143.2304 128.9048 130.8896 C.3            1 RES1               0.0000
      6 C6         143.1458 131.7322 130.2402 C.ar           1 RES1               0.0000
      7 C7         142.6227 132.3927 132.4719 C.ar           1 RES1               0.0000
      8 N8         144.5136 129.8035 134.1294 N.am           1 RES1               0.0000
      9 O9         145.5887 130.0018 132.1593 O.2            1 RES1               0.0000
     10 N10        142.2305 129.3565 134.2613 N.am           1 RES1               0.0000
     11 O11        140.8520 129.5478 132.4959 O.2            1 RES1               0.0000
     12 C12        144.4510 129.0401 129.9929 C.3            1 RES1               0.0000
     13 C13        142.9563 133.0352 129.8105 C.ar           1 RES1               0.0000
     14 C14        142.4340 133.6952 132.0400 C.ar           1 RES1               0.0000
     15 C15        143.4313 129.4761 134.9061 C.2            1 RES1               0.0000
     16 C16        142.5999 134.0173 130.7098 C.ar           1 RES1               0.0000
     17 O17        143.5531 129.2990 136.1148 O.2            1 RES1               0.0000
     18 H18        143.2152 127.8937 131.3149 H              1 RES1               0.0000
     19 H19        142.3279 129.0247 130.2777 H              1 RES1               0.0000
     20 H20        143.4285 130.9732 129.5183 H              1 RES1               0.0000
     21 H21        142.4878 132.1626 133.5233 H              1 RES1               0.0000
     22 H22        145.3856 129.9911 134.6139 H              1 RES1               0.0000
     23 H23        141.4366 129.0632 134.8218 H              1 RES1               0.0000
     24 H24        144.4309 128.2964 129.1991 H              1 RES1               0.0000
     25 H25        144.4845 130.0257 129.5331 H              1 RES1               0.0000
     26 H26        145.3666 128.9014 130.5642 H              1 RES1               0.0000
     27 H27        143.0895 133.2838 128.7628 H              1 RES1               0.0000
     28 H28        142.1541 134.4651 132.7515 H              1 RES1               0.0000
     29 H29        142.4512 135.0379 130.3729 H              1 RES1               0.0000
@<TRIPOS>BOND
    1    1    2 1     
    2    1    3 1     
    3    1    4 1     
    4    1    5 1     
    5    2    6 ar    
    6    2    7 ar    
    7    3    8 1     
    8    3    9 2     
    9    4   10 1     
   10    4   11 2     
   11    5   12 1     
   12    5   18 1     
   13    5   19 1     
   14    6   13 ar    
   15    6   20 1     
   16    7   14 ar    
   17    7   21 1     
   18    8   15 1     
   19    8   22 1     
   20   10   15 1     
   21   10   23 1     
   22   12   24 1     
   23   12   25 1     
   24   12   26 1     
   25   13   16 ar    
   26   13   27 1     
   27   14   16 ar    
   28   14   28 1     
   29   15   17 2     
   30   16   29 1     
@<TRIPOS>SUBSTRUCTURE
      1 RES1           1
@<TRIPOS>SET
DONOR_HYDROGENS      STATIC     ATOMS    <user>   **** ""
2 22 23
ATOM$RED        STATIC     ATOMS    COLORGROUP SYSTEM
2 22 23
@<TRIPOS>COMMENT
> <Gold.Version>
2022.3.0

> <Gold.Id.Protein>
unknown|7rmi_cavity_clean|pdb

> <Gold.Protein.RotatedTorsions>
[ 10320 10303 10304 10305 ] final  -73.83 input  114.60 | X-H torsion
[ 10439 10432 10433 10434 ] final   32.50 input  118.28 | X-H torsion
[ 10523 10518 10517 10514 ] final -173.45 input   59.99 | X-H torsion
[ 12976 12967 12966 12964 ] final  -97.50 input   60.00 | X-H torsion
[ 11928 11921 11919 11916 ] final  148.59 input   60.00 | X-H torsion
[ 11130 11118 11119 11120 ] final  -82.12 input  109.13 | X-H torsion
[ 11138 11129 11128 11126 ] final  141.56 input   60.00 | X-H torsion

> <Gold.Protein.ActiveResidues>
 ASN392  LEU393  ILE32   VAL41   SER46   TYR92   HIS95   TRP98   ALA133  ILE135 
 HIS136  LEU138  ARG141  THR145  TYR216  VAL219  LEU223  GLN239  VAL252  VAL254 
 CYS255  PHE257  ALA258  TRP261  LEU262  ILE266  MET299  PRO302  ILE303  CYS306 
 CYS307 

> <Gold.Protein.RotatedAtoms>
  111.2708  135.3191   98.9651 H   0  0  0  0  0  0  0  0  0  0  0  0  # atno 10320 bound_to 10303
  114.1148  135.8526  111.6206 H   0  0  0  0  0  0  0  0  0  0  0  0  # atno 10439 bound_to 10432
  122.6451  136.6705  116.6588 H   0  0  0  0  0  0  0  0  0  0  0  0  # atno 10523 bound_to 10518
  119.5201  144.7720  101.8318 H   0  0  0  0  0  0  0  0  0  0  0  0  # atno 11130 bound_to 11118
  126.9713  145.6565   96.5890 H   0  0  0  0  0  0  0  0  0  0  0  0  # atno 11138 bound_to 11129
  146.5758  144.3302  136.0246 H   0  0  0  0  0  0  0  0  0  0  0  0  # atno 11928 bound_to 11921
  133.9431  125.6489  124.7025 H   0  0  0  0  0  0  0  0  0  0  0  0  # atno 12976 bound_to 12967
  122.5655  135.7069  117.9675 LP  0  0  0  0  0  0  0  0  0  0  0  0  # atno 14321 bound_to 10518
  122.2017  137.2938  118.0950 LP  0  0  0  0  0  0  0  0  0  0  0  0  # atno 14322 bound_to 10518
  134.6414  126.4252  123.4548 LP  0  0  0  0  0  0  0  0  0  0  0  0  # atno 14343 bound_to 12967
  135.4425  126.2584  124.8679 LP  0  0  0  0  0  0  0  0  0  0  0  0  # atno 14344 bound_to 12967
  144.9957  144.2495  135.6437 LP  0  0  0  0  0  0  0  0  0  0  0  0  # atno 14347 bound_to 11921
  145.9365  145.4159  134.9946 LP  0  0  0  0  0  0  0  0  0  0  0  0  # atno 14348 bound_to 11921
  125.8052  146.5649   95.9083 LP  0  0  0  0  0  0  0  0  0  0  0  0  # atno 14359 bound_to 11129
  125.8653  144.9586   95.6205 LP  0  0  0  0  0  0  0  0  0  0  0  0  # atno 14360 bound_to 11129

> <Gold.Score>
     Fitness  S(hb_ext) S(vdw_ext)  S(hb_int)    S(int)      intcor
      0.00       0.09      -8.50       0.00     -13.78      -0.76

> <Gold.Goldscore.Fitness>
0.0000

> <Gold.Goldscore.Internal.Vdw>
-12.6781

> <Gold.Goldscore.Internal.Torsion>
-1.8789

> <Gold.Goldscore.External.Vdw>
-8.5006

> <Gold.Goldscore.Internal.HBond>
0.0000

> <Gold.Goldscore.External.HBond>
0.0888

> <Gold.Goldscore.Internal.Correction>
-0.7650

> <Gold.Goldscore.Internal.Vdw.Weighted>
-12.6781

> <Gold.Goldscore.Internal.Torsion.Weighted>
-1.8789

> <Gold.Goldscore.External.Vdw.Weighted>
-11.6884

> <Gold.Goldscore.Internal.HBond.Weighted>
0.0000

> <Gold.Goldscore.External.HBond.Weighted>
0.0888

> <Gold.Goldscore.Internal.Correction.Weighted>
-0.7650

> <Gold.Rescore>
     Score     S(PLP)   S(hbond)     S(cho)   S(metal)  DE(clash)   DE(tors)     intcor
    -21.93      16.50       0.00       0.00       0.00       4.30       0.56       ----

> <Gold.PLP.Fitness>
-21.9283

> <Gold.PLP.PLP>
16.5018

> <Gold.PLP.part.hbond>
-3.0000

> <Gold.PLP.part.metal>
0.0000

> <Gold.PLP.part.buried>
26.8301

> <Gold.PLP.part.nonpolar>
-15.6312

> <Gold.PLP.part.repulsive>
6.2039

> <Gold.PLP.ligand.clash>
4.3005

> <Gold.PLP.ligand.torsion>
0.5630

> <Gold.PLP.Chemscore.Hbond>
0.0000

> <Gold.PLP.Chemscore.CHOScore>
0.0000

> <Gold.PLP.Chemscore.Metal>
0.0000

> <Gold.PLP.Chemscore.Internal.Correction>
   9.000000E+99

