#       Name:                GA Fitting Points
#       Creating user name   hitesit
#       Creation time:       Sun Apr 16 02:23:41 2023


#       Fitting Points Used by GA Software.
#

@<TRIPOS>MOLECULE
GA Fitting Points
  2604    0    0
SMALL
NO_CHARGES


@<TRIPOS>ATOM
      1 ****        -5.7500  29.5000 -29.5000 Du        
      2 ****        -5.5000  28.7500 -29.5000 Du        
      3 ****        -5.5000  29.0000 -29.5000 Du        
      4 ****        -5.5000  29.2500 -29.7500 Du        
      5 ****        -5.5000  29.2500 -29.5000 Du        
      6 ****        -5.5000  29.2500 -29.2500 Du        
      7 ****        -5.5000  29.5000 -29.7500 Du        
      8 ****        -5.5000  29.5000 -29.5000 Du        
      9 ****        -5.5000  29.5000 -29.2500 Du        
     10 ****        -5.5000  29.7500 -30.0000 Du        
     11 ****        -5.5000  29.7500 -29.7500 Du        
     12 ****        -5.5000  29.7500 -29.5000 Du        
     13 ****        -5.5000  29.7500 -29.2500 Du        
     14 ****        -5.5000  29.7500 -29.0000 Du        
     15 ****        -5.5000  30.0000 -30.0000 Du        
     16 ****        -5.5000  30.0000 -29.7500 Du        
     17 ****        -5.5000  30.0000 -29.5000 Du        
     18 ****        -5.5000  30.0000 -29.2500 Du        
     19 ****        -5.5000  30.0000 -29.0000 Du        
     20 ****        -5.5000  30.2500 -30.0000 Du        
     21 ****        -5.5000  30.2500 -29.7500 Du        
     22 ****        -5.5000  30.2500 -29.5000 Du        
     23 ****        -5.5000  30.2500 -29.2500 Du        
     24 ****        -5.5000  30.2500 -29.0000 Du        
     25 ****        -5.5000  30.5000 -29.7500 Du        
     26 ****        -5.5000  30.5000 -29.5000 Du        
     27 ****        -5.5000  30.5000 -29.2500 Du        
     28 ****        -5.2500  28.2500 -29.7500 Du        
     29 ****        -5.2500  28.5000 -30.0000 Du        
     30 ****        -5.2500  28.5000 -29.7500 Du        
     31 ****        -5.2500  28.5000 -29.5000 Du        
     32 ****        -5.2500  28.7500 -30.0000 Du        
     33 ****        -5.2500  28.7500 -29.7500 Du        
     34 ****        -5.2500  28.7500 -29.5000 Du        
     35 ****        -5.2500  28.7500 -29.2500 Du        
     36 ****        -5.2500  29.0000 -30.0000 Du        
     37 ****        -5.2500  29.0000 -29.7500 Du        
     38 ****        -5.2500  29.0000 -29.5000 Du        
     39 ****        -5.2500  29.0000 -29.2500 Du        
     40 ****        -5.2500  29.2500 -30.0000 Du        
     41 ****        -5.2500  29.2500 -29.7500 Du        
     42 ****        -5.2500  29.2500 -29.5000 Du        
     43 ****        -5.2500  29.2500 -29.2500 Du        
     44 ****        -5.2500  29.2500 -29.0000 Du        
     45 ****        -5.2500  29.5000 -30.0000 Du        
     46 ****        -5.2500  29.5000 -29.7500 Du        
     47 ****        -5.2500  29.5000 -29.5000 Du        
     48 ****        -5.2500  29.5000 -29.2500 Du        
     49 ****        -5.2500  29.5000 -29.0000 Du        
     50 ****        -5.2500  29.7500 -30.2500 Du        
     51 ****        -5.2500  29.7500 -30.0000 Du        
     52 ****        -5.2500  29.7500 -29.7500 Du        
     53 ****        -5.2500  29.7500 -29.5000 Du        
     54 ****        -5.2500  29.7500 -29.2500 Du        
     55 ****        -5.2500  29.7500 -29.0000 Du        
     56 ****        -5.2500  30.0000 -30.2500 Du        
     57 ****        -5.2500  30.0000 -30.0000 Du        
     58 ****        -5.2500  30.0000 -29.7500 Du        
     59 ****        -5.2500  30.0000 -29.5000 Du        
     60 ****        -5.2500  30.0000 -29.2500 Du        
     61 ****        -5.2500  30.0000 -29.0000 Du        
     62 ****        -5.2500  30.2500 -30.0000 Du        
     63 ****        -5.2500  30.2500 -29.7500 Du        
     64 ****        -5.2500  30.2500 -29.5000 Du        
     65 ****        -5.2500  30.2500 -29.2500 Du        
     66 ****        -5.2500  30.2500 -29.0000 Du        
     67 ****        -5.2500  30.5000 -30.0000 Du        
     68 ****        -5.2500  30.5000 -29.7500 Du        
     69 ****        -5.2500  30.5000 -29.5000 Du        
     70 ****        -5.2500  30.5000 -29.2500 Du        
     71 ****        -5.2500  30.5000 -29.0000 Du        
     72 ****        -5.2500  30.5000 -28.7500 Du        
     73 ****        -5.2500  30.7500 -29.7500 Du        
     74 ****        -5.2500  30.7500 -29.5000 Du        
     75 ****        -5.2500  30.7500 -29.2500 Du        
     76 ****        -5.2500  30.7500 -29.0000 Du        
     77 ****        -5.2500  30.7500 -28.7500 Du        
     78 ****        -5.2500  31.0000 -29.2500 Du        
     79 ****        -5.2500  31.0000 -29.0000 Du        
     80 ****        -5.2500  31.0000 -28.7500 Du        
     81 ****        -5.2500  31.2500 -29.0000 Du        
     82 ****        -5.2500  31.2500 -28.7500 Du        
     83 ****        -5.2500  31.5000 -29.0000 Du        
     84 ****        -5.2500  31.5000 -28.7500 Du        
     85 ****        -5.2500  31.5000 -28.5000 Du        
     86 ****        -5.2500  31.7500 -28.7500 Du        
     87 ****        -5.2500  31.7500 -28.5000 Du        
     88 ****        -5.2500  32.0000 -28.5000 Du        
     89 ****        -5.2500  32.0000 -28.2500 Du        
     90 ****        -5.2500  32.2500 -28.5000 Du        
     91 ****        -5.2500  32.2500 -28.2500 Du        
     92 ****        -5.2500  32.2500 -28.0000 Du        
     93 ****        -5.2500  32.5000 -28.2500 Du        
     94 ****        -5.2500  32.5000 -28.0000 Du        
     95 ****        -5.2500  32.7500 -28.2500 Du        
     96 ****        -5.2500  32.7500 -28.0000 Du        
     97 ****        -5.2500  33.0000 -28.2500 Du        
     98 ****        -5.2500  33.0000 -28.0000 Du        
     99 ****        -5.0000  28.0000 -29.7500 Du        
    100 ****        -5.0000  28.2500 -30.0000 Du        
    101 ****        -5.0000  28.2500 -29.7500 Du        
    102 ****        -5.0000  28.5000 -30.2500 Du        
    103 ****        -5.0000  28.5000 -30.0000 Du        
    104 ****        -5.0000  28.5000 -29.7500 Du        
    105 ****        -5.0000  28.5000 -29.5000 Du        
    106 ****        -5.0000  28.5000 -29.2500 Du        
    107 ****        -5.0000  28.7500 -30.2500 Du        
    108 ****        -5.0000  28.7500 -30.0000 Du        
    109 ****        -5.0000  28.7500 -29.7500 Du        
    110 ****        -5.0000  28.7500 -29.5000 Du        
    111 ****        -5.0000  28.7500 -29.2500 Du        
    112 ****        -5.0000  29.0000 -30.2500 Du        
    113 ****        -5.0000  29.0000 -30.0000 Du        
    114 ****        -5.0000  29.0000 -29.7500 Du        
    115 ****        -5.0000  29.0000 -29.5000 Du        
    116 ****        -5.0000  29.0000 -29.2500 Du        
    117 ****        -5.0000  29.0000 -29.0000 Du        
    118 ****        -5.0000  29.2500 -30.5000 Du        
    119 ****        -5.0000  29.2500 -30.2500 Du        
    120 ****        -5.0000  29.2500 -30.0000 Du        
    121 ****        -5.0000  29.2500 -29.7500 Du        
    122 ****        -5.0000  29.2500 -29.5000 Du        
    123 ****        -5.0000  29.2500 -29.2500 Du        
    124 ****        -5.0000  29.2500 -29.0000 Du        
    125 ****        -5.0000  29.5000 -30.5000 Du        
    126 ****        -5.0000  29.5000 -30.2500 Du        
    127 ****        -5.0000  29.5000 -30.0000 Du        
    128 ****        -5.0000  29.5000 -29.7500 Du        
    129 ****        -5.0000  29.5000 -29.5000 Du        
    130 ****        -5.0000  29.5000 -29.2500 Du        
    131 ****        -5.0000  29.5000 -29.0000 Du        
    132 ****        -5.0000  29.5000 -28.7500 Du        
    133 ****        -5.0000  29.7500 -30.5000 Du        
    134 ****        -5.0000  29.7500 -30.2500 Du        
    135 ****        -5.0000  29.7500 -30.0000 Du        
    136 ****        -5.0000  29.7500 -29.7500 Du        
    137 ****        -5.0000  29.7500 -29.5000 Du        
    138 ****        -5.0000  29.7500 -29.2500 Du        
    139 ****        -5.0000  29.7500 -29.0000 Du        
    140 ****        -5.0000  29.7500 -28.7500 Du        
    141 ****        -5.0000  30.0000 -30.5000 Du        
    142 ****        -5.0000  30.0000 -30.2500 Du        
    143 ****        -5.0000  30.0000 -30.0000 Du        
    144 ****        -5.0000  30.0000 -29.7500 Du        
    145 ****        -5.0000  30.0000 -29.5000 Du        
    146 ****        -5.0000  30.0000 -29.2500 Du        
    147 ****        -5.0000  30.0000 -29.0000 Du        
    148 ****        -5.0000  30.0000 -28.7500 Du        
    149 ****        -5.0000  30.2500 -30.2500 Du        
    150 ****        -5.0000  30.2500 -30.0000 Du        
    151 ****        -5.0000  30.2500 -29.7500 Du        
    152 ****        -5.0000  30.2500 -29.5000 Du        
    153 ****        -5.0000  30.2500 -29.2500 Du        
    154 ****        -5.0000  30.2500 -29.0000 Du        
    155 ****        -5.0000  30.2500 -28.7500 Du        
    156 ****        -5.0000  30.5000 -30.0000 Du        
    157 ****        -5.0000  30.5000 -29.7500 Du        
    158 ****        -5.0000  30.5000 -29.5000 Du        
    159 ****        -5.0000  30.5000 -29.2500 Du        
    160 ****        -5.0000  30.5000 -29.0000 Du        
    161 ****        -5.0000  30.5000 -28.7500 Du        
    162 ****        -5.0000  30.7500 -29.7500 Du        
    163 ****        -5.0000  30.7500 -29.5000 Du        
    164 ****        -5.0000  30.7500 -29.2500 Du        
    165 ****        -5.0000  30.7500 -29.0000 Du        
    166 ****        -5.0000  30.7500 -28.7500 Du        
    167 ****        -5.0000  31.0000 -29.5000 Du        
    168 ****        -5.0000  31.0000 -29.2500 Du        
    169 ****        -5.0000  31.0000 -29.0000 Du        
    170 ****        -5.0000  31.0000 -28.7500 Du        
    171 ****        -5.0000  31.0000 -28.5000 Du        
    172 ****        -5.0000  31.2500 -29.2500 Du        
    173 ****        -5.0000  31.2500 -29.0000 Du        
    174 ****        -5.0000  31.2500 -28.7500 Du        
    175 ****        -5.0000  31.2500 -28.5000 Du        
    176 ****        -5.0000  31.5000 -29.0000 Du        
    177 ****        -5.0000  31.5000 -28.7500 Du        
    178 ****        -5.0000  31.5000 -28.5000 Du        
    179 ****        -5.0000  31.5000 -28.2500 Du        
    180 ****        -5.0000  31.7500 -29.0000 Du        
    181 ****        -5.0000  31.7500 -28.7500 Du        
    182 ****        -5.0000  31.7500 -28.5000 Du        
    183 ****        -5.0000  31.7500 -28.2500 Du        
    184 ****        -5.0000  32.0000 -28.7500 Du        
    185 ****        -5.0000  32.0000 -28.5000 Du        
    186 ****        -5.0000  32.0000 -28.2500 Du        
    187 ****        -5.0000  32.0000 -28.0000 Du        
    188 ****        -5.0000  32.2500 -28.7500 Du        
    189 ****        -5.0000  32.2500 -28.5000 Du        
    190 ****        -5.0000  32.2500 -28.2500 Du        
    191 ****        -5.0000  32.2500 -28.0000 Du        
    192 ****        -5.0000  32.2500 -27.7500 Du        
    193 ****        -5.0000  32.5000 -28.7500 Du        
    194 ****        -5.0000  32.5000 -28.5000 Du        
    195 ****        -5.0000  32.5000 -28.2500 Du        
    196 ****        -5.0000  32.5000 -28.0000 Du        
    197 ****        -5.0000  32.5000 -27.7500 Du        
    198 ****        -5.0000  32.7500 -28.5000 Du        
    199 ****        -5.0000  32.7500 -28.2500 Du        
    200 ****        -5.0000  32.7500 -28.0000 Du        
    201 ****        -5.0000  32.7500 -27.7500 Du        
    202 ****        -5.0000  33.0000 -28.5000 Du        
    203 ****        -5.0000  33.0000 -28.2500 Du        
    204 ****        -5.0000  33.0000 -28.0000 Du        
    205 ****        -5.0000  33.0000 -27.7500 Du        
    206 ****        -5.0000  33.2500 -28.5000 Du        
    207 ****        -5.0000  33.2500 -28.2500 Du        
    208 ****        -5.0000  33.2500 -28.0000 Du        
    209 ****        -5.0000  33.5000 -28.5000 Du        
    210 ****        -5.0000  33.5000 -28.2500 Du        
    211 ****        -5.0000  33.5000 -28.0000 Du        
    212 ****        -5.0000  33.7500 -28.5000 Du        
    213 ****        -5.0000  33.7500 -28.2500 Du        
    214 ****        -5.0000  33.7500 -28.0000 Du        
    215 ****        -5.0000  34.0000 -28.7500 Du        
    216 ****        -5.0000  34.0000 -28.5000 Du        
    217 ****        -5.0000  34.0000 -28.2500 Du        
    218 ****        -5.0000  34.2500 -28.7500 Du        
    219 ****        -5.0000  34.2500 -28.5000 Du        
    220 ****        -5.0000  34.2500 -28.2500 Du        
    221 ****        -5.0000  34.5000 -28.7500 Du        
    222 ****        -5.0000  34.5000 -28.5000 Du        
    223 ****        -5.0000  34.7500 -28.7500 Du        
    224 ****        -5.0000  34.7500 -28.5000 Du        
    225 ****        -5.0000  35.0000 -28.7500 Du        
    226 ****        -5.0000  35.2500 -28.7500 Du        
    227 ****        -4.7500  28.2500 -30.2500 Du        
    228 ****        -4.7500  28.2500 -30.0000 Du        
    229 ****        -4.7500  28.2500 -29.7500 Du        
    230 ****        -4.7500  28.5000 -30.7500 Du        
    231 ****        -4.7500  28.5000 -30.5000 Du        
    232 ****        -4.7500  28.5000 -30.2500 Du        
    233 ****        -4.7500  28.5000 -30.0000 Du        
    234 ****        -4.7500  28.5000 -29.7500 Du        
    235 ****        -4.7500  28.5000 -29.5000 Du        
    236 ****        -4.7500  28.5000 -29.2500 Du        
    237 ****        -4.7500  28.7500 -30.7500 Du        
    238 ****        -4.7500  28.7500 -30.5000 Du        
    239 ****        -4.7500  28.7500 -30.2500 Du        
    240 ****        -4.7500  28.7500 -30.0000 Du        
    241 ****        -4.7500  28.7500 -29.7500 Du        
    242 ****        -4.7500  28.7500 -29.5000 Du        
    243 ****        -4.7500  28.7500 -29.2500 Du        
    244 ****        -4.7500  28.7500 -29.0000 Du        
    245 ****        -4.7500  29.0000 -31.0000 Du        
    246 ****        -4.7500  29.0000 -30.7500 Du        
    247 ****        -4.7500  29.0000 -30.5000 Du        
    248 ****        -4.7500  29.0000 -30.2500 Du        
    249 ****        -4.7500  29.0000 -30.0000 Du        
    250 ****        -4.7500  29.0000 -29.7500 Du        
    251 ****        -4.7500  29.0000 -29.5000 Du        
    252 ****        -4.7500  29.0000 -29.2500 Du        
    253 ****        -4.7500  29.0000 -29.0000 Du        
    254 ****        -4.7500  29.2500 -30.7500 Du        
    255 ****        -4.7500  29.2500 -30.5000 Du        
    256 ****        -4.7500  29.2500 -30.2500 Du        
    257 ****        -4.7500  29.2500 -30.0000 Du        
    258 ****        -4.7500  29.2500 -29.7500 Du        
    259 ****        -4.7500  29.2500 -29.5000 Du        
    260 ****        -4.7500  29.2500 -29.2500 Du        
    261 ****        -4.7500  29.2500 -29.0000 Du        
    262 ****        -4.7500  29.2500 -28.7500 Du        
    263 ****        -4.7500  29.5000 -30.7500 Du        
    264 ****        -4.7500  29.5000 -30.5000 Du        
    265 ****        -4.7500  29.5000 -30.2500 Du        
    266 ****        -4.7500  29.5000 -30.0000 Du        
    267 ****        -4.7500  29.5000 -29.7500 Du        
    268 ****        -4.7500  29.5000 -29.5000 Du        
    269 ****        -4.7500  29.5000 -29.2500 Du        
    270 ****        -4.7500  29.5000 -29.0000 Du        
    271 ****        -4.7500  29.5000 -28.7500 Du        
    272 ****        -4.7500  29.7500 -30.7500 Du        
    273 ****        -4.7500  29.7500 -30.5000 Du        
    274 ****        -4.7500  29.7500 -30.2500 Du        
    275 ****        -4.7500  29.7500 -30.0000 Du        
    276 ****        -4.7500  29.7500 -29.7500 Du        
    277 ****        -4.7500  29.7500 -29.5000 Du        
    278 ****        -4.7500  29.7500 -29.2500 Du        
    279 ****        -4.7500  29.7500 -29.0000 Du        
    280 ****        -4.7500  29.7500 -28.7500 Du        
    281 ****        -4.7500  30.0000 -30.5000 Du        
    282 ****        -4.7500  30.0000 -30.2500 Du        
    283 ****        -4.7500  30.0000 -30.0000 Du        
    284 ****        -4.7500  30.0000 -29.7500 Du        
    285 ****        -4.7500  30.0000 -29.5000 Du        
    286 ****        -4.7500  30.0000 -29.2500 Du        
    287 ****        -4.7500  30.0000 -29.0000 Du        
    288 ****        -4.7500  30.0000 -28.7500 Du        
    289 ****        -4.7500  30.2500 -30.2500 Du        
    290 ****        -4.7500  30.2500 -30.0000 Du        
    291 ****        -4.7500  30.2500 -29.7500 Du        
    292 ****        -4.7500  30.2500 -29.5000 Du        
    293 ****        -4.7500  30.2500 -29.2500 Du        
    294 ****        -4.7500  30.2500 -29.0000 Du        
    295 ****        -4.7500  30.2500 -28.7500 Du        
    296 ****        -4.7500  30.2500 -28.5000 Du        
    297 ****        -4.7500  30.5000 -30.0000 Du        
    298 ****        -4.7500  30.5000 -29.7500 Du        
    299 ****        -4.7500  30.5000 -29.5000 Du        
    300 ****        -4.7500  30.5000 -29.2500 Du        
    301 ****        -4.7500  30.5000 -29.0000 Du        
    302 ****        -4.7500  30.5000 -28.7500 Du        
    303 ****        -4.7500  30.5000 -28.5000 Du        
    304 ****        -4.7500  30.7500 -29.7500 Du        
    305 ****        -4.7500  30.7500 -29.5000 Du        
    306 ****        -4.7500  30.7500 -29.2500 Du        
    307 ****        -4.7500  30.7500 -29.0000 Du        
    308 ****        -4.7500  30.7500 -28.7500 Du        
    309 ****        -4.7500  30.7500 -28.5000 Du        
    310 ****        -4.7500  31.0000 -29.5000 Du        
    311 ****        -4.7500  31.0000 -29.2500 Du        
    312 ****        -4.7500  31.0000 -29.0000 Du        
    313 ****        -4.7500  31.0000 -28.7500 Du        
    314 ****        -4.7500  31.0000 -28.5000 Du        
    315 ****        -4.7500  31.2500 -29.2500 Du        
    316 ****        -4.7500  31.2500 -29.0000 Du        
    317 ****        -4.7500  31.2500 -28.7500 Du        
    318 ****        -4.7500  31.2500 -28.5000 Du        
    319 ****        -4.7500  31.2500 -28.2500 Du        
    320 ****        -4.7500  31.5000 -29.2500 Du        
    321 ****        -4.7500  31.5000 -29.0000 Du        
    322 ****        -4.7500  31.5000 -28.7500 Du        
    323 ****        -4.7500  31.5000 -28.5000 Du        
    324 ****        -4.7500  31.5000 -28.2500 Du        
    325 ****        -4.7500  31.7500 -29.0000 Du        
    326 ****        -4.7500  31.7500 -28.7500 Du        
    327 ****        -4.7500  31.7500 -28.5000 Du        
    328 ****        -4.7500  31.7500 -28.2500 Du        
    329 ****        -4.7500  31.7500 -28.0000 Du        
    330 ****        -4.7500  32.0000 -29.0000 Du        
    331 ****        -4.7500  32.0000 -28.7500 Du        
    332 ****        -4.7500  32.0000 -28.5000 Du        
    333 ****        -4.7500  32.0000 -28.2500 Du        
    334 ****        -4.7500  32.0000 -28.0000 Du        
    335 ****        -4.7500  32.0000 -27.7500 Du        
    336 ****        -4.7500  32.2500 -28.7500 Du        
    337 ****        -4.7500  32.2500 -28.5000 Du        
    338 ****        -4.7500  32.2500 -28.2500 Du        
    339 ****        -4.7500  32.2500 -28.0000 Du        
    340 ****        -4.7500  32.2500 -27.7500 Du        
    341 ****        -4.7500  32.2500 -27.5000 Du        
    342 ****        -4.7500  32.5000 -28.7500 Du        
    343 ****        -4.7500  32.5000 -28.5000 Du        
    344 ****        -4.7500  32.5000 -28.2500 Du        
    345 ****        -4.7500  32.5000 -28.0000 Du        
    346 ****        -4.7500  32.5000 -27.7500 Du        
    347 ****        -4.7500  32.5000 -27.5000 Du        
    348 ****        -4.7500  32.7500 -28.7500 Du        
    349 ****        -4.7500  32.7500 -28.5000 Du        
    350 ****        -4.7500  32.7500 -28.2500 Du        
    351 ****        -4.7500  32.7500 -28.0000 Du        
    352 ****        -4.7500  32.7500 -27.7500 Du        
    353 ****        -4.7500  32.7500 -27.5000 Du        
    354 ****        -4.7500  33.0000 -28.7500 Du        
    355 ****        -4.7500  33.0000 -28.5000 Du        
    356 ****        -4.7500  33.0000 -28.2500 Du        
    357 ****        -4.7500  33.0000 -28.0000 Du        
    358 ****        -4.7500  33.0000 -27.7500 Du        
    359 ****        -4.7500  33.2500 -28.7500 Du        
    360 ****        -4.7500  33.2500 -28.5000 Du        
    361 ****        -4.7500  33.2500 -28.2500 Du        
    362 ****        -4.7500  33.2500 -28.0000 Du        
    363 ****        -4.7500  33.2500 -27.7500 Du        
    364 ****        -4.7500  33.5000 -28.7500 Du        
    365 ****        -4.7500  33.5000 -28.5000 Du        
    366 ****        -4.7500  33.5000 -28.2500 Du        
    367 ****        -4.7500  33.5000 -28.0000 Du        
    368 ****        -4.7500  33.5000 -27.7500 Du        
    369 ****        -4.7500  33.7500 -28.7500 Du        
    370 ****        -4.7500  33.7500 -28.5000 Du        
    371 ****        -4.7500  33.7500 -28.2500 Du        
    372 ****        -4.7500  33.7500 -28.0000 Du        
    373 ****        -4.7500  34.0000 -28.7500 Du        
    374 ****        -4.7500  34.0000 -28.5000 Du        
    375 ****        -4.7500  34.0000 -28.2500 Du        
    376 ****        -4.7500  34.0000 -28.0000 Du        
    377 ****        -4.7500  34.2500 -28.7500 Du        
    378 ****        -4.7500  34.2500 -28.5000 Du        
    379 ****        -4.7500  34.2500 -28.2500 Du        
    380 ****        -4.7500  34.5000 -28.7500 Du        
    381 ****        -4.7500  34.5000 -28.5000 Du        
    382 ****        -4.7500  34.5000 -28.2500 Du        
    383 ****        -4.7500  34.7500 -28.7500 Du        
    384 ****        -4.7500  34.7500 -28.5000 Du        
    385 ****        -4.7500  35.0000 -28.7500 Du        
    386 ****        -4.7500  35.0000 -28.5000 Du        
    387 ****        -4.7500  35.2500 -28.7500 Du        
    388 ****        -4.5000  28.5000 -30.2500 Du        
    389 ****        -4.5000  28.5000 -30.0000 Du        
    390 ****        -4.5000  28.5000 -29.7500 Du        
    391 ****        -4.5000  28.7500 -30.5000 Du        
    392 ****        -4.5000  28.7500 -30.2500 Du        
    393 ****        -4.5000  28.7500 -30.0000 Du        
    394 ****        -4.5000  28.7500 -29.7500 Du        
    395 ****        -4.5000  29.0000 -30.7500 Du        
    396 ****        -4.5000  29.0000 -30.5000 Du        
    397 ****        -4.5000  29.0000 -30.2500 Du        
    398 ****        -4.5000  29.0000 -30.0000 Du        
    399 ****        -4.5000  29.0000 -29.7500 Du        
    400 ****        -4.5000  29.0000 -29.5000 Du        
    401 ****        -4.5000  29.0000 -29.2500 Du        
    402 ****        -4.5000  29.0000 -29.0000 Du        
    403 ****        -4.5000  29.2500 -30.7500 Du        
    404 ****        -4.5000  29.2500 -30.5000 Du        
    405 ****        -4.5000  29.2500 -30.2500 Du        
    406 ****        -4.5000  29.2500 -30.0000 Du        
    407 ****        -4.5000  29.2500 -29.7500 Du        
    408 ****        -4.5000  29.2500 -29.5000 Du        
    409 ****        -4.5000  29.2500 -29.2500 Du        
    410 ****        -4.5000  29.2500 -29.0000 Du        
    411 ****        -4.5000  29.5000 -30.7500 Du        
    412 ****        -4.5000  29.5000 -30.5000 Du        
    413 ****        -4.5000  29.5000 -30.2500 Du        
    414 ****        -4.5000  29.5000 -30.0000 Du        
    415 ****        -4.5000  29.5000 -29.7500 Du        
    416 ****        -4.5000  29.5000 -29.5000 Du        
    417 ****        -4.5000  29.5000 -29.2500 Du        
    418 ****        -4.5000  29.5000 -29.0000 Du        
    419 ****        -4.5000  29.5000 -28.7500 Du        
    420 ****        -4.5000  29.7500 -30.5000 Du        
    421 ****        -4.5000  29.7500 -30.2500 Du        
    422 ****        -4.5000  29.7500 -30.0000 Du        
    423 ****        -4.5000  29.7500 -29.7500 Du        
    424 ****        -4.5000  29.7500 -29.5000 Du        
    425 ****        -4.5000  29.7500 -29.2500 Du        
    426 ****        -4.5000  29.7500 -29.0000 Du        
    427 ****        -4.5000  29.7500 -28.7500 Du        
    428 ****        -4.5000  29.7500 -28.5000 Du        
    429 ****        -4.5000  30.0000 -30.5000 Du        
    430 ****        -4.5000  30.0000 -30.2500 Du        
    431 ****        -4.5000  30.0000 -30.0000 Du        
    432 ****        -4.5000  30.0000 -29.7500 Du        
    433 ****        -4.5000  30.0000 -29.5000 Du        
    434 ****        -4.5000  30.0000 -29.2500 Du        
    435 ****        -4.5000  30.0000 -29.0000 Du        
    436 ****        -4.5000  30.0000 -28.7500 Du        
    437 ****        -4.5000  30.0000 -28.5000 Du        
    438 ****        -4.5000  30.2500 -30.2500 Du        
    439 ****        -4.5000  30.2500 -30.0000 Du        
    440 ****        -4.5000  30.2500 -29.7500 Du        
    441 ****        -4.5000  30.2500 -29.5000 Du        
    442 ****        -4.5000  30.2500 -29.2500 Du        
    443 ****        -4.5000  30.2500 -29.0000 Du        
    444 ****        -4.5000  30.2500 -28.7500 Du        
    445 ****        -4.5000  30.2500 -28.5000 Du        
    446 ****        -4.5000  30.5000 -30.0000 Du        
    447 ****        -4.5000  30.5000 -29.7500 Du        
    448 ****        -4.5000  30.5000 -29.5000 Du        
    449 ****        -4.5000  30.5000 -29.2500 Du        
    450 ****        -4.5000  30.5000 -29.0000 Du        
    451 ****        -4.5000  30.5000 -28.7500 Du        
    452 ****        -4.5000  30.5000 -28.5000 Du        
    453 ****        -4.5000  30.7500 -29.7500 Du        
    454 ****        -4.5000  30.7500 -29.5000 Du        
    455 ****        -4.5000  30.7500 -29.2500 Du        
    456 ****        -4.5000  30.7500 -29.0000 Du        
    457 ****        -4.5000  30.7500 -28.7500 Du        
    458 ****        -4.5000  30.7500 -28.5000 Du        
    459 ****        -4.5000  30.7500 -28.2500 Du        
    460 ****        -4.5000  31.0000 -29.5000 Du        
    461 ****        -4.5000  31.0000 -29.2500 Du        
    462 ****        -4.5000  31.0000 -29.0000 Du        
    463 ****        -4.5000  31.0000 -28.7500 Du        
    464 ****        -4.5000  31.0000 -28.5000 Du        
    465 ****        -4.5000  31.0000 -28.2500 Du        
    466 ****        -4.5000  31.2500 -29.2500 Du        
    467 ****        -4.5000  31.2500 -29.0000 Du        
    468 ****        -4.5000  31.2500 -28.7500 Du        
    469 ****        -4.5000  31.2500 -28.5000 Du        
    470 ****        -4.5000  31.2500 -28.2500 Du        
    471 ****        -4.5000  31.2500 -28.0000 Du        
    472 ****        -4.5000  31.5000 -29.0000 Du        
    473 ****        -4.5000  31.5000 -28.7500 Du        
    474 ****        -4.5000  31.5000 -28.5000 Du        
    475 ****        -4.5000  31.5000 -28.2500 Du        
    476 ****        -4.5000  31.5000 -28.0000 Du        
    477 ****        -4.5000  31.7500 -29.0000 Du        
    478 ****        -4.5000  31.7500 -28.7500 Du        
    479 ****        -4.5000  31.7500 -28.5000 Du        
    480 ****        -4.5000  31.7500 -28.2500 Du        
    481 ****        -4.5000  31.7500 -28.0000 Du        
    482 ****        -4.5000  31.7500 -27.7500 Du        
    483 ****        -4.5000  32.0000 -29.0000 Du        
    484 ****        -4.5000  32.0000 -28.7500 Du        
    485 ****        -4.5000  32.0000 -28.5000 Du        
    486 ****        -4.5000  32.0000 -28.2500 Du        
    487 ****        -4.5000  32.0000 -28.0000 Du        
    488 ****        -4.5000  32.0000 -27.7500 Du        
    489 ****        -4.5000  32.0000 -27.5000 Du        
    490 ****        -4.5000  32.2500 -28.7500 Du        
    491 ****        -4.5000  32.2500 -28.5000 Du        
    492 ****        -4.5000  32.2500 -28.2500 Du        
    493 ****        -4.5000  32.2500 -28.0000 Du        
    494 ****        -4.5000  32.2500 -27.7500 Du        
    495 ****        -4.5000  32.2500 -27.5000 Du        
    496 ****        -4.5000  32.2500 -27.2500 Du        
    497 ****        -4.5000  32.5000 -28.7500 Du        
    498 ****        -4.5000  32.5000 -28.5000 Du        
    499 ****        -4.5000  32.5000 -28.2500 Du        
    500 ****        -4.5000  32.5000 -28.0000 Du        
    501 ****        -4.5000  32.5000 -27.7500 Du        
    502 ****        -4.5000  32.5000 -27.5000 Du        
    503 ****        -4.5000  32.5000 -27.2500 Du        
    504 ****        -4.5000  32.7500 -28.7500 Du        
    505 ****        -4.5000  32.7500 -28.5000 Du        
    506 ****        -4.5000  32.7500 -28.2500 Du        
    507 ****        -4.5000  32.7500 -28.0000 Du        
    508 ****        -4.5000  32.7500 -27.7500 Du        
    509 ****        -4.5000  32.7500 -27.5000 Du        
    510 ****        -4.5000  32.7500 -27.2500 Du        
    511 ****        -4.5000  33.0000 -28.7500 Du        
    512 ****        -4.5000  33.0000 -28.5000 Du        
    513 ****        -4.5000  33.0000 -28.2500 Du        
    514 ****        -4.5000  33.0000 -28.0000 Du        
    515 ****        -4.5000  33.0000 -27.7500 Du        
    516 ****        -4.5000  33.0000 -27.5000 Du        
    517 ****        -4.5000  33.2500 -28.7500 Du        
    518 ****        -4.5000  33.2500 -28.5000 Du        
    519 ****        -4.5000  33.2500 -28.2500 Du        
    520 ****        -4.5000  33.2500 -28.0000 Du        
    521 ****        -4.5000  33.2500 -27.7500 Du        
    522 ****        -4.5000  33.2500 -27.5000 Du        
    523 ****        -4.5000  33.5000 -28.7500 Du        
    524 ****        -4.5000  33.5000 -28.5000 Du        
    525 ****        -4.5000  33.5000 -28.2500 Du        
    526 ****        -4.5000  33.5000 -28.0000 Du        
    527 ****        -4.5000  33.5000 -27.7500 Du        
    528 ****        -4.5000  33.7500 -28.7500 Du        
    529 ****        -4.5000  33.7500 -28.5000 Du        
    530 ****        -4.5000  33.7500 -28.2500 Du        
    531 ****        -4.5000  33.7500 -28.0000 Du        
    532 ****        -4.5000  33.7500 -27.7500 Du        
    533 ****        -4.5000  34.0000 -28.7500 Du        
    534 ****        -4.5000  34.0000 -28.5000 Du        
    535 ****        -4.5000  34.0000 -28.2500 Du        
    536 ****        -4.5000  34.0000 -28.0000 Du        
    537 ****        -4.5000  34.2500 -28.7500 Du        
    538 ****        -4.5000  34.2500 -28.5000 Du        
    539 ****        -4.5000  34.2500 -28.2500 Du        
    540 ****        -4.5000  34.2500 -28.0000 Du        
    541 ****        -4.5000  34.5000 -28.7500 Du        
    542 ****        -4.5000  34.5000 -28.5000 Du        
    543 ****        -4.5000  34.5000 -28.2500 Du        
    544 ****        -4.5000  34.7500 -28.7500 Du        
    545 ****        -4.5000  34.7500 -28.5000 Du        
    546 ****        -4.5000  34.7500 -28.2500 Du        
    547 ****        -4.5000  35.0000 -28.7500 Du        
    548 ****        -4.5000  35.0000 -28.5000 Du        
    549 ****        -4.5000  35.2500 -28.7500 Du        
    550 ****        -4.5000  35.2500 -28.5000 Du        
    551 ****        -4.2500  28.7500 -30.5000 Du        
    552 ****        -4.2500  28.7500 -30.2500 Du        
    553 ****        -4.2500  28.7500 -30.0000 Du        
    554 ****        -4.2500  29.0000 -30.7500 Du        
    555 ****        -4.2500  29.0000 -30.5000 Du        
    556 ****        -4.2500  29.0000 -30.2500 Du        
    557 ****        -4.2500  29.0000 -30.0000 Du        
    558 ****        -4.2500  29.0000 -29.7500 Du        
    559 ****        -4.2500  29.0000 -29.2500 Du        
    560 ****        -4.2500  29.2500 -30.7500 Du        
    561 ****        -4.2500  29.2500 -30.5000 Du        
    562 ****        -4.2500  29.2500 -30.2500 Du        
    563 ****        -4.2500  29.2500 -30.0000 Du        
    564 ****        -4.2500  29.2500 -29.7500 Du        
    565 ****        -4.2500  29.2500 -29.5000 Du        
    566 ****        -4.2500  29.2500 -29.2500 Du        
    567 ****        -4.2500  29.2500 -29.0000 Du        
    568 ****        -4.2500  29.5000 -30.7500 Du        
    569 ****        -4.2500  29.5000 -30.5000 Du        
    570 ****        -4.2500  29.5000 -30.2500 Du        
    571 ****        -4.2500  29.5000 -30.0000 Du        
    572 ****        -4.2500  29.5000 -29.7500 Du        
    573 ****        -4.2500  29.5000 -29.5000 Du        
    574 ****        -4.2500  29.5000 -29.2500 Du        
    575 ****        -4.2500  29.5000 -29.0000 Du        
    576 ****        -4.2500  29.5000 -28.7500 Du        
    577 ****        -4.2500  29.5000 -28.5000 Du        
    578 ****        -4.2500  29.7500 -30.5000 Du        
    579 ****        -4.2500  29.7500 -30.2500 Du        
    580 ****        -4.2500  29.7500 -30.0000 Du        
    581 ****        -4.2500  29.7500 -29.7500 Du        
    582 ****        -4.2500  29.7500 -29.5000 Du        
    583 ****        -4.2500  29.7500 -29.2500 Du        
    584 ****        -4.2500  29.7500 -29.0000 Du        
    585 ****        -4.2500  29.7500 -28.7500 Du        
    586 ****        -4.2500  29.7500 -28.5000 Du        
    587 ****        -4.2500  30.0000 -30.5000 Du        
    588 ****        -4.2500  30.0000 -30.2500 Du        
    589 ****        -4.2500  30.0000 -30.0000 Du        
    590 ****        -4.2500  30.0000 -29.7500 Du        
    591 ****        -4.2500  30.0000 -29.5000 Du        
    592 ****        -4.2500  30.0000 -29.2500 Du        
    593 ****        -4.2500  30.0000 -29.0000 Du        
    594 ****        -4.2500  30.0000 -28.7500 Du        
    595 ****        -4.2500  30.0000 -28.5000 Du        
    596 ****        -4.2500  30.0000 -28.2500 Du        
    597 ****        -4.2500  30.2500 -30.2500 Du        
    598 ****        -4.2500  30.2500 -30.0000 Du        
    599 ****        -4.2500  30.2500 -29.7500 Du        
    600 ****        -4.2500  30.2500 -29.5000 Du        
    601 ****        -4.2500  30.2500 -29.2500 Du        
    602 ****        -4.2500  30.2500 -29.0000 Du        
    603 ****        -4.2500  30.2500 -28.7500 Du        
    604 ****        -4.2500  30.2500 -28.5000 Du        
    605 ****        -4.2500  30.2500 -28.2500 Du        
    606 ****        -4.2500  30.5000 -30.0000 Du        
    607 ****        -4.2500  30.5000 -29.7500 Du        
    608 ****        -4.2500  30.5000 -29.5000 Du        
    609 ****        -4.2500  30.5000 -29.2500 Du        
    610 ****        -4.2500  30.5000 -29.0000 Du        
    611 ****        -4.2500  30.5000 -28.7500 Du        
    612 ****        -4.2500  30.5000 -28.5000 Du        
    613 ****        -4.2500  30.5000 -28.2500 Du        
    614 ****        -4.2500  30.7500 -29.7500 Du        
    615 ****        -4.2500  30.7500 -29.5000 Du        
    616 ****        -4.2500  30.7500 -29.2500 Du        
    617 ****        -4.2500  30.7500 -29.0000 Du        
    618 ****        -4.2500  30.7500 -28.7500 Du        
    619 ****        -4.2500  30.7500 -28.5000 Du        
    620 ****        -4.2500  30.7500 -28.2500 Du        
    621 ****        -4.2500  30.7500 -28.0000 Du        
    622 ****        -4.2500  31.0000 -29.5000 Du        
    623 ****        -4.2500  31.0000 -29.2500 Du        
    624 ****        -4.2500  31.0000 -29.0000 Du        
    625 ****        -4.2500  31.0000 -28.7500 Du        
    626 ****        -4.2500  31.0000 -28.5000 Du        
    627 ****        -4.2500  31.0000 -28.2500 Du        
    628 ****        -4.2500  31.0000 -28.0000 Du        
    629 ****        -4.2500  31.2500 -29.2500 Du        
    630 ****        -4.2500  31.2500 -29.0000 Du        
    631 ****        -4.2500  31.2500 -28.7500 Du        
    632 ****        -4.2500  31.2500 -28.5000 Du        
    633 ****        -4.2500  31.2500 -28.2500 Du        
    634 ****        -4.2500  31.2500 -28.0000 Du        
    635 ****        -4.2500  31.2500 -27.7500 Du        
    636 ****        -4.2500  31.5000 -29.2500 Du        
    637 ****        -4.2500  31.5000 -29.0000 Du        
    638 ****        -4.2500  31.5000 -28.7500 Du        
    639 ****        -4.2500  31.5000 -28.5000 Du        
    640 ****        -4.2500  31.5000 -28.2500 Du        
    641 ****        -4.2500  31.5000 -28.0000 Du        
    642 ****        -4.2500  31.5000 -27.7500 Du        
    643 ****        -4.2500  31.5000 -27.5000 Du        
    644 ****        -4.2500  31.7500 -29.0000 Du        
    645 ****        -4.2500  31.7500 -28.7500 Du        
    646 ****        -4.2500  31.7500 -28.5000 Du        
    647 ****        -4.2500  31.7500 -28.2500 Du        
    648 ****        -4.2500  31.7500 -28.0000 Du        
    649 ****        -4.2500  31.7500 -27.7500 Du        
    650 ****        -4.2500  31.7500 -27.5000 Du        
    651 ****        -4.2500  31.7500 -27.2500 Du        
    652 ****        -4.2500  32.0000 -29.0000 Du        
    653 ****        -4.2500  32.0000 -28.7500 Du        
    654 ****        -4.2500  32.0000 -28.5000 Du        
    655 ****        -4.2500  32.0000 -28.2500 Du        
    656 ****        -4.2500  32.0000 -28.0000 Du        
    657 ****        -4.2500  32.0000 -27.7500 Du        
    658 ****        -4.2500  32.0000 -27.5000 Du        
    659 ****        -4.2500  32.0000 -27.2500 Du        
    660 ****        -4.2500  32.2500 -28.7500 Du        
    661 ****        -4.2500  32.2500 -28.5000 Du        
    662 ****        -4.2500  32.2500 -28.2500 Du        
    663 ****        -4.2500  32.2500 -28.0000 Du        
    664 ****        -4.2500  32.2500 -27.7500 Du        
    665 ****        -4.2500  32.2500 -27.5000 Du        
    666 ****        -4.2500  32.2500 -27.2500 Du        
    667 ****        -4.2500  32.2500 -27.0000 Du        
    668 ****        -4.2500  32.5000 -28.7500 Du        
    669 ****        -4.2500  32.5000 -28.5000 Du        
    670 ****        -4.2500  32.5000 -28.2500 Du        
    671 ****        -4.2500  32.5000 -28.0000 Du        
    672 ****        -4.2500  32.5000 -27.7500 Du        
    673 ****        -4.2500  32.5000 -27.5000 Du        
    674 ****        -4.2500  32.5000 -27.2500 Du        
    675 ****        -4.2500  32.5000 -27.0000 Du        
    676 ****        -4.2500  32.7500 -28.7500 Du        
    677 ****        -4.2500  32.7500 -28.5000 Du        
    678 ****        -4.2500  32.7500 -28.2500 Du        
    679 ****        -4.2500  32.7500 -28.0000 Du        
    680 ****        -4.2500  32.7500 -27.7500 Du        
    681 ****        -4.2500  32.7500 -27.5000 Du        
    682 ****        -4.2500  32.7500 -27.2500 Du        
    683 ****        -4.2500  32.7500 -27.0000 Du        
    684 ****        -4.2500  33.0000 -28.7500 Du        
    685 ****        -4.2500  33.0000 -28.5000 Du        
    686 ****        -4.2500  33.0000 -28.2500 Du        
    687 ****        -4.2500  33.0000 -28.0000 Du        
    688 ****        -4.2500  33.0000 -27.7500 Du        
    689 ****        -4.2500  33.0000 -27.5000 Du        
    690 ****        -4.2500  33.0000 -27.2500 Du        
    691 ****        -4.2500  33.2500 -28.7500 Du        
    692 ****        -4.2500  33.2500 -28.5000 Du        
    693 ****        -4.2500  33.2500 -28.2500 Du        
    694 ****        -4.2500  33.2500 -28.0000 Du        
    695 ****        -4.2500  33.2500 -27.7500 Du        
    696 ****        -4.2500  33.2500 -27.5000 Du        
    697 ****        -4.2500  33.2500 -27.2500 Du        
    698 ****        -4.2500  33.5000 -28.7500 Du        
    699 ****        -4.2500  33.5000 -28.5000 Du        
    700 ****        -4.2500  33.5000 -28.2500 Du        
    701 ****        -4.2500  33.5000 -28.0000 Du        
    702 ****        -4.2500  33.5000 -27.7500 Du        
    703 ****        -4.2500  33.5000 -27.5000 Du        
    704 ****        -4.2500  33.7500 -28.7500 Du        
    705 ****        -4.2500  33.7500 -28.5000 Du        
    706 ****        -4.2500  33.7500 -28.2500 Du        
    707 ****        -4.2500  33.7500 -28.0000 Du        
    708 ****        -4.2500  33.7500 -27.7500 Du        
    709 ****        -4.2500  34.0000 -28.7500 Du        
    710 ****        -4.2500  34.0000 -28.5000 Du        
    711 ****        -4.2500  34.0000 -28.2500 Du        
    712 ****        -4.2500  34.0000 -28.0000 Du        
    713 ****        -4.2500  34.0000 -27.7500 Du        
    714 ****        -4.2500  34.2500 -28.7500 Du        
    715 ****        -4.2500  34.2500 -28.5000 Du        
    716 ****        -4.2500  34.2500 -28.2500 Du        
    717 ****        -4.2500  34.2500 -28.0000 Du        
    718 ****        -4.2500  34.5000 -28.7500 Du        
    719 ****        -4.2500  34.5000 -28.5000 Du        
    720 ****        -4.2500  34.5000 -28.2500 Du        
    721 ****        -4.2500  34.5000 -28.0000 Du        
    722 ****        -4.2500  34.7500 -28.7500 Du        
    723 ****        -4.2500  34.7500 -28.5000 Du        
    724 ****        -4.2500  34.7500 -28.2500 Du        
    725 ****        -4.2500  35.0000 -28.7500 Du        
    726 ****        -4.2500  35.0000 -28.5000 Du        
    727 ****        -4.2500  35.0000 -28.2500 Du        
    728 ****        -4.2500  35.2500 -28.5000 Du        
    729 ****        -4.2500  35.5000 -28.5000 Du        
    730 ****        -4.0000  29.2500 -30.2500 Du        
    731 ****        -4.0000  29.2500 -30.0000 Du        
    732 ****        -4.0000  29.2500 -29.7500 Du        
    733 ****        -4.0000  29.5000 -30.7500 Du        
    734 ****        -4.0000  29.5000 -30.5000 Du        
    735 ****        -4.0000  29.5000 -30.2500 Du        
    736 ****        -4.0000  29.5000 -30.0000 Du        
    737 ****        -4.0000  29.5000 -29.7500 Du        
    738 ****        -4.0000  29.5000 -29.5000 Du        
    739 ****        -4.0000  29.5000 -29.2500 Du        
    740 ****        -4.0000  29.5000 -29.0000 Du        
    741 ****        -4.0000  29.5000 -28.7500 Du        
    742 ****        -4.0000  29.7500 -30.5000 Du        
    743 ****        -4.0000  29.7500 -30.2500 Du        
    744 ****        -4.0000  29.7500 -30.0000 Du        
    745 ****        -4.0000  29.7500 -29.7500 Du        
    746 ****        -4.0000  29.7500 -29.5000 Du        
    747 ****        -4.0000  29.7500 -29.2500 Du        
    748 ****        -4.0000  29.7500 -29.0000 Du        
    749 ****        -4.0000  29.7500 -28.7500 Du        
    750 ****        -4.0000  29.7500 -28.5000 Du        
    751 ****        -4.0000  29.7500 -28.2500 Du        
    752 ****        -4.0000  30.0000 -30.2500 Du        
    753 ****        -4.0000  30.0000 -30.0000 Du        
    754 ****        -4.0000  30.0000 -29.7500 Du        
    755 ****        -4.0000  30.0000 -29.5000 Du        
    756 ****        -4.0000  30.0000 -29.2500 Du        
    757 ****        -4.0000  30.0000 -29.0000 Du        
    758 ****        -4.0000  30.0000 -28.7500 Du        
    759 ****        -4.0000  30.0000 -28.5000 Du        
    760 ****        -4.0000  30.0000 -28.2500 Du        
    761 ****        -4.0000  30.0000 -28.0000 Du        
    762 ****        -4.0000  30.2500 -30.0000 Du        
    763 ****        -4.0000  30.2500 -29.7500 Du        
    764 ****        -4.0000  30.2500 -29.5000 Du        
    765 ****        -4.0000  30.2500 -29.2500 Du        
    766 ****        -4.0000  30.2500 -29.0000 Du        
    767 ****        -4.0000  30.2500 -28.7500 Du        
    768 ****        -4.0000  30.2500 -28.5000 Du        
    769 ****        -4.0000  30.2500 -28.2500 Du        
    770 ****        -4.0000  30.2500 -28.0000 Du        
    771 ****        -4.0000  30.5000 -29.7500 Du        
    772 ****        -4.0000  30.5000 -29.5000 Du        
    773 ****        -4.0000  30.5000 -29.2500 Du        
    774 ****        -4.0000  30.5000 -29.0000 Du        
    775 ****        -4.0000  30.5000 -28.7500 Du        
    776 ****        -4.0000  30.5000 -28.5000 Du        
    777 ****        -4.0000  30.5000 -28.2500 Du        
    778 ****        -4.0000  30.5000 -28.0000 Du        
    779 ****        -4.0000  30.7500 -29.5000 Du        
    780 ****        -4.0000  30.7500 -29.2500 Du        
    781 ****        -4.0000  30.7500 -29.0000 Du        
    782 ****        -4.0000  30.7500 -28.7500 Du        
    783 ****        -4.0000  30.7500 -28.5000 Du        
    784 ****        -4.0000  30.7500 -28.2500 Du        
    785 ****        -4.0000  30.7500 -28.0000 Du        
    786 ****        -4.0000  30.7500 -27.7500 Du        
    787 ****        -4.0000  31.0000 -29.5000 Du        
    788 ****        -4.0000  31.0000 -29.2500 Du        
    789 ****        -4.0000  31.0000 -29.0000 Du        
    790 ****        -4.0000  31.0000 -28.7500 Du        
    791 ****        -4.0000  31.0000 -28.5000 Du        
    792 ****        -4.0000  31.0000 -28.2500 Du        
    793 ****        -4.0000  31.0000 -28.0000 Du        
    794 ****        -4.0000  31.0000 -27.7500 Du        
    795 ****        -4.0000  31.2500 -29.2500 Du        
    796 ****        -4.0000  31.2500 -29.0000 Du        
    797 ****        -4.0000  31.2500 -28.7500 Du        
    798 ****        -4.0000  31.2500 -28.5000 Du        
    799 ****        -4.0000  31.2500 -28.2500 Du        
    800 ****        -4.0000  31.2500 -28.0000 Du        
    801 ****        -4.0000  31.2500 -27.7500 Du        
    802 ****        -4.0000  31.2500 -27.5000 Du        
    803 ****        -4.0000  31.5000 -29.2500 Du        
    804 ****        -4.0000  31.5000 -29.0000 Du        
    805 ****        -4.0000  31.5000 -28.7500 Du        
    806 ****        -4.0000  31.5000 -28.5000 Du        
    807 ****        -4.0000  31.5000 -28.2500 Du        
    808 ****        -4.0000  31.5000 -28.0000 Du        
    809 ****        -4.0000  31.5000 -27.7500 Du        
    810 ****        -4.0000  31.5000 -27.5000 Du        
    811 ****        -4.0000  31.5000 -27.2500 Du        
    812 ****        -4.0000  31.7500 -29.0000 Du        
    813 ****        -4.0000  31.7500 -28.7500 Du        
    814 ****        -4.0000  31.7500 -28.5000 Du        
    815 ****        -4.0000  31.7500 -28.2500 Du        
    816 ****        -4.0000  31.7500 -28.0000 Du        
    817 ****        -4.0000  31.7500 -27.7500 Du        
    818 ****        -4.0000  31.7500 -27.5000 Du        
    819 ****        -4.0000  31.7500 -27.2500 Du        
    820 ****        -4.0000  31.7500 -27.0000 Du        
    821 ****        -4.0000  32.0000 -29.0000 Du        
    822 ****        -4.0000  32.0000 -28.7500 Du        
    823 ****        -4.0000  32.0000 -28.5000 Du        
    824 ****        -4.0000  32.0000 -28.2500 Du        
    825 ****        -4.0000  32.0000 -28.0000 Du        
    826 ****        -4.0000  32.0000 -27.7500 Du        
    827 ****        -4.0000  32.0000 -27.5000 Du        
    828 ****        -4.0000  32.0000 -27.2500 Du        
    829 ****        -4.0000  32.0000 -27.0000 Du        
    830 ****        -4.0000  32.2500 -29.0000 Du        
    831 ****        -4.0000  32.2500 -28.7500 Du        
    832 ****        -4.0000  32.2500 -28.5000 Du        
    833 ****        -4.0000  32.2500 -28.2500 Du        
    834 ****        -4.0000  32.2500 -28.0000 Du        
    835 ****        -4.0000  32.2500 -27.7500 Du        
    836 ****        -4.0000  32.2500 -27.5000 Du        
    837 ****        -4.0000  32.2500 -27.2500 Du        
    838 ****        -4.0000  32.2500 -27.0000 Du        
    839 ****        -4.0000  32.2500 -26.7500 Du        
    840 ****        -4.0000  32.5000 -28.7500 Du        
    841 ****        -4.0000  32.5000 -28.5000 Du        
    842 ****        -4.0000  32.5000 -28.2500 Du        
    843 ****        -4.0000  32.5000 -28.0000 Du        
    844 ****        -4.0000  32.5000 -27.7500 Du        
    845 ****        -4.0000  32.5000 -27.5000 Du        
    846 ****        -4.0000  32.5000 -27.2500 Du        
    847 ****        -4.0000  32.5000 -27.0000 Du        
    848 ****        -4.0000  32.5000 -26.7500 Du        
    849 ****        -4.0000  32.7500 -28.7500 Du        
    850 ****        -4.0000  32.7500 -28.5000 Du        
    851 ****        -4.0000  32.7500 -28.2500 Du        
    852 ****        -4.0000  32.7500 -28.0000 Du        
    853 ****        -4.0000  32.7500 -27.7500 Du        
    854 ****        -4.0000  32.7500 -27.5000 Du        
    855 ****        -4.0000  32.7500 -27.2500 Du        
    856 ****        -4.0000  32.7500 -27.0000 Du        
    857 ****        -4.0000  32.7500 -26.7500 Du        
    858 ****        -4.0000  33.0000 -28.7500 Du        
    859 ****        -4.0000  33.0000 -28.5000 Du        
    860 ****        -4.0000  33.0000 -28.2500 Du        
    861 ****        -4.0000  33.0000 -28.0000 Du        
    862 ****        -4.0000  33.0000 -27.7500 Du        
    863 ****        -4.0000  33.0000 -27.5000 Du        
    864 ****        -4.0000  33.0000 -27.2500 Du        
    865 ****        -4.0000  33.0000 -27.0000 Du        
    866 ****        -4.0000  33.2500 -28.7500 Du        
    867 ****        -4.0000  33.2500 -28.5000 Du        
    868 ****        -4.0000  33.2500 -28.2500 Du        
    869 ****        -4.0000  33.2500 -28.0000 Du        
    870 ****        -4.0000  33.2500 -27.7500 Du        
    871 ****        -4.0000  33.2500 -27.5000 Du        
    872 ****        -4.0000  33.2500 -27.2500 Du        
    873 ****        -4.0000  33.2500 -27.0000 Du        
    874 ****        -4.0000  33.5000 -29.0000 Du        
    875 ****        -4.0000  33.5000 -28.7500 Du        
    876 ****        -4.0000  33.5000 -28.5000 Du        
    877 ****        -4.0000  33.5000 -28.2500 Du        
    878 ****        -4.0000  33.5000 -28.0000 Du        
    879 ****        -4.0000  33.5000 -27.7500 Du        
    880 ****        -4.0000  33.5000 -27.5000 Du        
    881 ****        -4.0000  33.5000 -27.2500 Du        
    882 ****        -4.0000  33.7500 -29.0000 Du        
    883 ****        -4.0000  33.7500 -28.7500 Du        
    884 ****        -4.0000  33.7500 -28.5000 Du        
    885 ****        -4.0000  33.7500 -28.2500 Du        
    886 ****        -4.0000  33.7500 -28.0000 Du        
    887 ****        -4.0000  33.7500 -27.7500 Du        
    888 ****        -4.0000  33.7500 -27.5000 Du        
    889 ****        -4.0000  34.0000 -29.0000 Du        
    890 ****        -4.0000  34.0000 -28.7500 Du        
    891 ****        -4.0000  34.0000 -28.5000 Du        
    892 ****        -4.0000  34.0000 -28.2500 Du        
    893 ****        -4.0000  34.0000 -28.0000 Du        
    894 ****        -4.0000  34.0000 -27.7500 Du        
    895 ****        -4.0000  34.2500 -28.7500 Du        
    896 ****        -4.0000  34.2500 -28.5000 Du        
    897 ****        -4.0000  34.2500 -28.2500 Du        
    898 ****        -4.0000  34.2500 -28.0000 Du        
    899 ****        -4.0000  34.2500 -27.7500 Du        
    900 ****        -4.0000  34.5000 -28.7500 Du        
    901 ****        -4.0000  34.5000 -28.5000 Du        
    902 ****        -4.0000  34.5000 -28.2500 Du        
    903 ****        -4.0000  34.5000 -28.0000 Du        
    904 ****        -4.0000  34.7500 -28.7500 Du        
    905 ****        -4.0000  34.7500 -28.5000 Du        
    906 ****        -4.0000  34.7500 -28.2500 Du        
    907 ****        -4.0000  34.7500 -28.0000 Du        
    908 ****        -4.0000  35.0000 -28.7500 Du        
    909 ****        -4.0000  35.0000 -28.5000 Du        
    910 ****        -4.0000  35.0000 -28.2500 Du        
    911 ****        -4.0000  35.2500 -28.5000 Du        
    912 ****        -3.7500  29.7500 -30.0000 Du        
    913 ****        -3.7500  29.7500 -29.7500 Du        
    914 ****        -3.7500  29.7500 -29.2500 Du        
    915 ****        -3.7500  29.7500 -29.0000 Du        
    916 ****        -3.7500  30.0000 -29.7500 Du        
    917 ****        -3.7500  30.0000 -29.5000 Du        
    918 ****        -3.7500  30.0000 -29.2500 Du        
    919 ****        -3.7500  30.0000 -29.0000 Du        
    920 ****        -3.7500  30.0000 -28.7500 Du        
    921 ****        -3.7500  30.0000 -28.5000 Du        
    922 ****        -3.7500  30.0000 -28.2500 Du        
    923 ****        -3.7500  30.2500 -29.7500 Du        
    924 ****        -3.7500  30.2500 -29.2500 Du        
    925 ****        -3.7500  30.2500 -29.0000 Du        
    926 ****        -3.7500  30.2500 -28.7500 Du        
    927 ****        -3.7500  30.2500 -28.5000 Du        
    928 ****        -3.7500  30.2500 -28.2500 Du        
    929 ****        -3.7500  30.2500 -28.0000 Du        
    930 ****        -3.7500  30.5000 -29.5000 Du        
    931 ****        -3.7500  30.5000 -29.2500 Du        
    932 ****        -3.7500  30.5000 -29.0000 Du        
    933 ****        -3.7500  30.5000 -28.7500 Du        
    934 ****        -3.7500  30.5000 -28.5000 Du        
    935 ****        -3.7500  30.5000 -28.2500 Du        
    936 ****        -3.7500  30.5000 -28.0000 Du        
    937 ****        -3.7500  30.5000 -27.7500 Du        
    938 ****        -3.7500  30.7500 -29.5000 Du        
    939 ****        -3.7500  30.7500 -29.2500 Du        
    940 ****        -3.7500  30.7500 -29.0000 Du        
    941 ****        -3.7500  30.7500 -28.7500 Du        
    942 ****        -3.7500  30.7500 -28.5000 Du        
    943 ****        -3.7500  30.7500 -28.2500 Du        
    944 ****        -3.7500  30.7500 -28.0000 Du        
    945 ****        -3.7500  30.7500 -27.7500 Du        
    946 ****        -3.7500  31.0000 -29.2500 Du        
    947 ****        -3.7500  31.0000 -29.0000 Du        
    948 ****        -3.7500  31.0000 -28.7500 Du        
    949 ****        -3.7500  31.0000 -28.5000 Du        
    950 ****        -3.7500  31.0000 -28.2500 Du        
    951 ****        -3.7500  31.0000 -28.0000 Du        
    952 ****        -3.7500  31.0000 -27.7500 Du        
    953 ****        -3.7500  31.0000 -27.5000 Du        
    954 ****        -3.7500  31.2500 -29.2500 Du        
    955 ****        -3.7500  31.2500 -29.0000 Du        
    956 ****        -3.7500  31.2500 -28.7500 Du        
    957 ****        -3.7500  31.2500 -28.5000 Du        
    958 ****        -3.7500  31.2500 -28.2500 Du        
    959 ****        -3.7500  31.2500 -28.0000 Du        
    960 ****        -3.7500  31.2500 -27.7500 Du        
    961 ****        -3.7500  31.2500 -27.5000 Du        
    962 ****        -3.7500  31.2500 -27.2500 Du        
    963 ****        -3.7500  31.5000 -29.0000 Du        
    964 ****        -3.7500  31.5000 -28.7500 Du        
    965 ****        -3.7500  31.5000 -28.5000 Du        
    966 ****        -3.7500  31.5000 -28.2500 Du        
    967 ****        -3.7500  31.5000 -28.0000 Du        
    968 ****        -3.7500  31.5000 -27.7500 Du        
    969 ****        -3.7500  31.5000 -27.5000 Du        
    970 ****        -3.7500  31.5000 -27.2500 Du        
    971 ****        -3.7500  31.5000 -27.0000 Du        
    972 ****        -3.7500  31.7500 -29.0000 Du        
    973 ****        -3.7500  31.7500 -28.7500 Du        
    974 ****        -3.7500  31.7500 -28.5000 Du        
    975 ****        -3.7500  31.7500 -28.2500 Du        
    976 ****        -3.7500  31.7500 -28.0000 Du        
    977 ****        -3.7500  31.7500 -27.7500 Du        
    978 ****        -3.7500  31.7500 -27.5000 Du        
    979 ****        -3.7500  31.7500 -27.2500 Du        
    980 ****        -3.7500  31.7500 -27.0000 Du        
    981 ****        -3.7500  31.7500 -26.7500 Du        
    982 ****        -3.7500  32.0000 -29.0000 Du        
    983 ****        -3.7500  32.0000 -28.7500 Du        
    984 ****        -3.7500  32.0000 -28.5000 Du        
    985 ****        -3.7500  32.0000 -28.2500 Du        
    986 ****        -3.7500  32.0000 -28.0000 Du        
    987 ****        -3.7500  32.0000 -27.7500 Du        
    988 ****        -3.7500  32.0000 -27.5000 Du        
    989 ****        -3.7500  32.0000 -27.2500 Du        
    990 ****        -3.7500  32.0000 -27.0000 Du        
    991 ****        -3.7500  32.0000 -26.7500 Du        
    992 ****        -3.7500  32.2500 -29.0000 Du        
    993 ****        -3.7500  32.2500 -28.7500 Du        
    994 ****        -3.7500  32.2500 -28.5000 Du        
    995 ****        -3.7500  32.2500 -28.2500 Du        
    996 ****        -3.7500  32.2500 -28.0000 Du        
    997 ****        -3.7500  32.2500 -27.7500 Du        
    998 ****        -3.7500  32.2500 -27.5000 Du        
    999 ****        -3.7500  32.2500 -27.2500 Du        
   1000 ****        -3.7500  32.2500 -27.0000 Du        
   1001 ****        -3.7500  32.2500 -26.7500 Du        
   1002 ****        -3.7500  32.5000 -29.0000 Du        
   1003 ****        -3.7500  32.5000 -28.7500 Du        
   1004 ****        -3.7500  32.5000 -28.5000 Du        
   1005 ****        -3.7500  32.5000 -28.2500 Du        
   1006 ****        -3.7500  32.5000 -28.0000 Du        
   1007 ****        -3.7500  32.5000 -27.7500 Du        
   1008 ****        -3.7500  32.5000 -27.5000 Du        
   1009 ****        -3.7500  32.5000 -27.2500 Du        
   1010 ****        -3.7500  32.5000 -27.0000 Du        
   1011 ****        -3.7500  32.5000 -26.7500 Du        
   1012 ****        -3.7500  32.5000 -26.5000 Du        
   1013 ****        -3.7500  32.7500 -29.0000 Du        
   1014 ****        -3.7500  32.7500 -28.7500 Du        
   1015 ****        -3.7500  32.7500 -28.5000 Du        
   1016 ****        -3.7500  32.7500 -28.2500 Du        
   1017 ****        -3.7500  32.7500 -28.0000 Du        
   1018 ****        -3.7500  32.7500 -27.7500 Du        
   1019 ****        -3.7500  32.7500 -27.5000 Du        
   1020 ****        -3.7500  32.7500 -27.2500 Du        
   1021 ****        -3.7500  32.7500 -27.0000 Du        
   1022 ****        -3.7500  32.7500 -26.7500 Du        
   1023 ****        -3.7500  32.7500 -26.5000 Du        
   1024 ****        -3.7500  33.0000 -29.0000 Du        
   1025 ****        -3.7500  33.0000 -28.7500 Du        
   1026 ****        -3.7500  33.0000 -28.5000 Du        
   1027 ****        -3.7500  33.0000 -28.2500 Du        
   1028 ****        -3.7500  33.0000 -28.0000 Du        
   1029 ****        -3.7500  33.0000 -27.7500 Du        
   1030 ****        -3.7500  33.0000 -27.5000 Du        
   1031 ****        -3.7500  33.0000 -27.2500 Du        
   1032 ****        -3.7500  33.0000 -27.0000 Du        
   1033 ****        -3.7500  33.0000 -26.7500 Du        
   1034 ****        -3.7500  33.2500 -29.0000 Du        
   1035 ****        -3.7500  33.2500 -28.7500 Du        
   1036 ****        -3.7500  33.2500 -28.5000 Du        
   1037 ****        -3.7500  33.2500 -28.2500 Du        
   1038 ****        -3.7500  33.2500 -28.0000 Du        
   1039 ****        -3.7500  33.2500 -27.7500 Du        
   1040 ****        -3.7500  33.2500 -27.5000 Du        
   1041 ****        -3.7500  33.2500 -27.2500 Du        
   1042 ****        -3.7500  33.2500 -27.0000 Du        
   1043 ****        -3.7500  33.5000 -29.0000 Du        
   1044 ****        -3.7500  33.5000 -28.7500 Du        
   1045 ****        -3.7500  33.5000 -28.5000 Du        
   1046 ****        -3.7500  33.5000 -28.2500 Du        
   1047 ****        -3.7500  33.5000 -28.0000 Du        
   1048 ****        -3.7500  33.5000 -27.7500 Du        
   1049 ****        -3.7500  33.5000 -27.5000 Du        
   1050 ****        -3.7500  33.5000 -27.2500 Du        
   1051 ****        -3.7500  33.5000 -27.0000 Du        
   1052 ****        -3.7500  33.7500 -29.0000 Du        
   1053 ****        -3.7500  33.7500 -28.7500 Du        
   1054 ****        -3.7500  33.7500 -28.5000 Du        
   1055 ****        -3.7500  33.7500 -28.2500 Du        
   1056 ****        -3.7500  33.7500 -28.0000 Du        
   1057 ****        -3.7500  33.7500 -27.7500 Du        
   1058 ****        -3.7500  33.7500 -27.5000 Du        
   1059 ****        -3.7500  33.7500 -27.2500 Du        
   1060 ****        -3.7500  34.0000 -29.0000 Du        
   1061 ****        -3.7500  34.0000 -28.7500 Du        
   1062 ****        -3.7500  34.0000 -28.5000 Du        
   1063 ****        -3.7500  34.0000 -28.2500 Du        
   1064 ****        -3.7500  34.0000 -28.0000 Du        
   1065 ****        -3.7500  34.0000 -27.7500 Du        
   1066 ****        -3.7500  34.0000 -27.5000 Du        
   1067 ****        -3.7500  34.2500 -28.7500 Du        
   1068 ****        -3.7500  34.2500 -28.5000 Du        
   1069 ****        -3.7500  34.2500 -28.2500 Du        
   1070 ****        -3.7500  34.2500 -28.0000 Du        
   1071 ****        -3.7500  34.2500 -27.7500 Du        
   1072 ****        -3.7500  34.5000 -28.7500 Du        
   1073 ****        -3.7500  34.5000 -28.5000 Du        
   1074 ****        -3.7500  34.5000 -28.2500 Du        
   1075 ****        -3.7500  34.5000 -28.0000 Du        
   1076 ****        -3.7500  34.5000 -27.7500 Du        
   1077 ****        -3.7500  34.7500 -28.7500 Du        
   1078 ****        -3.7500  34.7500 -28.5000 Du        
   1079 ****        -3.7500  34.7500 -28.2500 Du        
   1080 ****        -3.7500  34.7500 -28.0000 Du        
   1081 ****        -3.7500  35.0000 -28.5000 Du        
   1082 ****        -3.7500  35.0000 -28.2500 Du        
   1083 ****        -3.7500  35.2500 -28.5000 Du        
   1084 ****        -3.5000  30.5000 -29.2500 Du        
   1085 ****        -3.5000  30.5000 -29.0000 Du        
   1086 ****        -3.5000  30.5000 -28.7500 Du        
   1087 ****        -3.5000  30.5000 -28.2500 Du        
   1088 ****        -3.5000  30.5000 -28.0000 Du        
   1089 ****        -3.5000  30.5000 -27.7500 Du        
   1090 ****        -3.5000  30.7500 -29.2500 Du        
   1091 ****        -3.5000  30.7500 -29.0000 Du        
   1092 ****        -3.5000  30.7500 -28.7500 Du        
   1093 ****        -3.5000  30.7500 -28.5000 Du        
   1094 ****        -3.5000  30.7500 -28.2500 Du        
   1095 ****        -3.5000  30.7500 -28.0000 Du        
   1096 ****        -3.5000  30.7500 -27.7500 Du        
   1097 ****        -3.5000  30.7500 -27.5000 Du        
   1098 ****        -3.5000  30.7500 -27.2500 Du        
   1099 ****        -3.5000  31.0000 -29.2500 Du        
   1100 ****        -3.5000  31.0000 -29.0000 Du        
   1101 ****        -3.5000  31.0000 -28.7500 Du        
   1102 ****        -3.5000  31.0000 -28.5000 Du        
   1103 ****        -3.5000  31.0000 -28.2500 Du        
   1104 ****        -3.5000  31.0000 -28.0000 Du        
   1105 ****        -3.5000  31.0000 -27.7500 Du        
   1106 ****        -3.5000  31.0000 -27.5000 Du        
   1107 ****        -3.5000  31.0000 -27.2500 Du        
   1108 ****        -3.5000  31.0000 -27.0000 Du        
   1109 ****        -3.5000  31.2500 -29.0000 Du        
   1110 ****        -3.5000  31.2500 -28.7500 Du        
   1111 ****        -3.5000  31.2500 -28.5000 Du        
   1112 ****        -3.5000  31.2500 -28.2500 Du        
   1113 ****        -3.5000  31.2500 -28.0000 Du        
   1114 ****        -3.5000  31.2500 -27.7500 Du        
   1115 ****        -3.5000  31.2500 -27.5000 Du        
   1116 ****        -3.5000  31.2500 -27.2500 Du        
   1117 ****        -3.5000  31.2500 -27.0000 Du        
   1118 ****        -3.5000  31.5000 -29.0000 Du        
   1119 ****        -3.5000  31.5000 -28.7500 Du        
   1120 ****        -3.5000  31.5000 -28.5000 Du        
   1121 ****        -3.5000  31.5000 -28.2500 Du        
   1122 ****        -3.5000  31.5000 -28.0000 Du        
   1123 ****        -3.5000  31.5000 -27.7500 Du        
   1124 ****        -3.5000  31.5000 -27.5000 Du        
   1125 ****        -3.5000  31.5000 -27.2500 Du        
   1126 ****        -3.5000  31.5000 -27.0000 Du        
   1127 ****        -3.5000  31.5000 -26.7500 Du        
   1128 ****        -3.5000  31.7500 -29.0000 Du        
   1129 ****        -3.5000  31.7500 -28.7500 Du        
   1130 ****        -3.5000  31.7500 -28.5000 Du        
   1131 ****        -3.5000  31.7500 -28.2500 Du        
   1132 ****        -3.5000  31.7500 -28.0000 Du        
   1133 ****        -3.5000  31.7500 -27.7500 Du        
   1134 ****        -3.5000  31.7500 -27.5000 Du        
   1135 ****        -3.5000  31.7500 -27.2500 Du        
   1136 ****        -3.5000  31.7500 -27.0000 Du        
   1137 ****        -3.5000  31.7500 -26.7500 Du        
   1138 ****        -3.5000  32.0000 -29.0000 Du        
   1139 ****        -3.5000  32.0000 -28.7500 Du        
   1140 ****        -3.5000  32.0000 -28.5000 Du        
   1141 ****        -3.5000  32.0000 -28.2500 Du        
   1142 ****        -3.5000  32.0000 -28.0000 Du        
   1143 ****        -3.5000  32.0000 -27.7500 Du        
   1144 ****        -3.5000  32.0000 -27.5000 Du        
   1145 ****        -3.5000  32.0000 -27.2500 Du        
   1146 ****        -3.5000  32.0000 -27.0000 Du        
   1147 ****        -3.5000  32.0000 -26.7500 Du        
   1148 ****        -3.5000  32.0000 -26.5000 Du        
   1149 ****        -3.5000  32.2500 -29.0000 Du        
   1150 ****        -3.5000  32.2500 -28.7500 Du        
   1151 ****        -3.5000  32.2500 -28.5000 Du        
   1152 ****        -3.5000  32.2500 -28.2500 Du        
   1153 ****        -3.5000  32.2500 -28.0000 Du        
   1154 ****        -3.5000  32.2500 -27.7500 Du        
   1155 ****        -3.5000  32.2500 -27.5000 Du        
   1156 ****        -3.5000  32.2500 -27.2500 Du        
   1157 ****        -3.5000  32.2500 -27.0000 Du        
   1158 ****        -3.5000  32.2500 -26.7500 Du        
   1159 ****        -3.5000  32.2500 -26.5000 Du        
   1160 ****        -3.5000  32.2500 -26.2500 Du        
   1161 ****        -3.5000  32.5000 -29.0000 Du        
   1162 ****        -3.5000  32.5000 -28.7500 Du        
   1163 ****        -3.5000  32.5000 -28.5000 Du        
   1164 ****        -3.5000  32.5000 -28.2500 Du        
   1165 ****        -3.5000  32.5000 -28.0000 Du        
   1166 ****        -3.5000  32.5000 -27.7500 Du        
   1167 ****        -3.5000  32.5000 -27.5000 Du        
   1168 ****        -3.5000  32.5000 -27.2500 Du        
   1169 ****        -3.5000  32.5000 -27.0000 Du        
   1170 ****        -3.5000  32.5000 -26.7500 Du        
   1171 ****        -3.5000  32.5000 -26.5000 Du        
   1172 ****        -3.5000  32.5000 -26.2500 Du        
   1173 ****        -3.5000  32.7500 -29.0000 Du        
   1174 ****        -3.5000  32.7500 -28.7500 Du        
   1175 ****        -3.5000  32.7500 -28.5000 Du        
   1176 ****        -3.5000  32.7500 -28.2500 Du        
   1177 ****        -3.5000  32.7500 -28.0000 Du        
   1178 ****        -3.5000  32.7500 -27.7500 Du        
   1179 ****        -3.5000  32.7500 -27.5000 Du        
   1180 ****        -3.5000  32.7500 -27.2500 Du        
   1181 ****        -3.5000  32.7500 -27.0000 Du        
   1182 ****        -3.5000  32.7500 -26.7500 Du        
   1183 ****        -3.5000  32.7500 -26.5000 Du        
   1184 ****        -3.5000  32.7500 -26.2500 Du        
   1185 ****        -3.5000  33.0000 -29.0000 Du        
   1186 ****        -3.5000  33.0000 -28.7500 Du        
   1187 ****        -3.5000  33.0000 -28.5000 Du        
   1188 ****        -3.5000  33.0000 -28.2500 Du        
   1189 ****        -3.5000  33.0000 -28.0000 Du        
   1190 ****        -3.5000  33.0000 -27.7500 Du        
   1191 ****        -3.5000  33.0000 -27.5000 Du        
   1192 ****        -3.5000  33.0000 -27.2500 Du        
   1193 ****        -3.5000  33.0000 -27.0000 Du        
   1194 ****        -3.5000  33.0000 -26.7500 Du        
   1195 ****        -3.5000  33.0000 -26.5000 Du        
   1196 ****        -3.5000  33.0000 -26.2500 Du        
   1197 ****        -3.5000  33.2500 -29.0000 Du        
   1198 ****        -3.5000  33.2500 -28.7500 Du        
   1199 ****        -3.5000  33.2500 -28.5000 Du        
   1200 ****        -3.5000  33.2500 -28.2500 Du        
   1201 ****        -3.5000  33.2500 -28.0000 Du        
   1202 ****        -3.5000  33.2500 -27.7500 Du        
   1203 ****        -3.5000  33.2500 -27.5000 Du        
   1204 ****        -3.5000  33.2500 -27.2500 Du        
   1205 ****        -3.5000  33.2500 -27.0000 Du        
   1206 ****        -3.5000  33.2500 -26.7500 Du        
   1207 ****        -3.5000  33.2500 -26.5000 Du        
   1208 ****        -3.5000  33.5000 -29.0000 Du        
   1209 ****        -3.5000  33.5000 -28.7500 Du        
   1210 ****        -3.5000  33.5000 -28.5000 Du        
   1211 ****        -3.5000  33.5000 -28.2500 Du        
   1212 ****        -3.5000  33.5000 -28.0000 Du        
   1213 ****        -3.5000  33.5000 -27.7500 Du        
   1214 ****        -3.5000  33.5000 -27.5000 Du        
   1215 ****        -3.5000  33.5000 -27.2500 Du        
   1216 ****        -3.5000  33.5000 -27.0000 Du        
   1217 ****        -3.5000  33.5000 -26.7500 Du        
   1218 ****        -3.5000  33.7500 -29.0000 Du        
   1219 ****        -3.5000  33.7500 -28.7500 Du        
   1220 ****        -3.5000  33.7500 -28.5000 Du        
   1221 ****        -3.5000  33.7500 -28.2500 Du        
   1222 ****        -3.5000  33.7500 -28.0000 Du        
   1223 ****        -3.5000  33.7500 -27.7500 Du        
   1224 ****        -3.5000  33.7500 -27.5000 Du        
   1225 ****        -3.5000  33.7500 -27.2500 Du        
   1226 ****        -3.5000  33.7500 -27.0000 Du        
   1227 ****        -3.5000  34.0000 -29.0000 Du        
   1228 ****        -3.5000  34.0000 -28.7500 Du        
   1229 ****        -3.5000  34.0000 -28.5000 Du        
   1230 ****        -3.5000  34.0000 -28.2500 Du        
   1231 ****        -3.5000  34.0000 -28.0000 Du        
   1232 ****        -3.5000  34.0000 -27.7500 Du        
   1233 ****        -3.5000  34.0000 -27.5000 Du        
   1234 ****        -3.5000  34.0000 -27.2500 Du        
   1235 ****        -3.5000  34.2500 -28.7500 Du        
   1236 ****        -3.5000  34.2500 -28.5000 Du        
   1237 ****        -3.5000  34.2500 -28.2500 Du        
   1238 ****        -3.5000  34.2500 -28.0000 Du        
   1239 ****        -3.5000  34.2500 -27.7500 Du        
   1240 ****        -3.5000  34.5000 -28.7500 Du        
   1241 ****        -3.5000  34.5000 -28.5000 Du        
   1242 ****        -3.5000  34.5000 -28.2500 Du        
   1243 ****        -3.5000  34.5000 -28.0000 Du        
   1244 ****        -3.5000  34.5000 -27.7500 Du        
   1245 ****        -3.5000  34.7500 -28.5000 Du        
   1246 ****        -3.5000  34.7500 -28.2500 Du        
   1247 ****        -3.5000  34.7500 -28.0000 Du        
   1248 ****        -3.5000  35.0000 -28.5000 Du        
   1249 ****        -3.5000  35.0000 -28.2500 Du        
   1250 ****        -3.2500  30.5000 -29.2500 Du        
   1251 ****        -3.2500  30.5000 -29.0000 Du        
   1252 ****        -3.2500  30.5000 -28.7500 Du        
   1253 ****        -3.2500  30.5000 -27.7500 Du        
   1254 ****        -3.2500  30.7500 -29.2500 Du        
   1255 ****        -3.2500  30.7500 -29.0000 Du        
   1256 ****        -3.2500  30.7500 -28.7500 Du        
   1257 ****        -3.2500  30.7500 -28.2500 Du        
   1258 ****        -3.2500  30.7500 -28.0000 Du        
   1259 ****        -3.2500  30.7500 -27.7500 Du        
   1260 ****        -3.2500  30.7500 -27.5000 Du        
   1261 ****        -3.2500  30.7500 -27.2500 Du        
   1262 ****        -3.2500  30.7500 -27.0000 Du        
   1263 ****        -3.2500  31.0000 -29.0000 Du        
   1264 ****        -3.2500  31.0000 -28.7500 Du        
   1265 ****        -3.2500  31.0000 -28.5000 Du        
   1266 ****        -3.2500  31.0000 -28.2500 Du        
   1267 ****        -3.2500  31.0000 -28.0000 Du        
   1268 ****        -3.2500  31.0000 -27.7500 Du        
   1269 ****        -3.2500  31.0000 -27.5000 Du        
   1270 ****        -3.2500  31.0000 -27.2500 Du        
   1271 ****        -3.2500  31.0000 -27.0000 Du        
   1272 ****        -3.2500  31.0000 -26.7500 Du        
   1273 ****        -3.2500  31.2500 -29.0000 Du        
   1274 ****        -3.2500  31.2500 -28.7500 Du        
   1275 ****        -3.2500  31.2500 -28.5000 Du        
   1276 ****        -3.2500  31.2500 -28.2500 Du        
   1277 ****        -3.2500  31.2500 -28.0000 Du        
   1278 ****        -3.2500  31.2500 -27.7500 Du        
   1279 ****        -3.2500  31.2500 -27.5000 Du        
   1280 ****        -3.2500  31.2500 -27.2500 Du        
   1281 ****        -3.2500  31.2500 -27.0000 Du        
   1282 ****        -3.2500  31.2500 -26.7500 Du        
   1283 ****        -3.2500  31.5000 -29.0000 Du        
   1284 ****        -3.2500  31.5000 -28.7500 Du        
   1285 ****        -3.2500  31.5000 -28.5000 Du        
   1286 ****        -3.2500  31.5000 -28.2500 Du        
   1287 ****        -3.2500  31.5000 -28.0000 Du        
   1288 ****        -3.2500  31.5000 -27.7500 Du        
   1289 ****        -3.2500  31.5000 -27.5000 Du        
   1290 ****        -3.2500  31.5000 -27.2500 Du        
   1291 ****        -3.2500  31.5000 -27.0000 Du        
   1292 ****        -3.2500  31.5000 -26.7500 Du        
   1293 ****        -3.2500  31.5000 -26.5000 Du        
   1294 ****        -3.2500  31.7500 -29.0000 Du        
   1295 ****        -3.2500  31.7500 -28.7500 Du        
   1296 ****        -3.2500  31.7500 -28.5000 Du        
   1297 ****        -3.2500  31.7500 -28.2500 Du        
   1298 ****        -3.2500  31.7500 -28.0000 Du        
   1299 ****        -3.2500  31.7500 -27.7500 Du        
   1300 ****        -3.2500  31.7500 -27.5000 Du        
   1301 ****        -3.2500  31.7500 -27.2500 Du        
   1302 ****        -3.2500  31.7500 -27.0000 Du        
   1303 ****        -3.2500  31.7500 -26.7500 Du        
   1304 ****        -3.2500  31.7500 -26.5000 Du        
   1305 ****        -3.2500  31.7500 -26.2500 Du        
   1306 ****        -3.2500  32.0000 -29.0000 Du        
   1307 ****        -3.2500  32.0000 -28.7500 Du        
   1308 ****        -3.2500  32.0000 -28.5000 Du        
   1309 ****        -3.2500  32.0000 -28.2500 Du        
   1310 ****        -3.2500  32.0000 -28.0000 Du        
   1311 ****        -3.2500  32.0000 -27.7500 Du        
   1312 ****        -3.2500  32.0000 -27.5000 Du        
   1313 ****        -3.2500  32.0000 -27.2500 Du        
   1314 ****        -3.2500  32.0000 -27.0000 Du        
   1315 ****        -3.2500  32.0000 -26.7500 Du        
   1316 ****        -3.2500  32.0000 -26.5000 Du        
   1317 ****        -3.2500  32.0000 -26.2500 Du        
   1318 ****        -3.2500  32.2500 -29.0000 Du        
   1319 ****        -3.2500  32.2500 -28.7500 Du        
   1320 ****        -3.2500  32.2500 -28.5000 Du        
   1321 ****        -3.2500  32.2500 -28.2500 Du        
   1322 ****        -3.2500  32.2500 -28.0000 Du        
   1323 ****        -3.2500  32.2500 -27.7500 Du        
   1324 ****        -3.2500  32.2500 -27.5000 Du        
   1325 ****        -3.2500  32.2500 -27.2500 Du        
   1326 ****        -3.2500  32.2500 -27.0000 Du        
   1327 ****        -3.2500  32.2500 -26.7500 Du        
   1328 ****        -3.2500  32.2500 -26.5000 Du        
   1329 ****        -3.2500  32.2500 -26.2500 Du        
   1330 ****        -3.2500  32.2500 -26.0000 Du        
   1331 ****        -3.2500  32.5000 -29.0000 Du        
   1332 ****        -3.2500  32.5000 -28.7500 Du        
   1333 ****        -3.2500  32.5000 -28.5000 Du        
   1334 ****        -3.2500  32.5000 -28.2500 Du        
   1335 ****        -3.2500  32.5000 -28.0000 Du        
   1336 ****        -3.2500  32.5000 -27.7500 Du        
   1337 ****        -3.2500  32.5000 -27.5000 Du        
   1338 ****        -3.2500  32.5000 -27.2500 Du        
   1339 ****        -3.2500  32.5000 -27.0000 Du        
   1340 ****        -3.2500  32.5000 -26.7500 Du        
   1341 ****        -3.2500  32.5000 -26.5000 Du        
   1342 ****        -3.2500  32.5000 -26.2500 Du        
   1343 ****        -3.2500  32.5000 -26.0000 Du        
   1344 ****        -3.2500  32.7500 -29.0000 Du        
   1345 ****        -3.2500  32.7500 -28.7500 Du        
   1346 ****        -3.2500  32.7500 -28.5000 Du        
   1347 ****        -3.2500  32.7500 -28.2500 Du        
   1348 ****        -3.2500  32.7500 -28.0000 Du        
   1349 ****        -3.2500  32.7500 -27.7500 Du        
   1350 ****        -3.2500  32.7500 -27.5000 Du        
   1351 ****        -3.2500  32.7500 -27.2500 Du        
   1352 ****        -3.2500  32.7500 -27.0000 Du        
   1353 ****        -3.2500  32.7500 -26.7500 Du        
   1354 ****        -3.2500  32.7500 -26.5000 Du        
   1355 ****        -3.2500  32.7500 -26.2500 Du        
   1356 ****        -3.2500  32.7500 -26.0000 Du        
   1357 ****        -3.2500  33.0000 -29.0000 Du        
   1358 ****        -3.2500  33.0000 -28.7500 Du        
   1359 ****        -3.2500  33.0000 -28.5000 Du        
   1360 ****        -3.2500  33.0000 -28.2500 Du        
   1361 ****        -3.2500  33.0000 -28.0000 Du        
   1362 ****        -3.2500  33.0000 -27.7500 Du        
   1363 ****        -3.2500  33.0000 -27.5000 Du        
   1364 ****        -3.2500  33.0000 -27.2500 Du        
   1365 ****        -3.2500  33.0000 -27.0000 Du        
   1366 ****        -3.2500  33.0000 -26.7500 Du        
   1367 ****        -3.2500  33.0000 -26.5000 Du        
   1368 ****        -3.2500  33.0000 -26.2500 Du        
   1369 ****        -3.2500  33.0000 -26.0000 Du        
   1370 ****        -3.2500  33.2500 -29.0000 Du        
   1371 ****        -3.2500  33.2500 -28.7500 Du        
   1372 ****        -3.2500  33.2500 -28.5000 Du        
   1373 ****        -3.2500  33.2500 -28.2500 Du        
   1374 ****        -3.2500  33.2500 -28.0000 Du        
   1375 ****        -3.2500  33.2500 -27.7500 Du        
   1376 ****        -3.2500  33.2500 -27.5000 Du        
   1377 ****        -3.2500  33.2500 -27.2500 Du        
   1378 ****        -3.2500  33.2500 -27.0000 Du        
   1379 ****        -3.2500  33.2500 -26.7500 Du        
   1380 ****        -3.2500  33.2500 -26.5000 Du        
   1381 ****        -3.2500  33.2500 -26.2500 Du        
   1382 ****        -3.2500  33.5000 -29.0000 Du        
   1383 ****        -3.2500  33.5000 -28.7500 Du        
   1384 ****        -3.2500  33.5000 -28.5000 Du        
   1385 ****        -3.2500  33.5000 -28.2500 Du        
   1386 ****        -3.2500  33.5000 -28.0000 Du        
   1387 ****        -3.2500  33.5000 -27.7500 Du        
   1388 ****        -3.2500  33.5000 -27.5000 Du        
   1389 ****        -3.2500  33.5000 -27.2500 Du        
   1390 ****        -3.2500  33.5000 -27.0000 Du        
   1391 ****        -3.2500  33.5000 -26.7500 Du        
   1392 ****        -3.2500  33.5000 -26.5000 Du        
   1393 ****        -3.2500  33.5000 -26.2500 Du        
   1394 ****        -3.2500  33.7500 -29.0000 Du        
   1395 ****        -3.2500  33.7500 -28.7500 Du        
   1396 ****        -3.2500  33.7500 -28.5000 Du        
   1397 ****        -3.2500  33.7500 -28.2500 Du        
   1398 ****        -3.2500  33.7500 -28.0000 Du        
   1399 ****        -3.2500  33.7500 -27.7500 Du        
   1400 ****        -3.2500  33.7500 -27.5000 Du        
   1401 ****        -3.2500  33.7500 -27.2500 Du        
   1402 ****        -3.2500  33.7500 -27.0000 Du        
   1403 ****        -3.2500  33.7500 -26.7500 Du        
   1404 ****        -3.2500  34.0000 -29.0000 Du        
   1405 ****        -3.2500  34.0000 -28.7500 Du        
   1406 ****        -3.2500  34.0000 -28.5000 Du        
   1407 ****        -3.2500  34.0000 -28.2500 Du        
   1408 ****        -3.2500  34.0000 -28.0000 Du        
   1409 ****        -3.2500  34.0000 -27.7500 Du        
   1410 ****        -3.2500  34.0000 -27.5000 Du        
   1411 ****        -3.2500  34.0000 -27.2500 Du        
   1412 ****        -3.2500  34.0000 -27.0000 Du        
   1413 ****        -3.2500  34.2500 -28.7500 Du        
   1414 ****        -3.2500  34.2500 -28.5000 Du        
   1415 ****        -3.2500  34.2500 -28.2500 Du        
   1416 ****        -3.2500  34.2500 -28.0000 Du        
   1417 ****        -3.2500  34.2500 -27.7500 Du        
   1418 ****        -3.2500  34.2500 -27.5000 Du        
   1419 ****        -3.2500  34.2500 -27.2500 Du        
   1420 ****        -3.2500  34.5000 -28.7500 Du        
   1421 ****        -3.2500  34.5000 -28.5000 Du        
   1422 ****        -3.2500  34.5000 -28.2500 Du        
   1423 ****        -3.2500  34.5000 -28.0000 Du        
   1424 ****        -3.2500  34.5000 -27.7500 Du        
   1425 ****        -3.2500  34.5000 -27.5000 Du        
   1426 ****        -3.2500  34.7500 -28.5000 Du        
   1427 ****        -3.2500  34.7500 -28.2500 Du        
   1428 ****        -3.2500  34.7500 -28.0000 Du        
   1429 ****        -3.0000  30.5000 -29.0000 Du        
   1430 ****        -3.0000  30.5000 -27.0000 Du        
   1431 ****        -3.0000  30.7500 -29.0000 Du        
   1432 ****        -3.0000  30.7500 -28.7500 Du        
   1433 ****        -3.0000  30.7500 -28.5000 Du        
   1434 ****        -3.0000  30.7500 -28.2500 Du        
   1435 ****        -3.0000  30.7500 -28.0000 Du        
   1436 ****        -3.0000  30.7500 -27.7500 Du        
   1437 ****        -3.0000  30.7500 -27.5000 Du        
   1438 ****        -3.0000  30.7500 -27.2500 Du        
   1439 ****        -3.0000  30.7500 -27.0000 Du        
   1440 ****        -3.0000  31.0000 -29.0000 Du        
   1441 ****        -3.0000  31.0000 -28.7500 Du        
   1442 ****        -3.0000  31.0000 -28.5000 Du        
   1443 ****        -3.0000  31.0000 -28.2500 Du        
   1444 ****        -3.0000  31.0000 -28.0000 Du        
   1445 ****        -3.0000  31.0000 -27.7500 Du        
   1446 ****        -3.0000  31.0000 -27.5000 Du        
   1447 ****        -3.0000  31.0000 -27.2500 Du        
   1448 ****        -3.0000  31.0000 -27.0000 Du        
   1449 ****        -3.0000  31.0000 -26.7500 Du        
   1450 ****        -3.0000  31.2500 -29.0000 Du        
   1451 ****        -3.0000  31.2500 -28.7500 Du        
   1452 ****        -3.0000  31.2500 -28.5000 Du        
   1453 ****        -3.0000  31.2500 -28.2500 Du        
   1454 ****        -3.0000  31.2500 -28.0000 Du        
   1455 ****        -3.0000  31.2500 -27.7500 Du        
   1456 ****        -3.0000  31.2500 -27.5000 Du        
   1457 ****        -3.0000  31.2500 -27.2500 Du        
   1458 ****        -3.0000  31.2500 -27.0000 Du        
   1459 ****        -3.0000  31.2500 -26.7500 Du        
   1460 ****        -3.0000  31.2500 -26.5000 Du        
   1461 ****        -3.0000  31.5000 -29.0000 Du        
   1462 ****        -3.0000  31.5000 -28.7500 Du        
   1463 ****        -3.0000  31.5000 -28.5000 Du        
   1464 ****        -3.0000  31.5000 -28.2500 Du        
   1465 ****        -3.0000  31.5000 -28.0000 Du        
   1466 ****        -3.0000  31.5000 -27.7500 Du        
   1467 ****        -3.0000  31.5000 -27.5000 Du        
   1468 ****        -3.0000  31.5000 -27.2500 Du        
   1469 ****        -3.0000  31.5000 -27.0000 Du        
   1470 ****        -3.0000  31.5000 -26.7500 Du        
   1471 ****        -3.0000  31.5000 -26.5000 Du        
   1472 ****        -3.0000  31.5000 -26.2500 Du        
   1473 ****        -3.0000  31.7500 -29.0000 Du        
   1474 ****        -3.0000  31.7500 -28.7500 Du        
   1475 ****        -3.0000  31.7500 -28.5000 Du        
   1476 ****        -3.0000  31.7500 -28.2500 Du        
   1477 ****        -3.0000  31.7500 -28.0000 Du        
   1478 ****        -3.0000  31.7500 -27.7500 Du        
   1479 ****        -3.0000  31.7500 -27.5000 Du        
   1480 ****        -3.0000  31.7500 -27.2500 Du        
   1481 ****        -3.0000  31.7500 -27.0000 Du        
   1482 ****        -3.0000  31.7500 -26.7500 Du        
   1483 ****        -3.0000  31.7500 -26.5000 Du        
   1484 ****        -3.0000  31.7500 -26.2500 Du        
   1485 ****        -3.0000  31.7500 -26.0000 Du        
   1486 ****        -3.0000  32.0000 -29.0000 Du        
   1487 ****        -3.0000  32.0000 -28.7500 Du        
   1488 ****        -3.0000  32.0000 -28.5000 Du        
   1489 ****        -3.0000  32.0000 -28.2500 Du        
   1490 ****        -3.0000  32.0000 -28.0000 Du        
   1491 ****        -3.0000  32.0000 -27.7500 Du        
   1492 ****        -3.0000  32.0000 -27.5000 Du        
   1493 ****        -3.0000  32.0000 -27.2500 Du        
   1494 ****        -3.0000  32.0000 -27.0000 Du        
   1495 ****        -3.0000  32.0000 -26.7500 Du        
   1496 ****        -3.0000  32.0000 -26.5000 Du        
   1497 ****        -3.0000  32.0000 -26.2500 Du        
   1498 ****        -3.0000  32.0000 -26.0000 Du        
   1499 ****        -3.0000  32.0000 -25.7500 Du        
   1500 ****        -3.0000  32.2500 -29.0000 Du        
   1501 ****        -3.0000  32.2500 -28.7500 Du        
   1502 ****        -3.0000  32.2500 -28.5000 Du        
   1503 ****        -3.0000  32.2500 -28.2500 Du        
   1504 ****        -3.0000  32.2500 -28.0000 Du        
   1505 ****        -3.0000  32.2500 -27.7500 Du        
   1506 ****        -3.0000  32.2500 -27.5000 Du        
   1507 ****        -3.0000  32.2500 -27.2500 Du        
   1508 ****        -3.0000  32.2500 -27.0000 Du        
   1509 ****        -3.0000  32.2500 -26.7500 Du        
   1510 ****        -3.0000  32.2500 -26.5000 Du        
   1511 ****        -3.0000  32.2500 -26.2500 Du        
   1512 ****        -3.0000  32.2500 -26.0000 Du        
   1513 ****        -3.0000  32.2500 -25.7500 Du        
   1514 ****        -3.0000  32.5000 -29.0000 Du        
   1515 ****        -3.0000  32.5000 -28.7500 Du        
   1516 ****        -3.0000  32.5000 -28.5000 Du        
   1517 ****        -3.0000  32.5000 -28.2500 Du        
   1518 ****        -3.0000  32.5000 -28.0000 Du        
   1519 ****        -3.0000  32.5000 -27.7500 Du        
   1520 ****        -3.0000  32.5000 -27.5000 Du        
   1521 ****        -3.0000  32.5000 -27.2500 Du        
   1522 ****        -3.0000  32.5000 -27.0000 Du        
   1523 ****        -3.0000  32.5000 -26.7500 Du        
   1524 ****        -3.0000  32.5000 -26.5000 Du        
   1525 ****        -3.0000  32.5000 -26.2500 Du        
   1526 ****        -3.0000  32.5000 -26.0000 Du        
   1527 ****        -3.0000  32.5000 -25.7500 Du        
   1528 ****        -3.0000  32.5000 -25.5000 Du        
   1529 ****        -3.0000  32.7500 -29.0000 Du        
   1530 ****        -3.0000  32.7500 -28.7500 Du        
   1531 ****        -3.0000  32.7500 -28.5000 Du        
   1532 ****        -3.0000  32.7500 -28.2500 Du        
   1533 ****        -3.0000  32.7500 -28.0000 Du        
   1534 ****        -3.0000  32.7500 -27.7500 Du        
   1535 ****        -3.0000  32.7500 -27.5000 Du        
   1536 ****        -3.0000  32.7500 -27.2500 Du        
   1537 ****        -3.0000  32.7500 -27.0000 Du        
   1538 ****        -3.0000  32.7500 -26.7500 Du        
   1539 ****        -3.0000  32.7500 -26.5000 Du        
   1540 ****        -3.0000  32.7500 -26.2500 Du        
   1541 ****        -3.0000  32.7500 -26.0000 Du        
   1542 ****        -3.0000  32.7500 -25.7500 Du        
   1543 ****        -3.0000  32.7500 -25.5000 Du        
   1544 ****        -3.0000  33.0000 -29.0000 Du        
   1545 ****        -3.0000  33.0000 -28.7500 Du        
   1546 ****        -3.0000  33.0000 -28.5000 Du        
   1547 ****        -3.0000  33.0000 -28.2500 Du        
   1548 ****        -3.0000  33.0000 -28.0000 Du        
   1549 ****        -3.0000  33.0000 -27.7500 Du        
   1550 ****        -3.0000  33.0000 -27.5000 Du        
   1551 ****        -3.0000  33.0000 -27.2500 Du        
   1552 ****        -3.0000  33.0000 -27.0000 Du        
   1553 ****        -3.0000  33.0000 -26.7500 Du        
   1554 ****        -3.0000  33.0000 -26.5000 Du        
   1555 ****        -3.0000  33.0000 -26.2500 Du        
   1556 ****        -3.0000  33.0000 -26.0000 Du        
   1557 ****        -3.0000  33.0000 -25.7500 Du        
   1558 ****        -3.0000  33.2500 -29.0000 Du        
   1559 ****        -3.0000  33.2500 -28.7500 Du        
   1560 ****        -3.0000  33.2500 -28.5000 Du        
   1561 ****        -3.0000  33.2500 -28.2500 Du        
   1562 ****        -3.0000  33.2500 -28.0000 Du        
   1563 ****        -3.0000  33.2500 -27.7500 Du        
   1564 ****        -3.0000  33.2500 -27.5000 Du        
   1565 ****        -3.0000  33.2500 -27.2500 Du        
   1566 ****        -3.0000  33.2500 -27.0000 Du        
   1567 ****        -3.0000  33.2500 -26.7500 Du        
   1568 ****        -3.0000  33.2500 -26.5000 Du        
   1569 ****        -3.0000  33.2500 -26.2500 Du        
   1570 ****        -3.0000  33.2500 -26.0000 Du        
   1571 ****        -3.0000  33.2500 -25.7500 Du        
   1572 ****        -3.0000  33.5000 -29.0000 Du        
   1573 ****        -3.0000  33.5000 -28.7500 Du        
   1574 ****        -3.0000  33.5000 -28.5000 Du        
   1575 ****        -3.0000  33.5000 -28.2500 Du        
   1576 ****        -3.0000  33.5000 -28.0000 Du        
   1577 ****        -3.0000  33.5000 -27.7500 Du        
   1578 ****        -3.0000  33.5000 -27.5000 Du        
   1579 ****        -3.0000  33.5000 -27.2500 Du        
   1580 ****        -3.0000  33.5000 -27.0000 Du        
   1581 ****        -3.0000  33.5000 -26.7500 Du        
   1582 ****        -3.0000  33.5000 -26.5000 Du        
   1583 ****        -3.0000  33.5000 -26.2500 Du        
   1584 ****        -3.0000  33.5000 -26.0000 Du        
   1585 ****        -3.0000  33.7500 -29.0000 Du        
   1586 ****        -3.0000  33.7500 -28.7500 Du        
   1587 ****        -3.0000  33.7500 -28.5000 Du        
   1588 ****        -3.0000  33.7500 -28.2500 Du        
   1589 ****        -3.0000  33.7500 -28.0000 Du        
   1590 ****        -3.0000  33.7500 -27.7500 Du        
   1591 ****        -3.0000  33.7500 -27.5000 Du        
   1592 ****        -3.0000  33.7500 -27.2500 Du        
   1593 ****        -3.0000  33.7500 -27.0000 Du        
   1594 ****        -3.0000  33.7500 -26.7500 Du        
   1595 ****        -3.0000  33.7500 -26.5000 Du        
   1596 ****        -3.0000  33.7500 -26.2500 Du        
   1597 ****        -3.0000  34.0000 -29.0000 Du        
   1598 ****        -3.0000  34.0000 -28.7500 Du        
   1599 ****        -3.0000  34.0000 -28.5000 Du        
   1600 ****        -3.0000  34.0000 -28.2500 Du        
   1601 ****        -3.0000  34.0000 -28.0000 Du        
   1602 ****        -3.0000  34.0000 -27.7500 Du        
   1603 ****        -3.0000  34.0000 -27.5000 Du        
   1604 ****        -3.0000  34.0000 -27.2500 Du        
   1605 ****        -3.0000  34.0000 -27.0000 Du        
   1606 ****        -3.0000  34.0000 -26.7500 Du        
   1607 ****        -3.0000  34.2500 -28.7500 Du        
   1608 ****        -3.0000  34.2500 -28.5000 Du        
   1609 ****        -3.0000  34.2500 -28.2500 Du        
   1610 ****        -3.0000  34.2500 -28.0000 Du        
   1611 ****        -3.0000  34.2500 -27.7500 Du        
   1612 ****        -3.0000  34.2500 -27.5000 Du        
   1613 ****        -3.0000  34.2500 -27.2500 Du        
   1614 ****        -3.0000  34.2500 -27.0000 Du        
   1615 ****        -3.0000  34.5000 -28.5000 Du        
   1616 ****        -3.0000  34.5000 -28.2500 Du        
   1617 ****        -3.0000  34.5000 -28.0000 Du        
   1618 ****        -3.0000  34.5000 -27.7500 Du        
   1619 ****        -3.0000  34.5000 -27.5000 Du        
   1620 ****        -3.0000  34.7500 -28.2500 Du        
   1621 ****        -3.0000  34.7500 -28.0000 Du        
   1622 ****        -2.7500  30.5000 -28.7500 Du        
   1623 ****        -2.7500  30.5000 -27.0000 Du        
   1624 ****        -2.7500  30.7500 -29.0000 Du        
   1625 ****        -2.7500  30.7500 -28.7500 Du        
   1626 ****        -2.7500  30.7500 -27.7500 Du        
   1627 ****        -2.7500  30.7500 -27.2500 Du        
   1628 ****        -2.7500  30.7500 -27.0000 Du        
   1629 ****        -2.7500  30.7500 -26.7500 Du        
   1630 ****        -2.7500  31.0000 -29.0000 Du        
   1631 ****        -2.7500  31.0000 -28.7500 Du        
   1632 ****        -2.7500  31.0000 -28.5000 Du        
   1633 ****        -2.7500  31.0000 -28.2500 Du        
   1634 ****        -2.7500  31.0000 -28.0000 Du        
   1635 ****        -2.7500  31.0000 -27.7500 Du        
   1636 ****        -2.7500  31.0000 -27.5000 Du        
   1637 ****        -2.7500  31.0000 -27.2500 Du        
   1638 ****        -2.7500  31.0000 -27.0000 Du        
   1639 ****        -2.7500  31.0000 -26.7500 Du        
   1640 ****        -2.7500  31.0000 -26.5000 Du        
   1641 ****        -2.7500  31.0000 -26.2500 Du        
   1642 ****        -2.7500  31.2500 -29.0000 Du        
   1643 ****        -2.7500  31.2500 -28.7500 Du        
   1644 ****        -2.7500  31.2500 -28.5000 Du        
   1645 ****        -2.7500  31.2500 -28.2500 Du        
   1646 ****        -2.7500  31.2500 -28.0000 Du        
   1647 ****        -2.7500  31.2500 -27.7500 Du        
   1648 ****        -2.7500  31.2500 -27.5000 Du        
   1649 ****        -2.7500  31.2500 -27.2500 Du        
   1650 ****        -2.7500  31.2500 -27.0000 Du        
   1651 ****        -2.7500  31.2500 -26.7500 Du        
   1652 ****        -2.7500  31.2500 -26.5000 Du        
   1653 ****        -2.7500  31.2500 -26.2500 Du        
   1654 ****        -2.7500  31.2500 -26.0000 Du        
   1655 ****        -2.7500  31.5000 -29.0000 Du        
   1656 ****        -2.7500  31.5000 -28.7500 Du        
   1657 ****        -2.7500  31.5000 -28.5000 Du        
   1658 ****        -2.7500  31.5000 -28.2500 Du        
   1659 ****        -2.7500  31.5000 -28.0000 Du        
   1660 ****        -2.7500  31.5000 -27.7500 Du        
   1661 ****        -2.7500  31.5000 -27.5000 Du        
   1662 ****        -2.7500  31.5000 -27.2500 Du        
   1663 ****        -2.7500  31.5000 -27.0000 Du        
   1664 ****        -2.7500  31.5000 -26.7500 Du        
   1665 ****        -2.7500  31.5000 -26.5000 Du        
   1666 ****        -2.7500  31.5000 -26.2500 Du        
   1667 ****        -2.7500  31.5000 -26.0000 Du        
   1668 ****        -2.7500  31.5000 -25.7500 Du        
   1669 ****        -2.7500  31.7500 -29.0000 Du        
   1670 ****        -2.7500  31.7500 -28.7500 Du        
   1671 ****        -2.7500  31.7500 -28.5000 Du        
   1672 ****        -2.7500  31.7500 -28.2500 Du        
   1673 ****        -2.7500  31.7500 -28.0000 Du        
   1674 ****        -2.7500  31.7500 -27.7500 Du        
   1675 ****        -2.7500  31.7500 -27.5000 Du        
   1676 ****        -2.7500  31.7500 -27.2500 Du        
   1677 ****        -2.7500  31.7500 -27.0000 Du        
   1678 ****        -2.7500  31.7500 -26.7500 Du        
   1679 ****        -2.7500  31.7500 -26.5000 Du        
   1680 ****        -2.7500  31.7500 -26.2500 Du        
   1681 ****        -2.7500  31.7500 -26.0000 Du        
   1682 ****        -2.7500  31.7500 -25.7500 Du        
   1683 ****        -2.7500  31.7500 -25.5000 Du        
   1684 ****        -2.7500  32.0000 -29.0000 Du        
   1685 ****        -2.7500  32.0000 -28.7500 Du        
   1686 ****        -2.7500  32.0000 -28.5000 Du        
   1687 ****        -2.7500  32.0000 -28.2500 Du        
   1688 ****        -2.7500  32.0000 -28.0000 Du        
   1689 ****        -2.7500  32.0000 -27.7500 Du        
   1690 ****        -2.7500  32.0000 -27.5000 Du        
   1691 ****        -2.7500  32.0000 -27.2500 Du        
   1692 ****        -2.7500  32.0000 -27.0000 Du        
   1693 ****        -2.7500  32.0000 -26.7500 Du        
   1694 ****        -2.7500  32.0000 -26.5000 Du        
   1695 ****        -2.7500  32.0000 -26.2500 Du        
   1696 ****        -2.7500  32.0000 -26.0000 Du        
   1697 ****        -2.7500  32.0000 -25.7500 Du        
   1698 ****        -2.7500  32.0000 -25.5000 Du        
   1699 ****        -2.7500  32.2500 -28.7500 Du        
   1700 ****        -2.7500  32.2500 -28.5000 Du        
   1701 ****        -2.7500  32.2500 -28.2500 Du        
   1702 ****        -2.7500  32.2500 -28.0000 Du        
   1703 ****        -2.7500  32.2500 -27.7500 Du        
   1704 ****        -2.7500  32.2500 -27.5000 Du        
   1705 ****        -2.7500  32.2500 -27.2500 Du        
   1706 ****        -2.7500  32.2500 -27.0000 Du        
   1707 ****        -2.7500  32.2500 -26.7500 Du        
   1708 ****        -2.7500  32.2500 -26.5000 Du        
   1709 ****        -2.7500  32.2500 -26.2500 Du        
   1710 ****        -2.7500  32.2500 -26.0000 Du        
   1711 ****        -2.7500  32.2500 -25.7500 Du        
   1712 ****        -2.7500  32.2500 -25.5000 Du        
   1713 ****        -2.7500  32.2500 -25.2500 Du        
   1714 ****        -2.7500  32.5000 -29.0000 Du        
   1715 ****        -2.7500  32.5000 -28.7500 Du        
   1716 ****        -2.7500  32.5000 -28.5000 Du        
   1717 ****        -2.7500  32.5000 -28.2500 Du        
   1718 ****        -2.7500  32.5000 -28.0000 Du        
   1719 ****        -2.7500  32.5000 -27.7500 Du        
   1720 ****        -2.7500  32.5000 -27.5000 Du        
   1721 ****        -2.7500  32.5000 -27.2500 Du        
   1722 ****        -2.7500  32.5000 -27.0000 Du        
   1723 ****        -2.7500  32.5000 -26.7500 Du        
   1724 ****        -2.7500  32.5000 -26.5000 Du        
   1725 ****        -2.7500  32.5000 -26.2500 Du        
   1726 ****        -2.7500  32.5000 -26.0000 Du        
   1727 ****        -2.7500  32.5000 -25.7500 Du        
   1728 ****        -2.7500  32.5000 -25.5000 Du        
   1729 ****        -2.7500  32.5000 -25.2500 Du        
   1730 ****        -2.7500  32.7500 -29.0000 Du        
   1731 ****        -2.7500  32.7500 -28.7500 Du        
   1732 ****        -2.7500  32.7500 -28.5000 Du        
   1733 ****        -2.7500  32.7500 -28.2500 Du        
   1734 ****        -2.7500  32.7500 -28.0000 Du        
   1735 ****        -2.7500  32.7500 -27.7500 Du        
   1736 ****        -2.7500  32.7500 -27.5000 Du        
   1737 ****        -2.7500  32.7500 -27.2500 Du        
   1738 ****        -2.7500  32.7500 -27.0000 Du        
   1739 ****        -2.7500  32.7500 -26.7500 Du        
   1740 ****        -2.7500  32.7500 -26.5000 Du        
   1741 ****        -2.7500  32.7500 -26.2500 Du        
   1742 ****        -2.7500  32.7500 -26.0000 Du        
   1743 ****        -2.7500  32.7500 -25.7500 Du        
   1744 ****        -2.7500  32.7500 -25.5000 Du        
   1745 ****        -2.7500  32.7500 -25.2500 Du        
   1746 ****        -2.7500  33.0000 -29.0000 Du        
   1747 ****        -2.7500  33.0000 -28.7500 Du        
   1748 ****        -2.7500  33.0000 -28.5000 Du        
   1749 ****        -2.7500  33.0000 -28.2500 Du        
   1750 ****        -2.7500  33.0000 -28.0000 Du        
   1751 ****        -2.7500  33.0000 -27.7500 Du        
   1752 ****        -2.7500  33.0000 -27.5000 Du        
   1753 ****        -2.7500  33.0000 -27.2500 Du        
   1754 ****        -2.7500  33.0000 -27.0000 Du        
   1755 ****        -2.7500  33.0000 -26.7500 Du        
   1756 ****        -2.7500  33.0000 -26.5000 Du        
   1757 ****        -2.7500  33.0000 -26.2500 Du        
   1758 ****        -2.7500  33.0000 -26.0000 Du        
   1759 ****        -2.7500  33.0000 -25.7500 Du        
   1760 ****        -2.7500  33.0000 -25.5000 Du        
   1761 ****        -2.7500  33.2500 -29.0000 Du        
   1762 ****        -2.7500  33.2500 -28.7500 Du        
   1763 ****        -2.7500  33.2500 -28.5000 Du        
   1764 ****        -2.7500  33.2500 -28.2500 Du        
   1765 ****        -2.7500  33.2500 -28.0000 Du        
   1766 ****        -2.7500  33.2500 -27.7500 Du        
   1767 ****        -2.7500  33.2500 -27.5000 Du        
   1768 ****        -2.7500  33.2500 -27.2500 Du        
   1769 ****        -2.7500  33.2500 -27.0000 Du        
   1770 ****        -2.7500  33.2500 -26.7500 Du        
   1771 ****        -2.7500  33.2500 -26.5000 Du        
   1772 ****        -2.7500  33.2500 -26.2500 Du        
   1773 ****        -2.7500  33.2500 -26.0000 Du        
   1774 ****        -2.7500  33.2500 -25.7500 Du        
   1775 ****        -2.7500  33.2500 -25.5000 Du        
   1776 ****        -2.7500  33.5000 -29.0000 Du        
   1777 ****        -2.7500  33.5000 -28.7500 Du        
   1778 ****        -2.7500  33.5000 -28.5000 Du        
   1779 ****        -2.7500  33.5000 -28.2500 Du        
   1780 ****        -2.7500  33.5000 -28.0000 Du        
   1781 ****        -2.7500  33.5000 -27.7500 Du        
   1782 ****        -2.7500  33.5000 -27.5000 Du        
   1783 ****        -2.7500  33.5000 -27.2500 Du        
   1784 ****        -2.7500  33.5000 -27.0000 Du        
   1785 ****        -2.7500  33.5000 -26.7500 Du        
   1786 ****        -2.7500  33.5000 -26.5000 Du        
   1787 ****        -2.7500  33.5000 -26.2500 Du        
   1788 ****        -2.7500  33.5000 -26.0000 Du        
   1789 ****        -2.7500  33.5000 -25.7500 Du        
   1790 ****        -2.7500  33.7500 -29.0000 Du        
   1791 ****        -2.7500  33.7500 -28.7500 Du        
   1792 ****        -2.7500  33.7500 -28.5000 Du        
   1793 ****        -2.7500  33.7500 -28.2500 Du        
   1794 ****        -2.7500  33.7500 -28.0000 Du        
   1795 ****        -2.7500  33.7500 -27.7500 Du        
   1796 ****        -2.7500  33.7500 -27.5000 Du        
   1797 ****        -2.7500  33.7500 -27.2500 Du        
   1798 ****        -2.7500  33.7500 -27.0000 Du        
   1799 ****        -2.7500  33.7500 -26.7500 Du        
   1800 ****        -2.7500  33.7500 -26.5000 Du        
   1801 ****        -2.7500  33.7500 -26.2500 Du        
   1802 ****        -2.7500  33.7500 -26.0000 Du        
   1803 ****        -2.7500  33.7500 -25.7500 Du        
   1804 ****        -2.7500  34.0000 -28.7500 Du        
   1805 ****        -2.7500  34.0000 -28.5000 Du        
   1806 ****        -2.7500  34.0000 -28.2500 Du        
   1807 ****        -2.7500  34.0000 -28.0000 Du        
   1808 ****        -2.7500  34.0000 -27.7500 Du        
   1809 ****        -2.7500  34.0000 -27.5000 Du        
   1810 ****        -2.7500  34.0000 -27.2500 Du        
   1811 ****        -2.7500  34.0000 -27.0000 Du        
   1812 ****        -2.7500  34.0000 -26.7500 Du        
   1813 ****        -2.7500  34.0000 -26.5000 Du        
   1814 ****        -2.7500  34.0000 -26.2500 Du        
   1815 ****        -2.7500  34.2500 -28.5000 Du        
   1816 ****        -2.7500  34.2500 -28.2500 Du        
   1817 ****        -2.7500  34.2500 -28.0000 Du        
   1818 ****        -2.7500  34.2500 -27.7500 Du        
   1819 ****        -2.7500  34.2500 -27.5000 Du        
   1820 ****        -2.7500  34.2500 -27.2500 Du        
   1821 ****        -2.7500  34.2500 -27.0000 Du        
   1822 ****        -2.7500  34.5000 -28.2500 Du        
   1823 ****        -2.7500  34.5000 -28.0000 Du        
   1824 ****        -2.7500  34.5000 -27.7500 Du        
   1825 ****        -2.7500  34.5000 -27.5000 Du        
   1826 ****        -2.5000  30.7500 -26.5000 Du        
   1827 ****        -2.5000  30.7500 -26.2500 Du        
   1828 ****        -2.5000  31.0000 -28.7500 Du        
   1829 ****        -2.5000  31.0000 -27.5000 Du        
   1830 ****        -2.5000  31.0000 -27.2500 Du        
   1831 ****        -2.5000  31.0000 -27.0000 Du        
   1832 ****        -2.5000  31.0000 -26.7500 Du        
   1833 ****        -2.5000  31.0000 -26.5000 Du        
   1834 ****        -2.5000  31.0000 -26.2500 Du        
   1835 ****        -2.5000  31.0000 -26.0000 Du        
   1836 ****        -2.5000  31.0000 -25.7500 Du        
   1837 ****        -2.5000  31.0000 -25.5000 Du        
   1838 ****        -2.5000  31.2500 -28.7500 Du        
   1839 ****        -2.5000  31.2500 -28.5000 Du        
   1840 ****        -2.5000  31.2500 -28.2500 Du        
   1841 ****        -2.5000  31.2500 -28.0000 Du        
   1842 ****        -2.5000  31.2500 -27.7500 Du        
   1843 ****        -2.5000  31.2500 -27.5000 Du        
   1844 ****        -2.5000  31.2500 -27.2500 Du        
   1845 ****        -2.5000  31.2500 -27.0000 Du        
   1846 ****        -2.5000  31.2500 -26.7500 Du        
   1847 ****        -2.5000  31.2500 -26.5000 Du        
   1848 ****        -2.5000  31.2500 -26.2500 Du        
   1849 ****        -2.5000  31.2500 -26.0000 Du        
   1850 ****        -2.5000  31.2500 -25.7500 Du        
   1851 ****        -2.5000  31.2500 -25.5000 Du        
   1852 ****        -2.5000  31.5000 -28.7500 Du        
   1853 ****        -2.5000  31.5000 -28.5000 Du        
   1854 ****        -2.5000  31.5000 -28.2500 Du        
   1855 ****        -2.5000  31.5000 -28.0000 Du        
   1856 ****        -2.5000  31.5000 -27.7500 Du        
   1857 ****        -2.5000  31.5000 -27.5000 Du        
   1858 ****        -2.5000  31.5000 -27.2500 Du        
   1859 ****        -2.5000  31.5000 -27.0000 Du        
   1860 ****        -2.5000  31.5000 -26.7500 Du        
   1861 ****        -2.5000  31.5000 -26.5000 Du        
   1862 ****        -2.5000  31.5000 -26.2500 Du        
   1863 ****        -2.5000  31.5000 -26.0000 Du        
   1864 ****        -2.5000  31.5000 -25.7500 Du        
   1865 ****        -2.5000  31.5000 -25.5000 Du        
   1866 ****        -2.5000  31.5000 -25.2500 Du        
   1867 ****        -2.5000  31.7500 -28.7500 Du        
   1868 ****        -2.5000  31.7500 -28.5000 Du        
   1869 ****        -2.5000  31.7500 -28.2500 Du        
   1870 ****        -2.5000  31.7500 -28.0000 Du        
   1871 ****        -2.5000  31.7500 -27.7500 Du        
   1872 ****        -2.5000  31.7500 -27.5000 Du        
   1873 ****        -2.5000  31.7500 -27.2500 Du        
   1874 ****        -2.5000  31.7500 -27.0000 Du        
   1875 ****        -2.5000  31.7500 -26.7500 Du        
   1876 ****        -2.5000  31.7500 -26.5000 Du        
   1877 ****        -2.5000  31.7500 -26.2500 Du        
   1878 ****        -2.5000  31.7500 -26.0000 Du        
   1879 ****        -2.5000  31.7500 -25.7500 Du        
   1880 ****        -2.5000  31.7500 -25.5000 Du        
   1881 ****        -2.5000  31.7500 -25.2500 Du        
   1882 ****        -2.5000  31.7500 -25.0000 Du        
   1883 ****        -2.5000  32.0000 -28.7500 Du        
   1884 ****        -2.5000  32.0000 -28.5000 Du        
   1885 ****        -2.5000  32.0000 -28.2500 Du        
   1886 ****        -2.5000  32.0000 -28.0000 Du        
   1887 ****        -2.5000  32.0000 -27.7500 Du        
   1888 ****        -2.5000  32.0000 -27.5000 Du        
   1889 ****        -2.5000  32.0000 -27.2500 Du        
   1890 ****        -2.5000  32.0000 -27.0000 Du        
   1891 ****        -2.5000  32.0000 -26.7500 Du        
   1892 ****        -2.5000  32.0000 -26.5000 Du        
   1893 ****        -2.5000  32.0000 -26.2500 Du        
   1894 ****        -2.5000  32.0000 -26.0000 Du        
   1895 ****        -2.5000  32.0000 -25.7500 Du        
   1896 ****        -2.5000  32.0000 -25.5000 Du        
   1897 ****        -2.5000  32.0000 -25.2500 Du        
   1898 ****        -2.5000  32.0000 -25.0000 Du        
   1899 ****        -2.5000  32.2500 -28.7500 Du        
   1900 ****        -2.5000  32.2500 -28.5000 Du        
   1901 ****        -2.5000  32.2500 -28.2500 Du        
   1902 ****        -2.5000  32.2500 -28.0000 Du        
   1903 ****        -2.5000  32.2500 -27.7500 Du        
   1904 ****        -2.5000  32.2500 -27.5000 Du        
   1905 ****        -2.5000  32.2500 -27.2500 Du        
   1906 ****        -2.5000  32.2500 -27.0000 Du        
   1907 ****        -2.5000  32.2500 -26.7500 Du        
   1908 ****        -2.5000  32.2500 -26.5000 Du        
   1909 ****        -2.5000  32.2500 -26.2500 Du        
   1910 ****        -2.5000  32.2500 -26.0000 Du        
   1911 ****        -2.5000  32.2500 -25.7500 Du        
   1912 ****        -2.5000  32.2500 -25.5000 Du        
   1913 ****        -2.5000  32.2500 -25.2500 Du        
   1914 ****        -2.5000  32.2500 -25.0000 Du        
   1915 ****        -2.5000  32.5000 -28.7500 Du        
   1916 ****        -2.5000  32.5000 -28.5000 Du        
   1917 ****        -2.5000  32.5000 -28.2500 Du        
   1918 ****        -2.5000  32.5000 -28.0000 Du        
   1919 ****        -2.5000  32.5000 -27.7500 Du        
   1920 ****        -2.5000  32.5000 -27.5000 Du        
   1921 ****        -2.5000  32.5000 -27.2500 Du        
   1922 ****        -2.5000  32.5000 -27.0000 Du        
   1923 ****        -2.5000  32.5000 -26.7500 Du        
   1924 ****        -2.5000  32.5000 -26.5000 Du        
   1925 ****        -2.5000  32.5000 -26.2500 Du        
   1926 ****        -2.5000  32.5000 -26.0000 Du        
   1927 ****        -2.5000  32.5000 -25.7500 Du        
   1928 ****        -2.5000  32.5000 -25.5000 Du        
   1929 ****        -2.5000  32.5000 -25.2500 Du        
   1930 ****        -2.5000  32.5000 -25.0000 Du        
   1931 ****        -2.5000  32.7500 -28.5000 Du        
   1932 ****        -2.5000  32.7500 -28.2500 Du        
   1933 ****        -2.5000  32.7500 -28.0000 Du        
   1934 ****        -2.5000  32.7500 -27.7500 Du        
   1935 ****        -2.5000  32.7500 -27.5000 Du        
   1936 ****        -2.5000  32.7500 -27.2500 Du        
   1937 ****        -2.5000  32.7500 -27.0000 Du        
   1938 ****        -2.5000  32.7500 -26.7500 Du        
   1939 ****        -2.5000  32.7500 -26.5000 Du        
   1940 ****        -2.5000  32.7500 -26.2500 Du        
   1941 ****        -2.5000  32.7500 -26.0000 Du        
   1942 ****        -2.5000  32.7500 -25.7500 Du        
   1943 ****        -2.5000  32.7500 -25.5000 Du        
   1944 ****        -2.5000  32.7500 -25.2500 Du        
   1945 ****        -2.5000  33.0000 -28.5000 Du        
   1946 ****        -2.5000  33.0000 -28.2500 Du        
   1947 ****        -2.5000  33.0000 -28.0000 Du        
   1948 ****        -2.5000  33.0000 -27.7500 Du        
   1949 ****        -2.5000  33.0000 -27.5000 Du        
   1950 ****        -2.5000  33.0000 -27.2500 Du        
   1951 ****        -2.5000  33.0000 -27.0000 Du        
   1952 ****        -2.5000  33.0000 -26.7500 Du        
   1953 ****        -2.5000  33.0000 -26.5000 Du        
   1954 ****        -2.5000  33.0000 -26.2500 Du        
   1955 ****        -2.5000  33.0000 -26.0000 Du        
   1956 ****        -2.5000  33.0000 -25.7500 Du        
   1957 ****        -2.5000  33.0000 -25.5000 Du        
   1958 ****        -2.5000  33.0000 -25.2500 Du        
   1959 ****        -2.5000  33.2500 -28.5000 Du        
   1960 ****        -2.5000  33.2500 -28.2500 Du        
   1961 ****        -2.5000  33.2500 -28.0000 Du        
   1962 ****        -2.5000  33.2500 -27.7500 Du        
   1963 ****        -2.5000  33.2500 -27.5000 Du        
   1964 ****        -2.5000  33.2500 -27.2500 Du        
   1965 ****        -2.5000  33.2500 -27.0000 Du        
   1966 ****        -2.5000  33.2500 -26.7500 Du        
   1967 ****        -2.5000  33.2500 -26.5000 Du        
   1968 ****        -2.5000  33.2500 -26.2500 Du        
   1969 ****        -2.5000  33.2500 -26.0000 Du        
   1970 ****        -2.5000  33.2500 -25.7500 Du        
   1971 ****        -2.5000  33.2500 -25.5000 Du        
   1972 ****        -2.5000  33.5000 -28.5000 Du        
   1973 ****        -2.5000  33.5000 -28.2500 Du        
   1974 ****        -2.5000  33.5000 -28.0000 Du        
   1975 ****        -2.5000  33.5000 -27.7500 Du        
   1976 ****        -2.5000  33.5000 -27.5000 Du        
   1977 ****        -2.5000  33.5000 -27.2500 Du        
   1978 ****        -2.5000  33.5000 -27.0000 Du        
   1979 ****        -2.5000  33.5000 -26.7500 Du        
   1980 ****        -2.5000  33.5000 -26.5000 Du        
   1981 ****        -2.5000  33.5000 -26.2500 Du        
   1982 ****        -2.5000  33.5000 -26.0000 Du        
   1983 ****        -2.5000  33.5000 -25.7500 Du        
   1984 ****        -2.5000  33.5000 -25.5000 Du        
   1985 ****        -2.5000  33.7500 -28.5000 Du        
   1986 ****        -2.5000  33.7500 -28.2500 Du        
   1987 ****        -2.5000  33.7500 -28.0000 Du        
   1988 ****        -2.5000  33.7500 -27.7500 Du        
   1989 ****        -2.5000  33.7500 -27.5000 Du        
   1990 ****        -2.5000  33.7500 -27.2500 Du        
   1991 ****        -2.5000  33.7500 -27.0000 Du        
   1992 ****        -2.5000  33.7500 -26.7500 Du        
   1993 ****        -2.5000  33.7500 -26.5000 Du        
   1994 ****        -2.5000  33.7500 -26.2500 Du        
   1995 ****        -2.5000  33.7500 -26.0000 Du        
   1996 ****        -2.5000  33.7500 -25.7500 Du        
   1997 ****        -2.5000  34.0000 -28.5000 Du        
   1998 ****        -2.5000  34.0000 -28.2500 Du        
   1999 ****        -2.5000  34.0000 -28.0000 Du        
   2000 ****        -2.5000  34.0000 -27.7500 Du        
   2001 ****        -2.5000  34.0000 -27.5000 Du        
   2002 ****        -2.5000  34.0000 -27.2500 Du        
   2003 ****        -2.5000  34.0000 -27.0000 Du        
   2004 ****        -2.5000  34.0000 -26.7500 Du        
   2005 ****        -2.5000  34.0000 -26.5000 Du        
   2006 ****        -2.5000  34.2500 -28.2500 Du        
   2007 ****        -2.5000  34.2500 -28.0000 Du        
   2008 ****        -2.5000  34.2500 -27.7500 Du        
   2009 ****        -2.5000  34.2500 -27.5000 Du        
   2010 ****        -2.5000  34.2500 -27.2500 Du        
   2011 ****        -2.5000  34.5000 -28.0000 Du        
   2012 ****        -2.5000  34.5000 -27.7500 Du        
   2013 ****        -2.2500  30.5000 -26.2500 Du        
   2014 ****        -2.2500  30.7500 -26.5000 Du        
   2015 ****        -2.2500  30.7500 -26.2500 Du        
   2016 ****        -2.2500  30.7500 -26.0000 Du        
   2017 ****        -2.2500  30.7500 -25.7500 Du        
   2018 ****        -2.2500  30.7500 -25.5000 Du        
   2019 ****        -2.2500  30.7500 -25.2500 Du        
   2020 ****        -2.2500  30.7500 -25.0000 Du        
   2021 ****        -2.2500  30.7500 -24.7500 Du        
   2022 ****        -2.2500  31.0000 -28.7500 Du        
   2023 ****        -2.2500  31.0000 -28.2500 Du        
   2024 ****        -2.2500  31.0000 -27.0000 Du        
   2025 ****        -2.2500  31.0000 -26.7500 Du        
   2026 ****        -2.2500  31.0000 -26.5000 Du        
   2027 ****        -2.2500  31.0000 -26.2500 Du        
   2028 ****        -2.2500  31.0000 -26.0000 Du        
   2029 ****        -2.2500  31.0000 -25.7500 Du        
   2030 ****        -2.2500  31.0000 -25.5000 Du        
   2031 ****        -2.2500  31.0000 -25.2500 Du        
   2032 ****        -2.2500  31.0000 -25.0000 Du        
   2033 ****        -2.2500  31.0000 -24.7500 Du        
   2034 ****        -2.2500  31.0000 -24.5000 Du        
   2035 ****        -2.2500  31.2500 -28.2500 Du        
   2036 ****        -2.2500  31.2500 -28.0000 Du        
   2037 ****        -2.2500  31.2500 -27.5000 Du        
   2038 ****        -2.2500  31.2500 -27.2500 Du        
   2039 ****        -2.2500  31.2500 -27.0000 Du        
   2040 ****        -2.2500  31.2500 -26.7500 Du        
   2041 ****        -2.2500  31.2500 -26.5000 Du        
   2042 ****        -2.2500  31.2500 -26.2500 Du        
   2043 ****        -2.2500  31.2500 -26.0000 Du        
   2044 ****        -2.2500  31.2500 -25.7500 Du        
   2045 ****        -2.2500  31.2500 -25.5000 Du        
   2046 ****        -2.2500  31.2500 -25.2500 Du        
   2047 ****        -2.2500  31.2500 -25.0000 Du        
   2048 ****        -2.2500  31.2500 -24.7500 Du        
   2049 ****        -2.2500  31.2500 -24.5000 Du        
   2050 ****        -2.2500  31.5000 -28.7500 Du        
   2051 ****        -2.2500  31.5000 -28.5000 Du        
   2052 ****        -2.2500  31.5000 -28.2500 Du        
   2053 ****        -2.2500  31.5000 -28.0000 Du        
   2054 ****        -2.2500  31.5000 -27.7500 Du        
   2055 ****        -2.2500  31.5000 -27.5000 Du        
   2056 ****        -2.2500  31.5000 -27.2500 Du        
   2057 ****        -2.2500  31.5000 -27.0000 Du        
   2058 ****        -2.2500  31.5000 -26.7500 Du        
   2059 ****        -2.2500  31.5000 -26.5000 Du        
   2060 ****        -2.2500  31.5000 -26.2500 Du        
   2061 ****        -2.2500  31.5000 -26.0000 Du        
   2062 ****        -2.2500  31.5000 -25.7500 Du        
   2063 ****        -2.2500  31.5000 -25.5000 Du        
   2064 ****        -2.2500  31.5000 -25.2500 Du        
   2065 ****        -2.2500  31.5000 -25.0000 Du        
   2066 ****        -2.2500  31.5000 -24.7500 Du        
   2067 ****        -2.2500  31.5000 -24.5000 Du        
   2068 ****        -2.2500  31.7500 -28.7500 Du        
   2069 ****        -2.2500  31.7500 -28.5000 Du        
   2070 ****        -2.2500  31.7500 -28.2500 Du        
   2071 ****        -2.2500  31.7500 -28.0000 Du        
   2072 ****        -2.2500  31.7500 -27.7500 Du        
   2073 ****        -2.2500  31.7500 -27.5000 Du        
   2074 ****        -2.2500  31.7500 -27.2500 Du        
   2075 ****        -2.2500  31.7500 -27.0000 Du        
   2076 ****        -2.2500  31.7500 -26.7500 Du        
   2077 ****        -2.2500  31.7500 -26.5000 Du        
   2078 ****        -2.2500  31.7500 -26.2500 Du        
   2079 ****        -2.2500  31.7500 -26.0000 Du        
   2080 ****        -2.2500  31.7500 -25.7500 Du        
   2081 ****        -2.2500  31.7500 -25.5000 Du        
   2082 ****        -2.2500  31.7500 -25.2500 Du        
   2083 ****        -2.2500  31.7500 -25.0000 Du        
   2084 ****        -2.2500  31.7500 -24.7500 Du        
   2085 ****        -2.2500  31.7500 -24.5000 Du        
   2086 ****        -2.2500  32.0000 -28.5000 Du        
   2087 ****        -2.2500  32.0000 -28.2500 Du        
   2088 ****        -2.2500  32.0000 -28.0000 Du        
   2089 ****        -2.2500  32.0000 -27.7500 Du        
   2090 ****        -2.2500  32.0000 -27.5000 Du        
   2091 ****        -2.2500  32.0000 -27.2500 Du        
   2092 ****        -2.2500  32.0000 -27.0000 Du        
   2093 ****        -2.2500  32.0000 -26.7500 Du        
   2094 ****        -2.2500  32.0000 -26.5000 Du        
   2095 ****        -2.2500  32.0000 -26.2500 Du        
   2096 ****        -2.2500  32.0000 -26.0000 Du        
   2097 ****        -2.2500  32.0000 -25.7500 Du        
   2098 ****        -2.2500  32.0000 -25.5000 Du        
   2099 ****        -2.2500  32.0000 -25.2500 Du        
   2100 ****        -2.2500  32.0000 -25.0000 Du        
   2101 ****        -2.2500  32.0000 -24.7500 Du        
   2102 ****        -2.2500  32.2500 -28.5000 Du        
   2103 ****        -2.2500  32.2500 -28.2500 Du        
   2104 ****        -2.2500  32.2500 -28.0000 Du        
   2105 ****        -2.2500  32.2500 -27.7500 Du        
   2106 ****        -2.2500  32.2500 -27.5000 Du        
   2107 ****        -2.2500  32.2500 -27.2500 Du        
   2108 ****        -2.2500  32.2500 -27.0000 Du        
   2109 ****        -2.2500  32.2500 -26.7500 Du        
   2110 ****        -2.2500  32.2500 -26.5000 Du        
   2111 ****        -2.2500  32.2500 -26.2500 Du        
   2112 ****        -2.2500  32.2500 -26.0000 Du        
   2113 ****        -2.2500  32.2500 -25.7500 Du        
   2114 ****        -2.2500  32.2500 -25.5000 Du        
   2115 ****        -2.2500  32.2500 -25.2500 Du        
   2116 ****        -2.2500  32.2500 -25.0000 Du        
   2117 ****        -2.2500  32.2500 -24.7500 Du        
   2118 ****        -2.2500  32.5000 -28.2500 Du        
   2119 ****        -2.2500  32.5000 -28.0000 Du        
   2120 ****        -2.2500  32.5000 -27.7500 Du        
   2121 ****        -2.2500  32.5000 -27.5000 Du        
   2122 ****        -2.2500  32.5000 -27.2500 Du        
   2123 ****        -2.2500  32.5000 -27.0000 Du        
   2124 ****        -2.2500  32.5000 -26.7500 Du        
   2125 ****        -2.2500  32.5000 -26.5000 Du        
   2126 ****        -2.2500  32.5000 -26.2500 Du        
   2127 ****        -2.2500  32.5000 -26.0000 Du        
   2128 ****        -2.2500  32.5000 -25.7500 Du        
   2129 ****        -2.2500  32.5000 -25.5000 Du        
   2130 ****        -2.2500  32.5000 -25.2500 Du        
   2131 ****        -2.2500  32.5000 -25.0000 Du        
   2132 ****        -2.2500  32.7500 -28.2500 Du        
   2133 ****        -2.2500  32.7500 -28.0000 Du        
   2134 ****        -2.2500  32.7500 -27.7500 Du        
   2135 ****        -2.2500  32.7500 -27.5000 Du        
   2136 ****        -2.2500  32.7500 -27.2500 Du        
   2137 ****        -2.2500  32.7500 -27.0000 Du        
   2138 ****        -2.2500  32.7500 -26.7500 Du        
   2139 ****        -2.2500  32.7500 -26.5000 Du        
   2140 ****        -2.2500  32.7500 -26.2500 Du        
   2141 ****        -2.2500  32.7500 -26.0000 Du        
   2142 ****        -2.2500  32.7500 -25.7500 Du        
   2143 ****        -2.2500  32.7500 -25.5000 Du        
   2144 ****        -2.2500  32.7500 -25.2500 Du        
   2145 ****        -2.2500  33.0000 -28.2500 Du        
   2146 ****        -2.2500  33.0000 -28.0000 Du        
   2147 ****        -2.2500  33.0000 -27.7500 Du        
   2148 ****        -2.2500  33.0000 -27.5000 Du        
   2149 ****        -2.2500  33.0000 -27.2500 Du        
   2150 ****        -2.2500  33.0000 -27.0000 Du        
   2151 ****        -2.2500  33.0000 -26.7500 Du        
   2152 ****        -2.2500  33.0000 -26.5000 Du        
   2153 ****        -2.2500  33.0000 -26.2500 Du        
   2154 ****        -2.2500  33.0000 -26.0000 Du        
   2155 ****        -2.2500  33.0000 -25.7500 Du        
   2156 ****        -2.2500  33.0000 -25.5000 Du        
   2157 ****        -2.2500  33.0000 -25.2500 Du        
   2158 ****        -2.2500  33.2500 -28.0000 Du        
   2159 ****        -2.2500  33.2500 -27.7500 Du        
   2160 ****        -2.2500  33.2500 -27.5000 Du        
   2161 ****        -2.2500  33.2500 -27.2500 Du        
   2162 ****        -2.2500  33.2500 -27.0000 Du        
   2163 ****        -2.2500  33.2500 -26.7500 Du        
   2164 ****        -2.2500  33.2500 -26.5000 Du        
   2165 ****        -2.2500  33.2500 -26.2500 Du        
   2166 ****        -2.2500  33.2500 -26.0000 Du        
   2167 ****        -2.2500  33.2500 -25.7500 Du        
   2168 ****        -2.2500  33.2500 -25.5000 Du        
   2169 ****        -2.2500  33.5000 -28.0000 Du        
   2170 ****        -2.2500  33.5000 -27.7500 Du        
   2171 ****        -2.2500  33.5000 -27.5000 Du        
   2172 ****        -2.2500  33.5000 -27.2500 Du        
   2173 ****        -2.2500  33.5000 -27.0000 Du        
   2174 ****        -2.2500  33.5000 -26.7500 Du        
   2175 ****        -2.2500  33.5000 -26.5000 Du        
   2176 ****        -2.2500  33.5000 -26.2500 Du        
   2177 ****        -2.2500  33.5000 -26.0000 Du        
   2178 ****        -2.2500  33.5000 -25.7500 Du        
   2179 ****        -2.2500  33.5000 -25.5000 Du        
   2180 ****        -2.2500  33.7500 -28.0000 Du        
   2181 ****        -2.2500  33.7500 -27.7500 Du        
   2182 ****        -2.2500  33.7500 -27.5000 Du        
   2183 ****        -2.2500  33.7500 -27.2500 Du        
   2184 ****        -2.2500  33.7500 -27.0000 Du        
   2185 ****        -2.2500  33.7500 -26.7500 Du        
   2186 ****        -2.2500  33.7500 -26.5000 Du        
   2187 ****        -2.2500  34.0000 -28.0000 Du        
   2188 ****        -2.2500  34.0000 -27.7500 Du        
   2189 ****        -2.2500  34.0000 -27.5000 Du        
   2190 ****        -2.2500  34.0000 -27.2500 Du        
   2191 ****        -2.2500  34.0000 -27.0000 Du        
   2192 ****        -2.2500  34.2500 -28.0000 Du        
   2193 ****        -2.2500  34.2500 -27.7500 Du        
   2194 ****        -2.2500  34.2500 -27.5000 Du        
   2195 ****        -2.0000  30.2500 -25.0000 Du        
   2196 ****        -2.0000  30.2500 -24.7500 Du        
   2197 ****        -2.0000  30.5000 -26.0000 Du        
   2198 ****        -2.0000  30.5000 -25.7500 Du        
   2199 ****        -2.0000  30.5000 -25.5000 Du        
   2200 ****        -2.0000  30.5000 -25.2500 Du        
   2201 ****        -2.0000  30.5000 -25.0000 Du        
   2202 ****        -2.0000  30.5000 -24.7500 Du        
   2203 ****        -2.0000  30.5000 -24.5000 Du        
   2204 ****        -2.0000  30.7500 -26.2500 Du        
   2205 ****        -2.0000  30.7500 -26.0000 Du        
   2206 ****        -2.0000  30.7500 -25.7500 Du        
   2207 ****        -2.0000  30.7500 -25.5000 Du        
   2208 ****        -2.0000  30.7500 -25.2500 Du        
   2209 ****        -2.0000  30.7500 -25.0000 Du        
   2210 ****        -2.0000  30.7500 -24.7500 Du        
   2211 ****        -2.0000  30.7500 -24.5000 Du        
   2212 ****        -2.0000  30.7500 -24.2500 Du        
   2213 ****        -2.0000  31.0000 -28.7500 Du        
   2214 ****        -2.0000  31.0000 -28.2500 Du        
   2215 ****        -2.0000  31.0000 -27.0000 Du        
   2216 ****        -2.0000  31.0000 -26.7500 Du        
   2217 ****        -2.0000  31.0000 -26.5000 Du        
   2218 ****        -2.0000  31.0000 -26.2500 Du        
   2219 ****        -2.0000  31.0000 -26.0000 Du        
   2220 ****        -2.0000  31.0000 -25.7500 Du        
   2221 ****        -2.0000  31.0000 -25.5000 Du        
   2222 ****        -2.0000  31.0000 -25.2500 Du        
   2223 ****        -2.0000  31.0000 -25.0000 Du        
   2224 ****        -2.0000  31.0000 -24.7500 Du        
   2225 ****        -2.0000  31.0000 -24.5000 Du        
   2226 ****        -2.0000  31.0000 -24.2500 Du        
   2227 ****        -2.0000  31.2500 -28.7500 Du        
   2228 ****        -2.0000  31.2500 -28.2500 Du        
   2229 ****        -2.0000  31.2500 -28.0000 Du        
   2230 ****        -2.0000  31.2500 -27.7500 Du        
   2231 ****        -2.0000  31.2500 -27.5000 Du        
   2232 ****        -2.0000  31.2500 -27.2500 Du        
   2233 ****        -2.0000  31.2500 -27.0000 Du        
   2234 ****        -2.0000  31.2500 -26.7500 Du        
   2235 ****        -2.0000  31.2500 -26.5000 Du        
   2236 ****        -2.0000  31.2500 -26.2500 Du        
   2237 ****        -2.0000  31.2500 -26.0000 Du        
   2238 ****        -2.0000  31.2500 -25.7500 Du        
   2239 ****        -2.0000  31.2500 -25.5000 Du        
   2240 ****        -2.0000  31.2500 -25.2500 Du        
   2241 ****        -2.0000  31.2500 -25.0000 Du        
   2242 ****        -2.0000  31.2500 -24.7500 Du        
   2243 ****        -2.0000  31.2500 -24.5000 Du        
   2244 ****        -2.0000  31.2500 -24.2500 Du        
   2245 ****        -2.0000  31.5000 -28.5000 Du        
   2246 ****        -2.0000  31.5000 -28.2500 Du        
   2247 ****        -2.0000  31.5000 -28.0000 Du        
   2248 ****        -2.0000  31.5000 -27.7500 Du        
   2249 ****        -2.0000  31.5000 -27.5000 Du        
   2250 ****        -2.0000  31.5000 -27.2500 Du        
   2251 ****        -2.0000  31.5000 -27.0000 Du        
   2252 ****        -2.0000  31.5000 -26.7500 Du        
   2253 ****        -2.0000  31.5000 -26.5000 Du        
   2254 ****        -2.0000  31.5000 -26.2500 Du        
   2255 ****        -2.0000  31.5000 -26.0000 Du        
   2256 ****        -2.0000  31.5000 -25.7500 Du        
   2257 ****        -2.0000  31.5000 -25.5000 Du        
   2258 ****        -2.0000  31.5000 -25.2500 Du        
   2259 ****        -2.0000  31.5000 -25.0000 Du        
   2260 ****        -2.0000  31.5000 -24.7500 Du        
   2261 ****        -2.0000  31.5000 -24.5000 Du        
   2262 ****        -2.0000  31.5000 -24.2500 Du        
   2263 ****        -2.0000  31.7500 -28.5000 Du        
   2264 ****        -2.0000  31.7500 -28.2500 Du        
   2265 ****        -2.0000  31.7500 -28.0000 Du        
   2266 ****        -2.0000  31.7500 -27.7500 Du        
   2267 ****        -2.0000  31.7500 -27.5000 Du        
   2268 ****        -2.0000  31.7500 -27.2500 Du        
   2269 ****        -2.0000  31.7500 -27.0000 Du        
   2270 ****        -2.0000  31.7500 -26.7500 Du        
   2271 ****        -2.0000  31.7500 -26.5000 Du        
   2272 ****        -2.0000  31.7500 -26.2500 Du        
   2273 ****        -2.0000  31.7500 -26.0000 Du        
   2274 ****        -2.0000  31.7500 -25.7500 Du        
   2275 ****        -2.0000  31.7500 -25.5000 Du        
   2276 ****        -2.0000  31.7500 -25.2500 Du        
   2277 ****        -2.0000  31.7500 -25.0000 Du        
   2278 ****        -2.0000  31.7500 -24.7500 Du        
   2279 ****        -2.0000  31.7500 -24.5000 Du        
   2280 ****        -2.0000  32.0000 -28.2500 Du        
   2281 ****        -2.0000  32.0000 -28.0000 Du        
   2282 ****        -2.0000  32.0000 -27.7500 Du        
   2283 ****        -2.0000  32.0000 -27.5000 Du        
   2284 ****        -2.0000  32.0000 -27.2500 Du        
   2285 ****        -2.0000  32.0000 -27.0000 Du        
   2286 ****        -2.0000  32.0000 -26.7500 Du        
   2287 ****        -2.0000  32.0000 -26.5000 Du        
   2288 ****        -2.0000  32.0000 -26.2500 Du        
   2289 ****        -2.0000  32.0000 -26.0000 Du        
   2290 ****        -2.0000  32.0000 -25.7500 Du        
   2291 ****        -2.0000  32.0000 -25.5000 Du        
   2292 ****        -2.0000  32.0000 -25.2500 Du        
   2293 ****        -2.0000  32.0000 -25.0000 Du        
   2294 ****        -2.0000  32.0000 -24.7500 Du        
   2295 ****        -2.0000  32.0000 -24.5000 Du        
   2296 ****        -2.0000  32.2500 -28.0000 Du        
   2297 ****        -2.0000  32.2500 -27.7500 Du        
   2298 ****        -2.0000  32.2500 -27.5000 Du        
   2299 ****        -2.0000  32.2500 -27.2500 Du        
   2300 ****        -2.0000  32.2500 -27.0000 Du        
   2301 ****        -2.0000  32.2500 -26.7500 Du        
   2302 ****        -2.0000  32.2500 -26.5000 Du        
   2303 ****        -2.0000  32.2500 -26.2500 Du        
   2304 ****        -2.0000  32.2500 -26.0000 Du        
   2305 ****        -2.0000  32.2500 -25.7500 Du        
   2306 ****        -2.0000  32.2500 -25.5000 Du        
   2307 ****        -2.0000  32.2500 -25.2500 Du        
   2308 ****        -2.0000  32.2500 -25.0000 Du        
   2309 ****        -2.0000  32.2500 -24.7500 Du        
   2310 ****        -2.0000  32.5000 -28.0000 Du        
   2311 ****        -2.0000  32.5000 -27.7500 Du        
   2312 ****        -2.0000  32.5000 -27.5000 Du        
   2313 ****        -2.0000  32.5000 -27.2500 Du        
   2314 ****        -2.0000  32.5000 -27.0000 Du        
   2315 ****        -2.0000  32.5000 -26.7500 Du        
   2316 ****        -2.0000  32.5000 -26.5000 Du        
   2317 ****        -2.0000  32.5000 -26.2500 Du        
   2318 ****        -2.0000  32.5000 -26.0000 Du        
   2319 ****        -2.0000  32.5000 -25.7500 Du        
   2320 ****        -2.0000  32.5000 -25.5000 Du        
   2321 ****        -2.0000  32.5000 -25.2500 Du        
   2322 ****        -2.0000  32.5000 -25.0000 Du        
   2323 ****        -2.0000  32.7500 -28.0000 Du        
   2324 ****        -2.0000  32.7500 -27.7500 Du        
   2325 ****        -2.0000  32.7500 -27.5000 Du        
   2326 ****        -2.0000  32.7500 -27.2500 Du        
   2327 ****        -2.0000  32.7500 -27.0000 Du        
   2328 ****        -2.0000  32.7500 -26.7500 Du        
   2329 ****        -2.0000  32.7500 -26.5000 Du        
   2330 ****        -2.0000  32.7500 -26.2500 Du        
   2331 ****        -2.0000  32.7500 -26.0000 Du        
   2332 ****        -2.0000  32.7500 -25.7500 Du        
   2333 ****        -2.0000  32.7500 -25.5000 Du        
   2334 ****        -2.0000  32.7500 -25.2500 Du        
   2335 ****        -2.0000  33.0000 -27.7500 Du        
   2336 ****        -2.0000  33.0000 -27.5000 Du        
   2337 ****        -2.0000  33.0000 -27.2500 Du        
   2338 ****        -2.0000  33.0000 -27.0000 Du        
   2339 ****        -2.0000  33.0000 -26.2500 Du        
   2340 ****        -2.0000  33.0000 -26.0000 Du        
   2341 ****        -2.0000  33.0000 -25.7500 Du        
   2342 ****        -2.0000  33.0000 -25.5000 Du        
   2343 ****        -2.0000  33.2500 -27.5000 Du        
   2344 ****        -1.7500  30.0000 -24.7500 Du        
   2345 ****        -1.7500  30.2500 -25.0000 Du        
   2346 ****        -1.7500  30.2500 -24.7500 Du        
   2347 ****        -1.7500  30.2500 -24.5000 Du        
   2348 ****        -1.7500  30.5000 -25.7500 Du        
   2349 ****        -1.7500  30.5000 -25.5000 Du        
   2350 ****        -1.7500  30.5000 -25.2500 Du        
   2351 ****        -1.7500  30.5000 -25.0000 Du        
   2352 ****        -1.7500  30.5000 -24.7500 Du        
   2353 ****        -1.7500  30.5000 -24.5000 Du        
   2354 ****        -1.7500  30.5000 -24.2500 Du        
   2355 ****        -1.7500  30.7500 -26.2500 Du        
   2356 ****        -1.7500  30.7500 -26.0000 Du        
   2357 ****        -1.7500  30.7500 -25.7500 Du        
   2358 ****        -1.7500  30.7500 -25.5000 Du        
   2359 ****        -1.7500  30.7500 -25.2500 Du        
   2360 ****        -1.7500  30.7500 -25.0000 Du        
   2361 ****        -1.7500  30.7500 -24.7500 Du        
   2362 ****        -1.7500  30.7500 -24.5000 Du        
   2363 ****        -1.7500  30.7500 -24.2500 Du        
   2364 ****        -1.7500  31.0000 -27.0000 Du        
   2365 ****        -1.7500  31.0000 -26.7500 Du        
   2366 ****        -1.7500  31.0000 -26.5000 Du        
   2367 ****        -1.7500  31.0000 -26.2500 Du        
   2368 ****        -1.7500  31.0000 -26.0000 Du        
   2369 ****        -1.7500  31.0000 -25.7500 Du        
   2370 ****        -1.7500  31.0000 -25.5000 Du        
   2371 ****        -1.7500  31.0000 -25.2500 Du        
   2372 ****        -1.7500  31.0000 -25.0000 Du        
   2373 ****        -1.7500  31.0000 -24.7500 Du        
   2374 ****        -1.7500  31.0000 -24.5000 Du        
   2375 ****        -1.7500  31.0000 -24.2500 Du        
   2376 ****        -1.7500  31.2500 -27.2500 Du        
   2377 ****        -1.7500  31.2500 -27.0000 Du        
   2378 ****        -1.7500  31.2500 -26.7500 Du        
   2379 ****        -1.7500  31.2500 -26.5000 Du        
   2380 ****        -1.7500  31.2500 -26.2500 Du        
   2381 ****        -1.7500  31.2500 -26.0000 Du        
   2382 ****        -1.7500  31.2500 -25.7500 Du        
   2383 ****        -1.7500  31.2500 -25.5000 Du        
   2384 ****        -1.7500  31.2500 -25.2500 Du        
   2385 ****        -1.7500  31.2500 -25.0000 Du        
   2386 ****        -1.7500  31.2500 -24.7500 Du        
   2387 ****        -1.7500  31.2500 -24.5000 Du        
   2388 ****        -1.7500  31.2500 -24.2500 Du        
   2389 ****        -1.7500  31.5000 -28.2500 Du        
   2390 ****        -1.7500  31.5000 -28.0000 Du        
   2391 ****        -1.7500  31.5000 -27.7500 Du        
   2392 ****        -1.7500  31.5000 -27.5000 Du        
   2393 ****        -1.7500  31.5000 -27.2500 Du        
   2394 ****        -1.7500  31.5000 -27.0000 Du        
   2395 ****        -1.7500  31.5000 -26.7500 Du        
   2396 ****        -1.7500  31.5000 -26.5000 Du        
   2397 ****        -1.7500  31.5000 -26.2500 Du        
   2398 ****        -1.7500  31.5000 -26.0000 Du        
   2399 ****        -1.7500  31.5000 -25.7500 Du        
   2400 ****        -1.7500  31.5000 -25.5000 Du        
   2401 ****        -1.7500  31.5000 -25.2500 Du        
   2402 ****        -1.7500  31.5000 -25.0000 Du        
   2403 ****        -1.7500  31.5000 -24.7500 Du        
   2404 ****        -1.7500  31.5000 -24.5000 Du        
   2405 ****        -1.7500  31.5000 -24.2500 Du        
   2406 ****        -1.7500  31.7500 -28.0000 Du        
   2407 ****        -1.7500  31.7500 -27.7500 Du        
   2408 ****        -1.7500  31.7500 -27.5000 Du        
   2409 ****        -1.7500  31.7500 -27.2500 Du        
   2410 ****        -1.7500  31.7500 -27.0000 Du        
   2411 ****        -1.7500  31.7500 -26.7500 Du        
   2412 ****        -1.7500  31.7500 -26.5000 Du        
   2413 ****        -1.7500  31.7500 -26.2500 Du        
   2414 ****        -1.7500  31.7500 -26.0000 Du        
   2415 ****        -1.7500  31.7500 -25.7500 Du        
   2416 ****        -1.7500  31.7500 -25.5000 Du        
   2417 ****        -1.7500  31.7500 -25.2500 Du        
   2418 ****        -1.7500  31.7500 -25.0000 Du        
   2419 ****        -1.7500  31.7500 -24.7500 Du        
   2420 ****        -1.7500  31.7500 -24.5000 Du        
   2421 ****        -1.7500  32.0000 -28.0000 Du        
   2422 ****        -1.7500  32.0000 -27.7500 Du        
   2423 ****        -1.7500  32.0000 -27.5000 Du        
   2424 ****        -1.7500  32.0000 -27.2500 Du        
   2425 ****        -1.7500  32.0000 -27.0000 Du        
   2426 ****        -1.7500  32.0000 -26.7500 Du        
   2427 ****        -1.7500  32.0000 -26.5000 Du        
   2428 ****        -1.7500  32.0000 -26.2500 Du        
   2429 ****        -1.7500  32.0000 -26.0000 Du        
   2430 ****        -1.7500  32.0000 -25.7500 Du        
   2431 ****        -1.7500  32.0000 -25.5000 Du        
   2432 ****        -1.7500  32.0000 -25.2500 Du        
   2433 ****        -1.7500  32.0000 -25.0000 Du        
   2434 ****        -1.7500  32.0000 -24.7500 Du        
   2435 ****        -1.7500  32.0000 -24.5000 Du        
   2436 ****        -1.7500  32.2500 -27.7500 Du        
   2437 ****        -1.7500  32.2500 -27.2500 Du        
   2438 ****        -1.7500  32.2500 -26.0000 Du        
   2439 ****        -1.7500  32.2500 -25.7500 Du        
   2440 ****        -1.7500  32.2500 -25.5000 Du        
   2441 ****        -1.7500  32.2500 -25.2500 Du        
   2442 ****        -1.7500  32.2500 -25.0000 Du        
   2443 ****        -1.7500  32.2500 -24.7500 Du        
   2444 ****        -1.7500  32.5000 -25.5000 Du        
   2445 ****        -1.7500  32.5000 -25.2500 Du        
   2446 ****        -1.5000  30.2500 -25.0000 Du        
   2447 ****        -1.5000  30.2500 -24.5000 Du        
   2448 ****        -1.5000  30.5000 -25.5000 Du        
   2449 ****        -1.5000  30.5000 -25.2500 Du        
   2450 ****        -1.5000  30.5000 -25.0000 Du        
   2451 ****        -1.5000  30.5000 -24.7500 Du        
   2452 ****        -1.5000  30.5000 -24.5000 Du        
   2453 ****        -1.5000  30.7500 -26.2500 Du        
   2454 ****        -1.5000  30.7500 -26.0000 Du        
   2455 ****        -1.5000  30.7500 -25.7500 Du        
   2456 ****        -1.5000  30.7500 -25.5000 Du        
   2457 ****        -1.5000  30.7500 -25.2500 Du        
   2458 ****        -1.5000  30.7500 -25.0000 Du        
   2459 ****        -1.5000  30.7500 -24.7500 Du        
   2460 ****        -1.5000  30.7500 -24.5000 Du        
   2461 ****        -1.5000  31.0000 -26.5000 Du        
   2462 ****        -1.5000  31.0000 -26.2500 Du        
   2463 ****        -1.5000  31.0000 -26.0000 Du        
   2464 ****        -1.5000  31.0000 -25.7500 Du        
   2465 ****        -1.5000  31.0000 -25.5000 Du        
   2466 ****        -1.5000  31.0000 -25.2500 Du        
   2467 ****        -1.5000  31.0000 -25.0000 Du        
   2468 ****        -1.5000  31.0000 -24.7500 Du        
   2469 ****        -1.5000  31.0000 -24.5000 Du        
   2470 ****        -1.5000  31.0000 -24.2500 Du        
   2471 ****        -1.5000  31.2500 -26.5000 Du        
   2472 ****        -1.5000  31.2500 -26.2500 Du        
   2473 ****        -1.5000  31.2500 -26.0000 Du        
   2474 ****        -1.5000  31.2500 -25.7500 Du        
   2475 ****        -1.5000  31.2500 -25.5000 Du        
   2476 ****        -1.5000  31.2500 -25.2500 Du        
   2477 ****        -1.5000  31.2500 -25.0000 Du        
   2478 ****        -1.5000  31.2500 -24.7500 Du        
   2479 ****        -1.5000  31.2500 -24.5000 Du        
   2480 ****        -1.5000  31.2500 -24.2500 Du        
   2481 ****        -1.5000  31.5000 -26.5000 Du        
   2482 ****        -1.5000  31.5000 -26.2500 Du        
   2483 ****        -1.5000  31.5000 -26.0000 Du        
   2484 ****        -1.5000  31.5000 -25.7500 Du        
   2485 ****        -1.5000  31.5000 -25.5000 Du        
   2486 ****        -1.5000  31.5000 -25.2500 Du        
   2487 ****        -1.5000  31.5000 -25.0000 Du        
   2488 ****        -1.5000  31.5000 -24.7500 Du        
   2489 ****        -1.5000  31.5000 -24.5000 Du        
   2490 ****        -1.5000  31.5000 -24.2500 Du        
   2491 ****        -1.5000  31.7500 -26.0000 Du        
   2492 ****        -1.5000  31.7500 -25.7500 Du        
   2493 ****        -1.5000  31.7500 -25.5000 Du        
   2494 ****        -1.5000  31.7500 -25.2500 Du        
   2495 ****        -1.5000  31.7500 -25.0000 Du        
   2496 ****        -1.5000  31.7500 -24.7500 Du        
   2497 ****        -1.5000  31.7500 -24.5000 Du        
   2498 ****        -1.5000  32.0000 -25.5000 Du        
   2499 ****        -1.5000  32.0000 -25.2500 Du        
   2500 ****        -1.5000  32.0000 -25.0000 Du        
   2501 ****        -1.5000  32.0000 -24.7500 Du        
   2502 ****        -1.2500  30.2500 -25.2500 Du        
   2503 ****        -1.2500  30.2500 -25.0000 Du        
   2504 ****        -1.2500  30.2500 -24.7500 Du        
   2505 ****        -1.2500  30.5000 -25.2500 Du        
   2506 ****        -1.2500  30.5000 -25.0000 Du        
   2507 ****        -1.2500  30.5000 -24.7500 Du        
   2508 ****        -1.2500  30.5000 -24.5000 Du        
   2509 ****        -1.2500  30.7500 -26.0000 Du        
   2510 ****        -1.2500  30.7500 -25.7500 Du        
   2511 ****        -1.2500  30.7500 -25.5000 Du        
   2512 ****        -1.2500  30.7500 -25.2500 Du        
   2513 ****        -1.2500  30.7500 -25.0000 Du        
   2514 ****        -1.2500  30.7500 -24.7500 Du        
   2515 ****        -1.2500  30.7500 -24.5000 Du        
   2516 ****        -1.2500  30.7500 -24.2500 Du        
   2517 ****        -1.2500  31.0000 -26.2500 Du        
   2518 ****        -1.2500  31.0000 -26.0000 Du        
   2519 ****        -1.2500  31.0000 -25.7500 Du        
   2520 ****        -1.2500  31.0000 -25.5000 Du        
   2521 ****        -1.2500  31.0000 -25.2500 Du        
   2522 ****        -1.2500  31.0000 -25.0000 Du        
   2523 ****        -1.2500  31.0000 -24.7500 Du        
   2524 ****        -1.2500  31.0000 -24.5000 Du        
   2525 ****        -1.2500  31.0000 -24.2500 Du        
   2526 ****        -1.2500  31.2500 -26.2500 Du        
   2527 ****        -1.2500  31.2500 -26.0000 Du        
   2528 ****        -1.2500  31.2500 -25.7500 Du        
   2529 ****        -1.2500  31.2500 -25.5000 Du        
   2530 ****        -1.2500  31.2500 -25.2500 Du        
   2531 ****        -1.2500  31.2500 -25.0000 Du        
   2532 ****        -1.2500  31.2500 -24.7500 Du        
   2533 ****        -1.2500  31.2500 -24.5000 Du        
   2534 ****        -1.2500  31.2500 -24.2500 Du        
   2535 ****        -1.2500  31.5000 -25.7500 Du        
   2536 ****        -1.2500  31.5000 -25.5000 Du        
   2537 ****        -1.2500  31.5000 -25.2500 Du        
   2538 ****        -1.2500  31.5000 -25.0000 Du        
   2539 ****        -1.2500  31.5000 -24.7500 Du        
   2540 ****        -1.2500  31.5000 -24.5000 Du        
   2541 ****        -1.2500  31.7500 -25.5000 Du        
   2542 ****        -1.2500  31.7500 -25.2500 Du        
   2543 ****        -1.2500  31.7500 -25.0000 Du        
   2544 ****        -1.2500  31.7500 -24.7500 Du        
   2545 ****        -1.2500  31.7500 -24.5000 Du        
   2546 ****        -1.2500  32.0000 -25.0000 Du        
   2547 ****        -1.0000  30.2500 -25.0000 Du        
   2548 ****        -1.0000  30.5000 -25.2500 Du        
   2549 ****        -1.0000  30.5000 -25.0000 Du        
   2550 ****        -1.0000  30.5000 -24.7500 Du        
   2551 ****        -1.0000  30.5000 -24.5000 Du        
   2552 ****        -1.0000  30.7500 -25.7500 Du        
   2553 ****        -1.0000  30.7500 -25.5000 Du        
   2554 ****        -1.0000  30.7500 -25.2500 Du        
   2555 ****        -1.0000  30.7500 -25.0000 Du        
   2556 ****        -1.0000  30.7500 -24.7500 Du        
   2557 ****        -1.0000  30.7500 -24.5000 Du        
   2558 ****        -1.0000  30.7500 -24.2500 Du        
   2559 ****        -1.0000  31.0000 -26.0000 Du        
   2560 ****        -1.0000  31.0000 -25.7500 Du        
   2561 ****        -1.0000  31.0000 -25.5000 Du        
   2562 ****        -1.0000  31.0000 -25.2500 Du        
   2563 ****        -1.0000  31.0000 -25.0000 Du        
   2564 ****        -1.0000  31.0000 -24.7500 Du        
   2565 ****        -1.0000  31.0000 -24.5000 Du        
   2566 ****        -1.0000  31.0000 -24.2500 Du        
   2567 ****        -1.0000  31.2500 -25.7500 Du        
   2568 ****        -1.0000  31.2500 -25.5000 Du        
   2569 ****        -1.0000  31.2500 -25.2500 Du        
   2570 ****        -1.0000  31.2500 -25.0000 Du        
   2571 ****        -1.0000  31.2500 -24.7500 Du        
   2572 ****        -1.0000  31.2500 -24.5000 Du        
   2573 ****        -1.0000  31.2500 -24.2500 Du        
   2574 ****        -1.0000  31.5000 -25.5000 Du        
   2575 ****        -1.0000  31.5000 -25.2500 Du        
   2576 ****        -1.0000  31.5000 -25.0000 Du        
   2577 ****        -1.0000  31.5000 -24.7500 Du        
   2578 ****        -1.0000  31.5000 -24.5000 Du        
   2579 ****        -1.0000  31.7500 -25.0000 Du        
   2580 ****        -1.0000  31.7500 -24.7500 Du        
   2581 ****        -0.7500  30.5000 -25.0000 Du        
   2582 ****        -0.7500  30.5000 -24.7500 Du        
   2583 ****        -0.7500  30.7500 -25.2500 Du        
   2584 ****        -0.7500  30.7500 -25.0000 Du        
   2585 ****        -0.7500  30.7500 -24.7500 Du        
   2586 ****        -0.7500  30.7500 -24.5000 Du        
   2587 ****        -0.7500  30.7500 -24.2500 Du        
   2588 ****        -0.7500  31.0000 -25.2500 Du        
   2589 ****        -0.7500  31.0000 -25.0000 Du        
   2590 ****        -0.7500  31.0000 -24.7500 Du        
   2591 ****        -0.7500  31.0000 -24.5000 Du        
   2592 ****        -0.7500  31.0000 -24.2500 Du        
   2593 ****        -0.7500  31.2500 -25.2500 Du        
   2594 ****        -0.7500  31.2500 -25.0000 Du        
   2595 ****        -0.7500  31.2500 -24.7500 Du        
   2596 ****        -0.7500  31.2500 -24.5000 Du        
   2597 ****        -0.7500  31.5000 -25.0000 Du        
   2598 ****        -0.7500  31.5000 -24.7500 Du        
   2599 ****        -0.5000  30.7500 -24.5000 Du        
   2600 ****        -0.5000  31.0000 -25.0000 Du        
   2601 ****        -0.5000  31.0000 -24.5000 Du        
   2602 ****        -0.2500  30.7500 -24.5000 Du        
   2603 ****        -0.2500  31.0000 -24.5000 Du        
   2604 ****        -0.2500  31.0000 -24.2500 Du        
