#       Name:                CT1002167954
#       Creating user name   hitesit
#       Creation time:       Sun Apr 16 02:23:49 2023


#       File generated by GOLD software.
#

@<TRIPOS>MOLECULE
CT1002167954|ligand_prepared|mol2|1|dock6
    29    30     1
SMALL
NO_CHARGES


@<TRIPOS>ATOM
      1 C1          -2.3635  32.1384 -27.1663 C.3            1 RES1               0.0000
      2 C2          -3.6502  31.7385 -27.9168 C.ar           1 RES1               0.0000
      3 C3          -2.1188  33.6095 -27.4891 C.2            1 RES1               0.0000
      4 C4          -2.6268  31.8609 -25.6904 C.2            1 RES1               0.0000
      5 C5          -1.1159  31.3285 -27.5895 C.3            1 RES1               0.0000
      6 C6          -4.8894  32.2194 -27.5048 C.ar           1 RES1               0.0000
      7 C7          -3.6137  30.8932 -29.0226 C.ar           1 RES1               0.0000
      8 N8          -2.3732  34.5224 -26.5085 N.am           1 RES1               0.0000
      9 O9          -1.7461  33.9665 -28.5999 O.2            1 RES1               0.0000
     10 N10         -2.6699  32.9296 -24.8338 N.am           1 RES1               0.0000
     11 O11         -2.8138  30.7279 -25.2642 O.2            1 RES1               0.0000
     12 C12          0.0482  31.4433 -26.6181 C.3            1 RES1               0.0000
     13 C13         -6.0498  31.8704 -28.1756 C.ar           1 RES1               0.0000
     14 C14         -4.7753  30.5452 -29.6918 C.ar           1 RES1               0.0000
     15 C15         -2.5856  34.2504 -25.1808 C.2            1 RES1               0.0000
     16 C16         -5.9935  31.0335 -29.2697 C.ar           1 RES1               0.0000
     17 O17         -2.6879  35.1574 -24.3598 O.2            1 RES1               0.0000
     18 H18         -1.3957  30.2718 -27.6822 H              1 RES1               0.0000
     19 H19         -0.7875  31.6762 -28.5768 H              1 RES1               0.0000
     20 H20         -4.9536  32.8772 -26.6443 H              1 RES1               0.0000
     21 H21         -2.6666  30.4962 -29.3719 H              1 RES1               0.0000
     22 H22         -2.4090  35.4975 -26.7881 H              1 RES1               0.0000
     23 H23         -2.7744  32.7211 -23.8458 H              1 RES1               0.0000
     24 H24          0.8972  30.8564 -26.9623 H              1 RES1               0.0000
     25 H25          0.3689  32.4784 -26.5210 H              1 RES1               0.0000
     26 H26         -0.2356  31.0824 -25.6316 H              1 RES1               0.0000
     27 H27         -7.0062  32.2563 -27.8385 H              1 RES1               0.0000
     28 H28         -4.7264  29.8858 -30.5521 H              1 RES1               0.0000
     29 H29         -6.9027  30.7605 -29.7952 H              1 RES1               0.0000
@<TRIPOS>BOND
    1    1    2 1     
    2    1    3 1     
    3    1    4 1     
    4    1    5 1     
    5    2    6 ar    
    6    2    7 ar    
    7    3    8 1     
    8    3    9 2     
    9    4   10 1     
   10    4   11 2     
   11    5   12 1     
   12    5   18 1     
   13    5   19 1     
   14    6   13 ar    
   15    6   20 1     
   16    7   14 ar    
   17    7   21 1     
   18    8   15 1     
   19    8   22 1     
   20   10   15 1     
   21   10   23 1     
   22   12   24 1     
   23   12   25 1     
   24   12   26 1     
   25   13   16 ar    
   26   13   27 1     
   27   14   16 ar    
   28   14   28 1     
   29   15   17 2     
   30   16   29 1     
@<TRIPOS>SUBSTRUCTURE
      1 RES1           1
@<TRIPOS>SET
DONOR_HYDROGENS      STATIC     ATOMS    <user>   **** ""
2 22 23
ATOM$RED        STATIC     ATOMS    COLORGROUP SYSTEM
2 22 23
@<TRIPOS>COMMENT
> <Gold.Version>
2022.3.0

> <Gold.Id.Protein>
unknown|7ta6_clean|pdb

> <Gold.Protein.RotatedTorsions>
[ 1479 1443 1444 1445 ] final -123.70 input   95.13 | X-H torsion
[ 1715 1671 1672 1673 ] final   -0.35 input  105.58 | X-H torsion
[ 1815 1791 1792 1793 ] final  -89.58 input  118.53 | X-H torsion
[ 1925 1887 1888 1889 ] final   28.19 input   64.46 | X-H torsion
[ 2001 1982 1983 1984 ] final  123.64 input -106.71 | X-H torsion
[ 2100 2058 2059 2060 ] final  -72.07 input   13.45 | X-H torsion
[ 2231 2190 2191 2192 ] final -171.68 input   70.14 | X-H torsion
[ 2399 2355 2356 2357 ] final -130.89 input   76.48 | X-H torsion
[ 15022 14946 14947 14948 ] final -113.00 input  119.61 | X-H torsion
[ 15146 15098 15099 15100 ] final   38.64 input   10.36 | X-H torsion
[ 15286 15206 15207 15208 ] final  -95.89 input -115.44 | X-H torsion
[ 15382 15342 15343 15344 ] final  -55.93 input  111.11 | X-H torsion
[ 14730 14682 14683 14684 ] final   -3.85 input  117.17 | X-H torsion
[ 1374 1351 1352 1353 ] final -134.51 input  113.38 | X-H torsion
[ 15498 15438 15439 15440 ] final  134.12 input  116.04 | X-H torsion
[ 15590 15546 15547 15548 ] final  158.80 input  104.39 | X-H torsion
[ 20694 1354 1353 1352 ] final  -96.89 input    0.00 | X-H torsion
[ 20697 1446 1445 1444 ] final -108.69 input    0.00 | X-H torsion
[ 20700 1554 1553 1552 ] final -143.05 input    0.00 | X-H torsion
[ 20703 1674 1673 1672 ] final  -26.30 input   -0.00 | X-H torsion
[ 20706 1794 1793 1792 ] final  -15.93 input    0.00 | X-H torsion
[ 20709 1890 1889 1888 ] final -155.24 input    0.00 | X-H torsion
[ 20716 1985 1984 1983 ] final -116.94 input    0.00 | X-H torsion
[ 20719 2061 2060 2059 ] final -164.29 input    0.00 | X-H torsion
[ 20723 2358 2357 2356 ] final  109.24 input    0.00 | X-H torsion
[ 20725 14569 14568 14567 ] final  -72.39 input   -0.00 | X-H torsion
[ 20728 14949 14948 14947 ] final   -3.44 input    0.00 | X-H torsion
[ 20731 15101 15100 15099 ] final -171.41 input   -0.00 | X-H torsion
[ 20742 14685 14684 14683 ] final -126.76 input   -0.00 | X-H torsion
[ 20745 6649 6648 6647 ] final -157.61 input    0.00 | X-H torsion
[ 20747 14797 14796 14795 ] final  -97.04 input    0.00 | X-H torsion
[ 20749 15209 15208 15207 ] final   67.39 input    0.00 | X-H torsion
[ 20751 15345 15344 15343 ] final -134.06 input    0.00 | X-H torsion

> <Gold.Protein.ActiveResidues>
 ALA18   ASN19   PRO20   GLN21   ALA22   GLU23   GLY24   GLN25   LEU26   GLN27  
 LEU63   ILE136  PRO139  ASP140  TYR141  LEU142  ASP143  PHE144  ALA145  GLU146 
 SER147  VAL150 

> <Gold.Protein.RotatedAtoms>
   -9.8564   39.0252  -31.0766 H   0  0  0  0  0  0  0  0  0  0  0  0  # atno 1374 bound_to 1351
   -6.8170   37.7753  -32.1698 H   0  0  0  0  0  0  0  0  0  0  0  0  # atno 1479 bound_to 1443
   -2.7157   34.0563  -32.7972 H   0  0  0  0  0  0  0  0  0  0  0  0  # atno 1715 bound_to 1671
   -0.2054   34.5949  -32.8701 H   0  0  0  0  0  0  0  0  0  0  0  0  # atno 1815 bound_to 1791
    1.6647   35.8902  -29.1176 H   0  0  0  0  0  0  0  0  0  0  0  0  # atno 1925 bound_to 1887
    2.0159   33.8883  -26.4821 H   0  0  0  0  0  0  0  0  0  0  0  0  # atno 2001 bound_to 1982
   -0.8467   35.9611  -24.9010 H   0  0  0  0  0  0  0  0  0  0  0  0  # atno 2100 bound_to 2058
   -2.8376   38.3684  -25.2641 H   0  0  0  0  0  0  0  0  0  0  0  0  # atno 2231 bound_to 2190
   -3.6902   40.5453  -27.6973 H   0  0  0  0  0  0  0  0  0  0  0  0  # atno 2399 bound_to 2355
   -2.3395   34.1306  -20.5179 H   0  0  0  0  0  0  0  0  0  0  0  0  # atno 14730 bound_to 14682
   -5.6673   32.3445  -20.9634 H   0  0  0  0  0  0  0  0  0  0  0  0  # atno 15022 bound_to 14946
   -8.0104   31.6806  -24.2241 H   0  0  0  0  0  0  0  0  0  0  0  0  # atno 15146 bound_to 15098
   -7.9060   29.1613  -27.8243 H   0  0  0  0  0  0  0  0  0  0  0  0  # atno 15286 bound_to 15206
   -9.8378   30.8774  -29.3754 H   0  0  0  0  0  0  0  0  0  0  0  0  # atno 15382 bound_to 15342
   -8.3681   30.7887  -31.8517 H   0  0  0  0  0  0  0  0  0  0  0  0  # atno 15498 bound_to 15438
  -11.1864   29.7281  -32.2626 H   0  0  0  0  0  0  0  0  0  0  0  0  # atno 15590 bound_to 15546
   -7.7226   35.4942  -32.5280 LP  0  0  0  0  0  0  0  0  0  0  0  0  # atno 20694 bound_to 1354
   -8.1579   36.8618  -33.4976 LP  0  0  0  0  0  0  0  0  0  0  0  0  # atno 20695 bound_to 1354
   -5.6627   37.6281  -30.8605 LP  0  0  0  0  0  0  0  0  0  0  0  0  # atno 20696 bound_to 1443
   -2.8300   35.1844  -31.3535 LP  0  0  0  0  0  0  0  0  0  0  0  0  # atno 20697 bound_to 1446
   -4.1433   35.6841  -30.3409 LP  0  0  0  0  0  0  0  0  0  0  0  0  # atno 20698 bound_to 1446
   -1.4939   32.1943  -31.6452 LP  0  0  0  0  0  0  0  0  0  0  0  0  # atno 20700 bound_to 1554
   -2.9115   31.1993  -31.6233 LP  0  0  0  0  0  0  0  0  0  0  0  0  # atno 20701 bound_to 1554
   -3.0964   33.1311  -34.2292 LP  0  0  0  0  0  0  0  0  0  0  0  0  # atno 20702 bound_to 1671
    1.3512   32.7784  -32.9771 LP  0  0  0  0  0  0  0  0  0  0  0  0  # atno 20703 bound_to 1674
    1.7228   34.3449  -32.3382 LP  0  0  0  0  0  0  0  0  0  0  0  0  # atno 20704 bound_to 1674
   -1.6790   34.8735  -31.9756 LP  0  0  0  0  0  0  0  0  0  0  0  0  # atno 20705 bound_to 1791
   -1.0503   33.4700  -30.1028 LP  0  0  0  0  0  0  0  0  0  0  0  0  # atno 20706 bound_to 1794
    0.3101   32.7949  -29.2699 LP  0  0  0  0  0  0  0  0  0  0  0  0  # atno 20707 bound_to 1794
    1.2002   34.5371  -30.1271 LP  0  0  0  0  0  0  0  0  0  0  0  0  # atno 20708 bound_to 1887
    3.2100   35.6140  -25.6325 LP  0  0  0  0  0  0  0  0  0  0  0  0  # atno 20709 bound_to 1890
    3.5489   35.9742  -27.2924 LP  0  0  0  0  0  0  0  0  0  0  0  0  # atno 20710 bound_to 1890
    0.3774   34.3883  -26.8332 LP  0  0  0  0  0  0  0  0  0  0  0  0  # atno 20715 bound_to 1982
    0.7840   37.4716  -23.2375 LP  0  0  0  0  0  0  0  0  0  0  0  0  # atno 20716 bound_to 1985
    2.2150   37.2075  -24.1769 LP  0  0  0  0  0  0  0  0  0  0  0  0  # atno 20717 bound_to 1985
    0.3494   36.4157  -26.0923 LP  0  0  0  0  0  0  0  0  0  0  0  0  # atno 20718 bound_to 2058
   -3.4068   37.3427  -27.4865 LP  0  0  0  0  0  0  0  0  0  0  0  0  # atno 20719 bound_to 2061
   -2.1761   36.3022  -26.8519 LP  0  0  0  0  0  0  0  0  0  0  0  0  # atno 20720 bound_to 2061
   -2.2153   39.8039  -26.0540 LP  0  0  0  0  0  0  0  0  0  0  0  0  # atno 20721 bound_to 2190
   -4.0519   39.2641  -28.8358 LP  0  0  0  0  0  0  0  0  0  0  0  0  # atno 20722 bound_to 2355
   -6.2136   39.6168  -30.6446 LP  0  0  0  0  0  0  0  0  0  0  0  0  # atno 20723 bound_to 2358
   -4.8167   39.4052  -31.6465 LP  0  0  0  0  0  0  0  0  0  0  0  0  # atno 20724 bound_to 2358
   -3.2572   33.5354  -22.7129 LP  0  0  0  0  0  0  0  0  0  0  0  0  # atno 20725 bound_to 14569
   -1.6074   33.7165  -23.2083 LP  0  0  0  0  0  0  0  0  0  0  0  0  # atno 20726 bound_to 14569
   -4.2663   32.4942  -21.9958 LP  0  0  0  0  0  0  0  0  0  0  0  0  # atno 20727 bound_to 14946
   -4.1923   31.2379  -23.6737 LP  0  0  0  0  0  0  0  0  0  0  0  0  # atno 20728 bound_to 14949
   -5.0103   30.2183  -24.8100 LP  0  0  0  0  0  0  0  0  0  0  0  0  # atno 20729 bound_to 14949
   -6.2952   31.8653  -24.5105 LP  0  0  0  0  0  0  0  0  0  0  0  0  # atno 20730 bound_to 15098
  -10.2246   31.4412  -26.6681 LP  0  0  0  0  0  0  0  0  0  0  0  0  # atno 20731 bound_to 15101
   -9.0577   32.1547  -25.6055 LP  0  0  0  0  0  0  0  0  0  0  0  0  # atno 20732 bound_to 15101
   -8.7201   30.0881  -26.5800 LP  0  0  0  0  0  0  0  0  0  0  0  0  # atno 20737 bound_to 15206
   -8.1590   31.2318  -29.0569 LP  0  0  0  0  0  0  0  0  0  0  0  0  # atno 20738 bound_to 15342
   -0.6657   34.6142  -20.4132 LP  0  0  0  0  0  0  0  0  0  0  0  0  # atno 20741 bound_to 14682
   -2.7234   30.2018  -21.8852 LP  0  0  0  0  0  0  0  0  0  0  0  0  # atno 20742 bound_to 14685
   -1.3186   29.8306  -20.9425 LP  0  0  0  0  0  0  0  0  0  0  0  0  # atno 20743 bound_to 14685
   -9.9009   37.3816  -31.6675 LP  0  0  0  0  0  0  0  0  0  0  0  0  # atno 20744 bound_to 1351
   -8.7528   31.8391  -22.7058 LP  0  0  0  0  0  0  0  0  0  0  0  0  # atno 20745 bound_to 6649
   -9.5530   33.1115  -23.5664 LP  0  0  0  0  0  0  0  0  0  0  0  0  # atno 20746 bound_to 6649
   -6.3274   29.9478  -21.9959 LP  0  0  0  0  0  0  0  0  0  0  0  0  # atno 20747 bound_to 14797
   -7.2225   30.7455  -20.7459 LP  0  0  0  0  0  0  0  0  0  0  0  0  # atno 20748 bound_to 14797
  -11.8898   31.5615  -28.7624 LP  0  0  0  0  0  0  0  0  0  0  0  0  # atno 20749 bound_to 15209
  -11.5308   31.1815  -30.4136 LP  0  0  0  0  0  0  0  0  0  0  0  0  # atno 20750 bound_to 15209
  -11.1949   32.7624  -32.7662 LP  0  0  0  0  0  0  0  0  0  0  0  0  # atno 20751 bound_to 15345
  -10.2309   34.1172  -32.2814 LP  0  0  0  0  0  0  0  0  0  0  0  0  # atno 20752 bound_to 15345
   -9.6980   31.9194  -31.7749 LP  0  0  0  0  0  0  0  0  0  0  0  0  # atno 20753 bound_to 15438

> <Gold.Score>
     Fitness  S(hb_ext) S(vdw_ext)  S(hb_int)    S(int)      intcor
     40.63       2.16      29.10       0.00      -1.55      -0.77

> <Gold.Goldscore.Fitness>
40.6279

> <Gold.Goldscore.Internal.Vdw>
-1.5801

> <Gold.Goldscore.Internal.Torsion>
-0.7335

> <Gold.Goldscore.External.Vdw>
29.1036

> <Gold.Goldscore.Internal.HBond>
0.0000

> <Gold.Goldscore.External.HBond>
2.1588

> <Gold.Goldscore.Internal.Correction>
-0.7653

> <Gold.Goldscore.Hbonds>
donor molecule, donor type, donor heavy atom, donor atom, acceptor molecule, acceptor atom, score
      P1  H  2058  2100       L1    17  0.25
      P1  H  2190  2231       L1    17  0.03
      L1  H     8    22       P1  2061  0.78
      L1  H    10    23       P1 14569  0.02

> <Gold.Goldscore.Internal.Vdw.Weighted>
-1.5801

> <Gold.Goldscore.Internal.Torsion.Weighted>
-0.7335

> <Gold.Goldscore.External.Vdw.Weighted>
40.0175

> <Gold.Goldscore.Internal.HBond.Weighted>
0.0000

> <Gold.Goldscore.External.HBond.Weighted>
2.1588

> <Gold.Goldscore.Internal.Correction.Weighted>
-0.7653

> <Gold.Rescore>
     Score     S(PLP)   S(hbond)     S(cho)   S(metal)  DE(clash)   DE(tors)     intcor
     18.88     -13.89       2.16       0.00       0.00       0.02       0.74       ----

> <Gold.PLP.Fitness>
18.8768

> <Gold.PLP.PLP>
-13.8944

> <Gold.PLP.part.hbond>
-3.8393

> <Gold.PLP.part.metal>
0.0000

> <Gold.PLP.part.buried>
2.9431

> <Gold.PLP.part.nonpolar>
-31.5865

> <Gold.PLP.part.repulsive>
17.3065

> <Gold.PLP.ligand.clash>
0.0226

> <Gold.PLP.ligand.torsion>
0.7413

> <Gold.PLP.Chemscore.Hbond>
2.1625

> <Gold.PLP.Chemscore.CHOScore>
0.0000

> <Gold.PLP.Chemscore.Metal>
0.0000

> <Gold.Chemscore.Hbonds>
donor molecule, donor type, donor heavy atom, donor atom, acceptor molecule, acceptor atom, score
      L1  H     8    22       P1  2061  1.00
      L1  H    10    23       P1 14569  0.48
      P1  H  2058  2100       L1    17  0.52

> <Gold.PLP.Chemscore.Internal.Correction>
   9.000000E+99

