#       Name:                CT1002167954
#       Creating user name   hitesit
#       Creation time:       Sun Apr 16 02:23:52 2023


#       File generated by GOLD software.
#

@<TRIPOS>MOLECULE
CT1002167954|ligand_prepared|mol2|1|dock10
    29    30     1
SMALL
NO_CHARGES


@<TRIPOS>ATOM
      1 C1          -1.5132  30.7812 -26.0147 C.3            1 RES1               0.0000
      2 C2          -2.2214  31.8513 -26.8703 C.ar           1 RES1               0.0000
      3 C3          -0.3590  30.2513 -26.8605 C.2            1 RES1               0.0000
      4 C4          -1.0751  31.4810 -24.7330 C.2            1 RES1               0.0000
      5 C5          -2.4216  29.5923 -25.6234 C.3            1 RES1               0.0000
      6 C6          -3.3178  31.5162 -27.6592 C.ar           1 RES1               0.0000
      7 C7          -1.7923  33.1758 -26.8790 C.ar           1 RES1               0.0000
      8 N8           0.9037  30.6370 -26.5189 N.am           1 RES1               0.0000
      9 O9          -0.5568  29.5378 -27.8362 O.2            1 RES1               0.0000
     10 N10          0.2689  31.6095 -24.4987 N.am           1 RES1               0.0000
     11 O11         -1.8816  31.9372 -23.9319 O.2            1 RES1               0.0000
     12 C12         -1.8600  28.7356 -24.4997 C.3            1 RES1               0.0000
     13 C13         -3.9638  32.4712 -28.4267 C.ar           1 RES1               0.0000
     14 C14         -2.4396  34.1292 -27.6475 C.ar           1 RES1               0.0000
     15 C15          1.2781  31.2465 -25.3484 C.2            1 RES1               0.0000
     16 C16         -3.5255  33.7783 -28.4210 C.ar           1 RES1               0.0000
     17 O17          2.4621  31.4442 -25.0910 O.2            1 RES1               0.0000
     18 H18         -3.3998  29.9818 -25.3155 H              1 RES1               0.0000
     19 H19         -2.5754  28.9599 -26.5065 H              1 RES1               0.0000
     20 H20         -3.6755  30.4921 -27.6783 H              1 RES1               0.0000
     21 H21         -0.9395  33.4746 -26.2790 H              1 RES1               0.0000
     22 H22          1.6374  30.4557 -27.1965 H              1 RES1               0.0000
     23 H23          0.5424  32.0130 -23.6084 H              1 RES1               0.0000
     24 H24         -2.5361  27.9162 -24.2646 H              1 RES1               0.0000
     25 H25         -0.8986  28.3114 -24.7816 H              1 RES1               0.0000
     26 H26         -1.7181  29.3272 -23.5977 H              1 RES1               0.0000
     27 H27         -4.8171  32.1896 -29.0349 H              1 RES1               0.0000
     28 H28         -2.0908  35.1566 -27.6404 H              1 RES1               0.0000
     29 H29         -4.0319  34.5263 -29.0221 H              1 RES1               0.0000
@<TRIPOS>BOND
    1    1    2 1     
    2    1    3 1     
    3    1    4 1     
    4    1    5 1     
    5    2    6 ar    
    6    2    7 ar    
    7    3    8 1     
    8    3    9 2     
    9    4   10 1     
   10    4   11 2     
   11    5   12 1     
   12    5   18 1     
   13    5   19 1     
   14    6   13 ar    
   15    6   20 1     
   16    7   14 ar    
   17    7   21 1     
   18    8   15 1     
   19    8   22 1     
   20   10   15 1     
   21   10   23 1     
   22   12   24 1     
   23   12   25 1     
   24   12   26 1     
   25   13   16 ar    
   26   13   27 1     
   27   14   16 ar    
   28   14   28 1     
   29   15   17 2     
   30   16   29 1     
@<TRIPOS>SUBSTRUCTURE
      1 RES1           1
@<TRIPOS>SET
DONOR_HYDROGENS      STATIC     ATOMS    <user>   **** ""
2 22 23
ATOM$RED        STATIC     ATOMS    COLORGROUP SYSTEM
2 22 23
@<TRIPOS>COMMENT
> <Gold.Version>
2022.3.0

> <Gold.Id.Protein>
unknown|7ta6_clean|pdb

> <Gold.Protein.RotatedTorsions>
[ 1479 1443 1444 1445 ] final  110.54 input   95.13 | X-H torsion
[ 1715 1671 1672 1673 ] final   72.70 input  105.58 | X-H torsion
[ 1815 1791 1792 1793 ] final   71.75 input  118.53 | X-H torsion
[ 1925 1887 1888 1889 ] final -171.34 input   64.46 | X-H torsion
[ 2001 1982 1983 1984 ] final   74.31 input -106.71 | X-H torsion
[ 2100 2058 2059 2060 ] final  -63.92 input   13.45 | X-H torsion
[ 2231 2190 2191 2192 ] final  -52.45 input   70.14 | X-H torsion
[ 2399 2355 2356 2357 ] final -177.30 input   76.48 | X-H torsion
[ 15022 14946 14947 14948 ] final   33.22 input  119.61 | X-H torsion
[ 15146 15098 15099 15100 ] final  -84.90 input   10.36 | X-H torsion
[ 15286 15206 15207 15208 ] final  -42.97 input -115.44 | X-H torsion
[ 15382 15342 15343 15344 ] final -158.97 input  111.11 | X-H torsion
[ 14730 14682 14683 14684 ] final   43.03 input  117.17 | X-H torsion
[ 1374 1351 1352 1353 ] final  -89.94 input  113.38 | X-H torsion
[ 15498 15438 15439 15440 ] final -142.12 input  116.04 | X-H torsion
[ 15590 15546 15547 15548 ] final   19.35 input  104.39 | X-H torsion
[ 20694 1354 1353 1352 ] final   65.01 input    0.00 | X-H torsion
[ 20697 1446 1445 1444 ] final -158.22 input    0.00 | X-H torsion
[ 20700 1554 1553 1552 ] final   33.93 input    0.00 | X-H torsion
[ 20703 1674 1673 1672 ] final   63.97 input   -0.00 | X-H torsion
[ 20706 1794 1793 1792 ] final  136.11 input    0.00 | X-H torsion
[ 20709 1890 1889 1888 ] final  161.50 input    0.00 | X-H torsion
[ 20716 1985 1984 1983 ] final  -78.69 input    0.00 | X-H torsion
[ 20719 2061 2060 2059 ] final  -30.19 input    0.00 | X-H torsion
[ 20723 2358 2357 2356 ] final  142.81 input    0.00 | X-H torsion
[ 20725 14569 14568 14567 ] final   51.83 input   -0.00 | X-H torsion
[ 20728 14949 14948 14947 ] final -122.87 input    0.00 | X-H torsion
[ 20731 15101 15100 15099 ] final  168.34 input   -0.00 | X-H torsion
[ 20742 14685 14684 14683 ] final   37.62 input   -0.00 | X-H torsion
[ 20745 6649 6648 6647 ] final   73.28 input    0.00 | X-H torsion
[ 20747 14797 14796 14795 ] final  -91.51 input    0.00 | X-H torsion
[ 20749 15209 15208 15207 ] final   70.75 input    0.00 | X-H torsion
[ 20751 15345 15344 15343 ] final -107.91 input    0.00 | X-H torsion

> <Gold.Protein.ActiveResidues>
 ALA18   ASN19   PRO20   GLN21   ALA22   GLU23   GLY24   GLN25   LEU26   GLN27  
 LEU63   ILE136  PRO139  ASP140  TYR141  LEU142  ASP143  PHE144  ALA145  GLU146 
 SER147  VAL150 

> <Gold.Protein.RotatedAtoms>
   -9.6550   38.9788  -31.7138 H   0  0  0  0  0  0  0  0  0  0  0  0  # atno 1374 bound_to 1351
   -5.6114   38.3053  -31.2820 H   0  0  0  0  0  0  0  0  0  0  0  0  # atno 1479 bound_to 1443
   -2.8419   34.4330  -33.7699 H   0  0  0  0  0  0  0  0  0  0  0  0  # atno 1715 bound_to 1671
   -1.6218   34.6208  -31.8600 H   0  0  0  0  0  0  0  0  0  0  0  0  # atno 1815 bound_to 1791
    1.4745   34.5584  -30.2450 H   0  0  0  0  0  0  0  0  0  0  0  0  # atno 1925 bound_to 1887
    1.9522   34.5793  -26.7378 H   0  0  0  0  0  0  0  0  0  0  0  0  # atno 2001 bound_to 1982
   -0.9223   35.9377  -24.9990 H   0  0  0  0  0  0  0  0  0  0  0  0  # atno 2100 bound_to 2058
   -2.2018   39.0367  -26.5000 H   0  0  0  0  0  0  0  0  0  0  0  0  # atno 2231 bound_to 2190
   -3.1170   40.2118  -27.9301 H   0  0  0  0  0  0  0  0  0  0  0  0  # atno 2399 bound_to 2355
   -2.0972   34.1550  -19.8617 H   0  0  0  0  0  0  0  0  0  0  0  0  # atno 14730 bound_to 14682
   -4.3937   32.0033  -22.0182 H   0  0  0  0  0  0  0  0  0  0  0  0  # atno 15022 bound_to 14946
   -6.8025   32.3238  -24.9767 H   0  0  0  0  0  0  0  0  0  0  0  0  # atno 15146 bound_to 15098
   -7.8839   29.9530  -27.9004 H   0  0  0  0  0  0  0  0  0  0  0  0  # atno 15286 bound_to 15206
   -9.0271   31.5415  -28.4826 H   0  0  0  0  0  0  0  0  0  0  0  0  # atno 15382 bound_to 15342
   -8.4435   31.9348  -32.1193 H   0  0  0  0  0  0  0  0  0  0  0  0  # atno 15498 bound_to 15438
  -11.3808   31.3528  -32.5113 H   0  0  0  0  0  0  0  0  0  0  0  0  # atno 15590 bound_to 15546
   -8.3816   36.8459  -33.3431 LP  0  0  0  0  0  0  0  0  0  0  0  0  # atno 20694 bound_to 1354
   -7.4988   35.5101  -32.6825 LP  0  0  0  0  0  0  0  0  0  0  0  0  # atno 20695 bound_to 1354
   -6.8237   37.1177  -31.7154 LP  0  0  0  0  0  0  0  0  0  0  0  0  # atno 20696 bound_to 1443
   -3.2365   34.6426  -31.0934 LP  0  0  0  0  0  0  0  0  0  0  0  0  # atno 20697 bound_to 1446
   -3.7367   36.2260  -30.6010 LP  0  0  0  0  0  0  0  0  0  0  0  0  # atno 20698 bound_to 1446
   -2.9252   31.2217  -31.5860 LP  0  0  0  0  0  0  0  0  0  0  0  0  # atno 20700 bound_to 1554
   -1.4803   32.1719  -31.6825 LP  0  0  0  0  0  0  0  0  0  0  0  0  # atno 20701 bound_to 1554
   -2.9730   32.7623  -33.2769 LP  0  0  0  0  0  0  0  0  0  0  0  0  # atno 20702 bound_to 1671
    1.6935   33.8552  -33.4573 LP  0  0  0  0  0  0  0  0  0  0  0  0  # atno 20703 bound_to 1674
    1.3806   33.2681  -31.8581 LP  0  0  0  0  0  0  0  0  0  0  0  0  # atno 20704 bound_to 1674
   -0.2900   34.8481  -32.9663 LP  0  0  0  0  0  0  0  0  0  0  0  0  # atno 20705 bound_to 1791
    0.3694   32.6820  -29.6685 LP  0  0  0  0  0  0  0  0  0  0  0  0  # atno 20706 bound_to 1794
   -1.1096   33.5828  -29.7042 LP  0  0  0  0  0  0  0  0  0  0  0  0  # atno 20707 bound_to 1794
    1.3840   35.8236  -29.0381 LP  0  0  0  0  0  0  0  0  0  0  0  0  # atno 20708 bound_to 1887
    2.8454   36.0913  -25.8489 LP  0  0  0  0  0  0  0  0  0  0  0  0  # atno 20709 bound_to 1890
    3.9135   35.4968  -27.0760 LP  0  0  0  0  0  0  0  0  0  0  0  0  # atno 20710 bound_to 1890
    0.4394   33.7156  -26.5843 LP  0  0  0  0  0  0  0  0  0  0  0  0  # atno 20715 bound_to 1982
    1.0693   37.0311  -23.0217 LP  0  0  0  0  0  0  0  0  0  0  0  0  # atno 20716 bound_to 1985
    1.9296   37.6480  -24.3926 LP  0  0  0  0  0  0  0  0  0  0  0  0  # atno 20717 bound_to 1985
    0.4231   36.4385  -25.9968 LP  0  0  0  0  0  0  0  0  0  0  0  0  # atno 20718 bound_to 2058
   -1.9706   36.6557  -27.3893 LP  0  0  0  0  0  0  0  0  0  0  0  0  # atno 20719 bound_to 2061
   -3.6123   36.9892  -26.9491 LP  0  0  0  0  0  0  0  0  0  0  0  0  # atno 20720 bound_to 2061
   -2.8260   39.1620  -24.8671 LP  0  0  0  0  0  0  0  0  0  0  0  0  # atno 20721 bound_to 2190
   -4.6043   39.5855  -28.6114 LP  0  0  0  0  0  0  0  0  0  0  0  0  # atno 20722 bound_to 2355
   -6.3286   39.8035  -31.0942 LP  0  0  0  0  0  0  0  0  0  0  0  0  # atno 20723 bound_to 2358
   -4.7016   39.2184  -31.1970 LP  0  0  0  0  0  0  0  0  0  0  0  0  # atno 20724 bound_to 2358
   -2.1299   34.3021  -23.4094 LP  0  0  0  0  0  0  0  0  0  0  0  0  # atno 20725 bound_to 14569
   -2.7346   32.9498  -22.5119 LP  0  0  0  0  0  0  0  0  0  0  0  0  # atno 20726 bound_to 14569
   -5.5141   32.8286  -20.9623 LP  0  0  0  0  0  0  0  0  0  0  0  0  # atno 20727 bound_to 14946
   -4.5949   30.9367  -25.0823 LP  0  0  0  0  0  0  0  0  0  0  0  0  # atno 20728 bound_to 14949
   -4.6076   30.5195  -23.4013 LP  0  0  0  0  0  0  0  0  0  0  0  0  # atno 20729 bound_to 14949
   -7.4705   31.2396  -23.7782 LP  0  0  0  0  0  0  0  0  0  0  0  0  # atno 20730 bound_to 15098
  -10.0779   31.6228  -26.8638 LP  0  0  0  0  0  0  0  0  0  0  0  0  # atno 20731 bound_to 15101
   -9.2044   31.9731  -25.4098 LP  0  0  0  0  0  0  0  0  0  0  0  0  # atno 20732 bound_to 15101
   -8.7413   29.3264  -26.5068 LP  0  0  0  0  0  0  0  0  0  0  0  0  # atno 20737 bound_to 15206
   -8.9572   30.5780  -29.9359 LP  0  0  0  0  0  0  0  0  0  0  0  0  # atno 20738 bound_to 15342
   -0.9041   34.5902  -21.0589 LP  0  0  0  0  0  0  0  0  0  0  0  0  # atno 20741 bound_to 14682
   -1.2091   29.9315  -21.1248 LP  0  0  0  0  0  0  0  0  0  0  0  0  # atno 20742 bound_to 14685
   -2.8330   30.1009  -21.7029 LP  0  0  0  0  0  0  0  0  0  0  0  0  # atno 20743 bound_to 14685
  -10.0978   37.4270  -31.0441 LP  0  0  0  0  0  0  0  0  0  0  0  0  # atno 20744 bound_to 1351
   -9.2227   33.3138  -22.9309 LP  0  0  0  0  0  0  0  0  0  0  0  0  # atno 20745 bound_to 6649
   -9.0831   31.6368  -23.3413 LP  0  0  0  0  0  0  0  0  0  0  0  0  # atno 20746 bound_to 6649
   -6.2973   29.8974  -21.9366 LP  0  0  0  0  0  0  0  0  0  0  0  0  # atno 20747 bound_to 14797
   -7.2526   30.7960  -20.8053 LP  0  0  0  0  0  0  0  0  0  0  0  0  # atno 20748 bound_to 14797
  -11.8713   31.6081  -28.7706 LP  0  0  0  0  0  0  0  0  0  0  0  0  # atno 20749 bound_to 15209
  -11.5492   31.1349  -30.4054 LP  0  0  0  0  0  0  0  0  0  0  0  0  # atno 20750 bound_to 15209
  -11.3506   32.8630  -32.4209 LP  0  0  0  0  0  0  0  0  0  0  0  0  # atno 20751 bound_to 15345
  -10.0752   34.0167  -32.6267 LP  0  0  0  0  0  0  0  0  0  0  0  0  # atno 20752 bound_to 15345
   -9.6243   30.7984  -31.5132 LP  0  0  0  0  0  0  0  0  0  0  0  0  # atno 20753 bound_to 15438

> <Gold.Score>
     Fitness  S(hb_ext) S(vdw_ext)  S(hb_int)    S(int)      intcor
     29.76       0.00      22.11       0.00      -0.65      -0.76

> <Gold.Goldscore.Fitness>
29.7581

> <Gold.Goldscore.Internal.Vdw>
-0.6886

> <Gold.Goldscore.Internal.Torsion>
-0.7168

> <Gold.Goldscore.External.Vdw>
22.1127

> <Gold.Goldscore.Internal.HBond>
0.0000

> <Gold.Goldscore.External.HBond>
0.0000

> <Gold.Goldscore.Internal.Correction>
-0.7585

> <Gold.Goldscore.Internal.Vdw.Weighted>
-0.6886

> <Gold.Goldscore.Internal.Torsion.Weighted>
-0.7168

> <Gold.Goldscore.External.Vdw.Weighted>
30.4049

> <Gold.Goldscore.Internal.HBond.Weighted>
0.0000

> <Gold.Goldscore.External.HBond.Weighted>
0.0000

> <Gold.Goldscore.Internal.Correction.Weighted>
-0.7585

> <Gold.Rescore>
     Score     S(PLP)   S(hbond)     S(cho)   S(metal)  DE(clash)   DE(tors)     intcor
     24.41     -25.99       0.00       0.00       0.00       1.43       0.08       ----

> <Gold.PLP.Fitness>
24.4139

> <Gold.PLP.PLP>
-25.9928

> <Gold.PLP.part.hbond>
-0.8575

> <Gold.PLP.part.metal>
0.0000

> <Gold.PLP.part.buried>
-6.5238

> <Gold.PLP.part.nonpolar>
-21.3858

> <Gold.PLP.part.repulsive>
2.8950

> <Gold.PLP.ligand.clash>
1.4284

> <Gold.PLP.ligand.torsion>
0.0752

> <Gold.PLP.Chemscore.Hbond>
0.0000

> <Gold.PLP.Chemscore.CHOScore>
0.0000

> <Gold.PLP.Chemscore.Metal>
0.0000

> <Gold.PLP.Chemscore.Internal.Correction>
   9.000000E+99

