#       Name:                CT1002167954
#       Creating user name   hitesit
#       Creation time:       Sun Apr 16 02:23:48 2023


#       File generated by GOLD software.
#

@<TRIPOS>MOLECULE
CT1002167954|ligand_prepared|mol2|1|dock5
    29    30     1
SMALL
NO_CHARGES


@<TRIPOS>ATOM
      1 C1          -2.2204  31.6059 -26.8543 C.3            1 RES1               0.0000
      2 C2          -3.2405  32.6441 -27.3646 C.ar           1 RES1               0.0000
      3 C3          -1.7336  32.1133 -25.5001 C.2            1 RES1               0.0000
      4 C4          -2.9617  30.2752 -26.7902 C.2            1 RES1               0.0000
      5 C5          -0.9953  31.4261 -27.7808 C.3            1 RES1               0.0000
      6 C6          -4.6025  32.3584 -27.3646 C.ar           1 RES1               0.0000
      7 C7          -2.8356  33.8904 -27.8349 C.ar           1 RES1               0.0000
      8 N8          -2.1860  31.4715 -24.3851 N.am           1 RES1               0.0000
      9 O9          -0.9954  33.0866 -25.4101 O.2            1 RES1               0.0000
     10 N10         -3.1594  29.7090 -25.5580 N.am           1 RES1               0.0000
     11 O11         -3.3911  29.7200 -27.7940 O.2            1 RES1               0.0000
     12 C12         -0.0478  30.3226 -27.3372 C.3            1 RES1               0.0000
     13 C13         -5.5267  33.2862 -27.8158 C.ar           1 RES1               0.0000
     14 C14         -3.7615  34.8167 -28.2859 C.ar           1 RES1               0.0000
     15 C15         -2.8321  30.2620 -24.3500 C.2            1 RES1               0.0000
     16 C16         -5.1069  34.5160 -28.2762 C.ar           1 RES1               0.0000
     17 O17         -3.0915  29.7163 -23.2813 O.2            1 RES1               0.0000
     18 H18         -1.3491  31.2014 -28.7945 H              1 RES1               0.0000
     19 H19         -0.4412  32.3721 -27.8210 H              1 RES1               0.0000
     20 H20         -4.9514  31.3949 -27.0083 H              1 RES1               0.0000
     21 H21         -1.7822  34.1484 -27.8528 H              1 RES1               0.0000
     22 H22         -2.0295  31.9337 -23.4950 H              1 RES1               0.0000
     23 H23         -3.5903  28.7902 -25.5397 H              1 RES1               0.0000
     24 H24          0.7939  30.2387 -28.0215 H              1 RES1               0.0000
     25 H25          0.3431  30.5264 -26.3425 H              1 RES1               0.0000
     26 H26         -0.5595  29.3627 -27.3102 H              1 RES1               0.0000
     27 H27         -6.5843  33.0441 -27.8074 H              1 RES1               0.0000
     28 H28         -3.4266  35.7831 -28.6480 H              1 RES1               0.0000
     29 H29         -5.8311  35.2427 -28.6292 H              1 RES1               0.0000
@<TRIPOS>BOND
    1    1    2 1     
    2    1    3 1     
    3    1    4 1     
    4    1    5 1     
    5    2    6 ar    
    6    2    7 ar    
    7    3    8 1     
    8    3    9 2     
    9    4   10 1     
   10    4   11 2     
   11    5   12 1     
   12    5   18 1     
   13    5   19 1     
   14    6   13 ar    
   15    6   20 1     
   16    7   14 ar    
   17    7   21 1     
   18    8   15 1     
   19    8   22 1     
   20   10   15 1     
   21   10   23 1     
   22   12   24 1     
   23   12   25 1     
   24   12   26 1     
   25   13   16 ar    
   26   13   27 1     
   27   14   16 ar    
   28   14   28 1     
   29   15   17 2     
   30   16   29 1     
@<TRIPOS>SUBSTRUCTURE
      1 RES1           1
@<TRIPOS>SET
DONOR_HYDROGENS      STATIC     ATOMS    <user>   **** ""
2 22 23
ATOM$RED        STATIC     ATOMS    COLORGROUP SYSTEM
2 22 23
@<TRIPOS>COMMENT
> <Gold.Version>
2022.3.0

> <Gold.Id.Protein>
unknown|7ta6_clean|pdb

> <Gold.Protein.RotatedTorsions>
[ 1479 1443 1444 1445 ] final   66.83 input   95.13 | X-H torsion
[ 1715 1671 1672 1673 ] final  176.43 input  105.58 | X-H torsion
[ 1815 1791 1792 1793 ] final  105.67 input  118.53 | X-H torsion
[ 1925 1887 1888 1889 ] final  141.62 input   64.46 | X-H torsion
[ 2001 1982 1983 1984 ] final   91.12 input -106.71 | X-H torsion
[ 2100 2058 2059 2060 ] final   55.50 input   13.45 | X-H torsion
[ 2231 2190 2191 2192 ] final  -95.58 input   70.14 | X-H torsion
[ 2399 2355 2356 2357 ] final -120.50 input   76.48 | X-H torsion
[ 15022 14946 14947 14948 ] final -128.13 input  119.61 | X-H torsion
[ 15146 15098 15099 15100 ] final -164.57 input   10.36 | X-H torsion
[ 15286 15206 15207 15208 ] final   89.47 input -115.44 | X-H torsion
[ 15382 15342 15343 15344 ] final  157.48 input  111.11 | X-H torsion
[ 14730 14682 14683 14684 ] final   75.35 input  117.17 | X-H torsion
[ 1374 1351 1352 1353 ] final   52.85 input  113.38 | X-H torsion
[ 15498 15438 15439 15440 ] final  -49.25 input  116.04 | X-H torsion
[ 15590 15546 15547 15548 ] final -107.86 input  104.39 | X-H torsion
[ 20694 1354 1353 1352 ] final  -32.35 input    0.00 | X-H torsion
[ 20697 1446 1445 1444 ] final  -24.50 input    0.00 | X-H torsion
[ 20700 1554 1553 1552 ] final -119.65 input    0.00 | X-H torsion
[ 20703 1674 1673 1672 ] final   54.07 input   -0.00 | X-H torsion
[ 20706 1794 1793 1792 ] final   77.72 input    0.00 | X-H torsion
[ 20709 1890 1889 1888 ] final   52.52 input    0.00 | X-H torsion
[ 20716 1985 1984 1983 ] final -133.58 input    0.00 | X-H torsion
[ 20719 2061 2060 2059 ] final  178.99 input    0.00 | X-H torsion
[ 20723 2358 2357 2356 ] final -159.33 input    0.00 | X-H torsion
[ 20725 14569 14568 14567 ] final -161.42 input   -0.00 | X-H torsion
[ 20728 14949 14948 14947 ] final -106.82 input    0.00 | X-H torsion
[ 20731 15101 15100 15099 ] final  -83.12 input   -0.00 | X-H torsion
[ 20742 14685 14684 14683 ] final  141.79 input   -0.00 | X-H torsion
[ 20745 6649 6648 6647 ] final   40.63 input    0.00 | X-H torsion
[ 20747 14797 14796 14795 ] final  -11.44 input    0.00 | X-H torsion
[ 20749 15209 15208 15207 ] final -144.84 input    0.00 | X-H torsion
[ 20751 15345 15344 15343 ] final  -98.83 input    0.00 | X-H torsion

> <Gold.Protein.ActiveResidues>
 ALA18   ASN19   PRO20   GLN21   ALA22   GLU23   GLY24   GLN25   LEU26   GLN27  
 LEU63   ILE136  PRO139  ASP140  TYR141  LEU142  ASP143  PHE144  ALA145  GLU146 
 SER147  VAL150 

> <Gold.Protein.RotatedAtoms>
   -9.9360   37.3347  -31.5699 H   0  0  0  0  0  0  0  0  0  0  0  0  # atno 1374 bound_to 1351
   -5.5738   37.7631  -30.9003 H   0  0  0  0  0  0  0  0  0  0  0  0  # atno 1479 bound_to 1443
   -3.0972   33.1632  -34.2706 H   0  0  0  0  0  0  0  0  0  0  0  0  # atno 1715 bound_to 1671
   -1.6936   35.0753  -32.0898 H   0  0  0  0  0  0  0  0  0  0  0  0  # atno 1815 bound_to 1791
    2.0532   34.9704  -30.2221 H   0  0  0  0  0  0  0  0  0  0  0  0  # atno 1925 bound_to 1887
    2.0455   34.3551  -26.6478 H   0  0  0  0  0  0  0  0  0  0  0  0  # atno 2001 bound_to 1982
   -0.3308   36.1960  -26.3856 H   0  0  0  0  0  0  0  0  0  0  0  0  # atno 2100 bound_to 2058
   -2.4016   38.4536  -26.2725 H   0  0  0  0  0  0  0  0  0  0  0  0  # atno 2231 bound_to 2190
   -3.8502   40.5680  -27.6945 H   0  0  0  0  0  0  0  0  0  0  0  0  # atno 2399 bound_to 2355
   -1.6875   34.2587  -19.6144 H   0  0  0  0  0  0  0  0  0  0  0  0  # atno 14730 bound_to 14682
   -5.6325   32.5725  -20.9348 H   0  0  0  0  0  0  0  0  0  0  0  0  # atno 15022 bound_to 14946
   -6.2758   31.6136  -24.2640 H   0  0  0  0  0  0  0  0  0  0  0  0  # atno 15146 bound_to 15098
   -8.7809   30.0324  -26.5368 H   0  0  0  0  0  0  0  0  0  0  0  0  # atno 15286 bound_to 15206
   -8.4133   31.4539  -28.6856 H   0  0  0  0  0  0  0  0  0  0  0  0  # atno 15382 bound_to 15342
   -9.6815   31.9678  -31.7950 H   0  0  0  0  0  0  0  0  0  0  0  0  # atno 15498 bound_to 15438
  -11.1632   30.1254  -33.4829 H   0  0  0  0  0  0  0  0  0  0  0  0  # atno 15590 bound_to 15546
   -8.5284   35.9362  -32.4250 LP  0  0  0  0  0  0  0  0  0  0  0  0  # atno 20694 bound_to 1354
   -7.3520   36.4198  -33.6007 LP  0  0  0  0  0  0  0  0  0  0  0  0  # atno 20695 bound_to 1354
   -6.8599   37.6398  -32.0830 LP  0  0  0  0  0  0  0  0  0  0  0  0  # atno 20696 bound_to 1443
   -3.1900   36.2322  -31.0062 LP  0  0  0  0  0  0  0  0  0  0  0  0  # atno 20697 bound_to 1446
   -3.7833   34.6364  -30.6882 LP  0  0  0  0  0  0  0  0  0  0  0  0  # atno 20698 bound_to 1446
   -1.6627   32.3169  -31.3626 LP  0  0  0  0  0  0  0  0  0  0  0  0  # atno 20700 bound_to 1554
   -2.7428   31.0767  -31.9060 LP  0  0  0  0  0  0  0  0  0  0  0  0  # atno 20701 bound_to 1554
   -2.7230   34.0054  -32.7867 LP  0  0  0  0  0  0  0  0  0  0  0  0  # atno 20702 bound_to 1671
    1.6593   33.7164  -33.5009 LP  0  0  0  0  0  0  0  0  0  0  0  0  # atno 20703 bound_to 1674
    1.4147   33.4069  -31.8144 LP  0  0  0  0  0  0  0  0  0  0  0  0  # atno 20704 bound_to 1674
   -0.2197   34.4024  -32.7409 LP  0  0  0  0  0  0  0  0  0  0  0  0  # atno 20705 bound_to 1791
   -0.0316   32.7870  -30.4048 LP  0  0  0  0  0  0  0  0  0  0  0  0  # atno 20706 bound_to 1794
   -0.7086   33.4779  -28.9680 LP  0  0  0  0  0  0  0  0  0  0  0  0  # atno 20707 bound_to 1794
    0.8250   35.4256  -29.0602 LP  0  0  0  0  0  0  0  0  0  0  0  0  # atno 20708 bound_to 1887
    3.2503   36.2446  -27.1907 LP  0  0  0  0  0  0  0  0  0  0  0  0  # atno 20709 bound_to 1890
    3.5086   35.3436  -25.7342 LP  0  0  0  0  0  0  0  0  0  0  0  0  # atno 20710 bound_to 1890
    0.3485   33.9338  -26.6720 LP  0  0  0  0  0  0  0  0  0  0  0  0  # atno 20715 bound_to 1982
    0.7530   37.6568  -23.4036 LP  0  0  0  0  0  0  0  0  0  0  0  0  # atno 20716 bound_to 1985
    2.2460   37.0224  -24.0107 LP  0  0  0  0  0  0  0  0  0  0  0  0  # atno 20717 bound_to 1985
   -0.1530   36.1869  -24.6464 LP  0  0  0  0  0  0  0  0  0  0  0  0  # atno 20718 bound_to 2058
   -3.5381   37.2424  -27.2964 LP  0  0  0  0  0  0  0  0  0  0  0  0  # atno 20719 bound_to 2061
   -2.0449   36.4024  -27.0419 LP  0  0  0  0  0  0  0  0  0  0  0  0  # atno 20720 bound_to 2061
   -2.6342   39.7221  -25.0856 LP  0  0  0  0  0  0  0  0  0  0  0  0  # atno 20721 bound_to 2190
   -3.8977   39.2422  -28.8384 LP  0  0  0  0  0  0  0  0  0  0  0  0  # atno 20722 bound_to 2355
   -5.9163   39.8779  -31.8197 LP  0  0  0  0  0  0  0  0  0  0  0  0  # atno 20723 bound_to 2358
   -5.1140   39.1441  -30.4714 LP  0  0  0  0  0  0  0  0  0  0  0  0  # atno 20724 bound_to 2358
   -2.2508   32.8684  -22.5823 LP  0  0  0  0  0  0  0  0  0  0  0  0  # atno 20725 bound_to 14569
   -2.6137   34.3835  -23.3390 LP  0  0  0  0  0  0  0  0  0  0  0  0  # atno 20726 bound_to 14569
   -4.3004   32.2709  -22.0238 LP  0  0  0  0  0  0  0  0  0  0  0  0  # atno 20727 bound_to 14946
   -4.4643   31.1230  -25.0003 LP  0  0  0  0  0  0  0  0  0  0  0  0  # atno 20728 bound_to 14949
   -4.7382   30.3332  -23.4833 LP  0  0  0  0  0  0  0  0  0  0  0  0  # atno 20729 bound_to 14949
   -7.9830   31.9305  -24.4716 LP  0  0  0  0  0  0  0  0  0  0  0  0  # atno 20730 bound_to 15098
   -9.9780   31.3268  -25.4929 LP  0  0  0  0  0  0  0  0  0  0  0  0  # atno 20731 bound_to 15101
   -9.3043   32.2691  -26.7807 LP  0  0  0  0  0  0  0  0  0  0  0  0  # atno 20732 bound_to 15101
   -7.8783   29.2500  -27.8187 LP  0  0  0  0  0  0  0  0  0  0  0  0  # atno 20737 bound_to 15206
   -9.5615   30.6643  -29.7361 LP  0  0  0  0  0  0  0  0  0  0  0  0  # atno 20738 bound_to 15342
   -1.3072   34.4882  -21.3023 LP  0  0  0  0  0  0  0  0  0  0  0  0  # atno 20741 bound_to 14682
   -2.5062   29.6623  -20.7899 LP  0  0  0  0  0  0  0  0  0  0  0  0  # atno 20742 bound_to 14685
   -1.5358   30.3701  -22.0378 LP  0  0  0  0  0  0  0  0  0  0  0  0  # atno 20743 bound_to 14685
   -9.8230   39.0352  -31.1849 LP  0  0  0  0  0  0  0  0  0  0  0  0  # atno 20744 bound_to 1351
   -9.4592   33.2559  -23.3525 LP  0  0  0  0  0  0  0  0  0  0  0  0  # atno 20745 bound_to 6649
   -8.8466   31.6947  -22.9197 LP  0  0  0  0  0  0  0  0  0  0  0  0  # atno 20746 bound_to 6649
   -6.4068   29.7749  -20.8346 LP  0  0  0  0  0  0  0  0  0  0  0  0  # atno 20747 bound_to 14797
   -7.1431   30.9184  -21.9072 LP  0  0  0  0  0  0  0  0  0  0  0  0  # atno 20748 bound_to 14797
  -11.3933   31.6376  -30.3487 LP  0  0  0  0  0  0  0  0  0  0  0  0  # atno 20749 bound_to 15209
  -12.0273   31.1054  -28.8273 LP  0  0  0  0  0  0  0  0  0  0  0  0  # atno 20750 bound_to 15209
  -11.3750   32.9274  -32.3024 LP  0  0  0  0  0  0  0  0  0  0  0  0  # atno 20751 bound_to 15345
  -10.0508   33.9523  -32.7453 LP  0  0  0  0  0  0  0  0  0  0  0  0  # atno 20752 bound_to 15345
   -8.4135   30.7661  -31.8304 LP  0  0  0  0  0  0  0  0  0  0  0  0  # atno 20753 bound_to 15438

> <Gold.Score>
     Fitness  S(hb_ext) S(vdw_ext)  S(hb_int)    S(int)      intcor
     33.71       1.21      25.00       0.00      -1.88      -0.77

> <Gold.Goldscore.Fitness>
33.7121

> <Gold.Goldscore.Internal.Vdw>
-2.2419

> <Gold.Goldscore.Internal.Torsion>
-0.4024

> <Gold.Goldscore.External.Vdw>
25.0031

> <Gold.Goldscore.Internal.HBond>
0.0000

> <Gold.Goldscore.External.HBond>
1.2085

> <Gold.Goldscore.Internal.Correction>
-0.7686

> <Gold.Goldscore.Hbonds>
donor molecule, donor type, donor heavy atom, donor atom, acceptor molecule, acceptor atom, score
      L1  H     8    22       P1 14569  0.18
      L1  H    10    23       P1 15105  0.14

> <Gold.Goldscore.Internal.Vdw.Weighted>
-2.2419

> <Gold.Goldscore.Internal.Torsion.Weighted>
-0.4024

> <Gold.Goldscore.External.Vdw.Weighted>
34.3792

> <Gold.Goldscore.Internal.HBond.Weighted>
0.0000

> <Gold.Goldscore.External.HBond.Weighted>
1.2085

> <Gold.Goldscore.Internal.Correction.Weighted>
-0.7686

> <Gold.Rescore>
     Score     S(PLP)   S(hbond)     S(cho)   S(metal)  DE(clash)   DE(tors)     intcor
     30.65     -31.52       0.45       0.00       0.00       2.06       0.08       ----

> <Gold.PLP.Fitness>
30.6541

> <Gold.PLP.PLP>
-31.5249

> <Gold.PLP.part.hbond>
-2.0236

> <Gold.PLP.part.metal>
0.0000

> <Gold.PLP.part.buried>
-5.9073

> <Gold.PLP.part.nonpolar>
-24.4924

> <Gold.PLP.part.repulsive>
0.6125

> <Gold.PLP.ligand.clash>
2.0617

> <Gold.PLP.ligand.torsion>
0.0766

> <Gold.PLP.Chemscore.Hbond>
0.4480

> <Gold.PLP.Chemscore.CHOScore>
0.0000

> <Gold.PLP.Chemscore.Metal>
0.0000

> <Gold.Chemscore.Hbonds>
donor molecule, donor type, donor heavy atom, donor atom, acceptor molecule, acceptor atom, score
      L1  H     8    22       P1 14569  0.65
      L1  H    10    23       P1 15105  0.98

> <Gold.PLP.Chemscore.Internal.Correction>
   9.000000E+99

