#       Name:                CT1002167954
#       Creating user name   hitesit
#       Creation time:       Sun Apr 16 02:23:45 2023


#       File generated by GOLD software.
#

@<TRIPOS>MOLECULE
CT1002167954|ligand_prepared|mol2|1|dock1
    29    30     1
SMALL
NO_CHARGES


@<TRIPOS>ATOM
      1 C1          -2.7441  31.1714 -28.4448 C.3            1 RES1               0.0000
      2 C2          -2.9818  32.6941 -28.5053 C.ar           1 RES1               0.0000
      3 C3          -4.0778  30.5155 -28.7903 C.2            1 RES1               0.0000
      4 C4          -1.6282  30.8739 -29.4403 C.2            1 RES1               0.0000
      5 C5          -2.2926  30.6642 -27.0554 C.3            1 RES1               0.0000
      6 C6          -4.1672  33.2062 -29.0241 C.ar           1 RES1               0.0000
      7 C7          -2.0277  33.5975 -28.0445 C.ar           1 RES1               0.0000
      8 N8          -4.1988  29.9396 -30.0206 N.am           1 RES1               0.0000
      9 O9          -5.0219  30.5380 -28.0103 O.2            1 RES1               0.0000
     10 N10         -1.9341  30.1161 -30.5402 N.am           1 RES1               0.0000
     11 O11         -0.4907  31.3030 -29.2907 O.2            1 RES1               0.0000
     12 C12         -3.0308  31.3142 -25.8958 C.3            1 RES1               0.0000
     13 C13         -4.3922  34.5718 -29.0776 C.ar           1 RES1               0.0000
     14 C14         -2.2546  34.9628 -28.0992 C.ar           1 RES1               0.0000
     15 C15         -3.1759  29.6612 -30.8912 C.2            1 RES1               0.0000
     16 C16         -3.4363  35.4509 -28.6148 C.ar           1 RES1               0.0000
     17 O17         -3.3815  29.0317 -31.9249 O.2            1 RES1               0.0000
     18 H18         -2.4468  29.5791 -27.0084 H              1 RES1               0.0000
     19 H19         -1.2184  30.8554 -26.9417 H              1 RES1               0.0000
     20 H20         -4.9300  32.5298 -29.3952 H              1 RES1               0.0000
     21 H21         -1.0902  33.2362 -27.6357 H              1 RES1               0.0000
     22 H22         -5.1365  29.6933 -30.3211 H              1 RES1               0.0000
     23 H23         -1.1648  29.8678 -31.1541 H              1 RES1               0.0000
     24 H24         -2.6758  30.9229 -24.9447 H              1 RES1               0.0000
     25 H25         -2.8786  32.3915 -25.8970 H              1 RES1               0.0000
     26 H26         -4.0997  31.1228 -25.9633 H              1 RES1               0.0000
     27 H27         -5.3233  34.9509 -29.4856 H              1 RES1               0.0000
     28 H28         -1.4993  35.6510 -27.7344 H              1 RES1               0.0000
     29 H29         -3.6129  36.5206 -28.6565 H              1 RES1               0.0000
@<TRIPOS>BOND
    1    1    2 1     
    2    1    3 1     
    3    1    4 1     
    4    1    5 1     
    5    2    6 ar    
    6    2    7 ar    
    7    3    8 1     
    8    3    9 2     
    9    4   10 1     
   10    4   11 2     
   11    5   12 1     
   12    5   18 1     
   13    5   19 1     
   14    6   13 ar    
   15    6   20 1     
   16    7   14 ar    
   17    7   21 1     
   18    8   15 1     
   19    8   22 1     
   20   10   15 1     
   21   10   23 1     
   22   12   24 1     
   23   12   25 1     
   24   12   26 1     
   25   13   16 ar    
   26   13   27 1     
   27   14   16 ar    
   28   14   28 1     
   29   15   17 2     
   30   16   29 1     
@<TRIPOS>SUBSTRUCTURE
      1 RES1           1
@<TRIPOS>SET
DONOR_HYDROGENS      STATIC     ATOMS    <user>   **** ""
2 22 23
ATOM$RED        STATIC     ATOMS    COLORGROUP SYSTEM
2 22 23
@<TRIPOS>COMMENT
> <Gold.Version>
2022.3.0

> <Gold.Id.Protein>
unknown|7ta6_clean|pdb

> <Gold.Protein.RotatedTorsions>
[ 1479 1443 1444 1445 ] final  -66.99 input   95.13 | X-H torsion
[ 1715 1671 1672 1673 ] final -129.65 input  105.58 | X-H torsion
[ 1815 1791 1792 1793 ] final   84.81 input  118.53 | X-H torsion
[ 1925 1887 1888 1889 ] final -165.16 input   64.46 | X-H torsion
[ 2001 1982 1983 1984 ] final   12.69 input -106.71 | X-H torsion
[ 2100 2058 2059 2060 ] final  128.13 input   13.45 | X-H torsion
[ 2231 2190 2191 2192 ] final   64.95 input   70.14 | X-H torsion
[ 2399 2355 2356 2357 ] final -147.11 input   76.48 | X-H torsion
[ 15022 14946 14947 14948 ] final  142.74 input  119.61 | X-H torsion
[ 15146 15098 15099 15100 ] final  -94.18 input   10.36 | X-H torsion
[ 15286 15206 15207 15208 ] final  -11.27 input -115.44 | X-H torsion
[ 15382 15342 15343 15344 ] final  159.14 input  111.11 | X-H torsion
[ 14730 14682 14683 14684 ] final -155.08 input  117.17 | X-H torsion
[ 1374 1351 1352 1353 ] final  163.00 input  113.38 | X-H torsion
[ 15498 15438 15439 15440 ] final   30.65 input  116.04 | X-H torsion
[ 15590 15546 15547 15548 ] final -127.42 input  104.39 | X-H torsion
[ 20694 1354 1353 1352 ] final   88.71 input    0.00 | X-H torsion
[ 20697 1446 1445 1444 ] final -150.39 input    0.00 | X-H torsion
[ 20700 1554 1553 1552 ] final    6.96 input    0.00 | X-H torsion
[ 20703 1674 1673 1672 ] final  -77.50 input   -0.00 | X-H torsion
[ 20706 1794 1793 1792 ] final  -70.55 input    0.00 | X-H torsion
[ 20709 1890 1889 1888 ] final  100.23 input    0.00 | X-H torsion
[ 20716 1985 1984 1983 ] final -103.26 input    0.00 | X-H torsion
[ 20719 2061 2060 2059 ] final  171.76 input    0.00 | X-H torsion
[ 20723 2358 2357 2356 ] final   12.03 input    0.00 | X-H torsion
[ 20725 14569 14568 14567 ] final   51.34 input   -0.00 | X-H torsion
[ 20728 14949 14948 14947 ] final   29.88 input    0.00 | X-H torsion
[ 20731 15101 15100 15099 ] final  155.34 input   -0.00 | X-H torsion
[ 20742 14685 14684 14683 ] final    5.90 input   -0.00 | X-H torsion
[ 20745 6649 6648 6647 ] final  141.39 input    0.00 | X-H torsion
[ 20747 14797 14796 14795 ] final -124.26 input    0.00 | X-H torsion
[ 20749 15209 15208 15207 ] final   61.17 input    0.00 | X-H torsion
[ 20751 15345 15344 15343 ] final  -49.69 input    0.00 | X-H torsion

> <Gold.Protein.ActiveResidues>
 ALA18   ASN19   PRO20   GLN21   ALA22   GLU23   GLY24   GLN25   LEU26   GLN27  
 LEU63   ILE136  PRO139  ASP140  TYR141  LEU142  ASP143  PHE144  ALA145  GLU146 
 SER147  VAL150 

> <Gold.Protein.RotatedAtoms>
  -10.1297   38.3345  -30.5401 H   0  0  0  0  0  0  0  0  0  0  0  0  # atno 1374 bound_to 1351
   -6.8143   37.0608  -31.7141 H   0  0  0  0  0  0  0  0  0  0  0  0  # atno 1479 bound_to 1443
   -3.0355   32.7196  -33.6073 H   0  0  0  0  0  0  0  0  0  0  0  0  # atno 1715 bound_to 1671
   -1.6798   34.7999  -31.9290 H   0  0  0  0  0  0  0  0  0  0  0  0  # atno 1815 bound_to 1791
    1.3872   34.5313  -30.2157 H   0  0  0  0  0  0  0  0  0  0  0  0  # atno 1925 bound_to 1887
    1.1660   34.9760  -26.9576 H   0  0  0  0  0  0  0  0  0  0  0  0  # atno 2001 bound_to 1982
    0.5234   36.4802  -25.8468 H   0  0  0  0  0  0  0  0  0  0  0  0  # atno 2100 bound_to 2058
   -2.5456   39.9146  -25.2981 H   0  0  0  0  0  0  0  0  0  0  0  0  # atno 2231 bound_to 2190
   -3.4546   40.4682  -27.7399 H   0  0  0  0  0  0  0  0  0  0  0  0  # atno 2399 bound_to 2355
   -0.7417   34.6282  -20.8402 H   0  0  0  0  0  0  0  0  0  0  0  0  # atno 14730 bound_to 14682
   -4.7474   33.2754  -21.4405 H   0  0  0  0  0  0  0  0  0  0  0  0  # atno 15022 bound_to 14946
   -6.6749   32.2746  -24.9331 H   0  0  0  0  0  0  0  0  0  0  0  0  # atno 15146 bound_to 15098
   -8.0538   30.3431  -27.6622 H   0  0  0  0  0  0  0  0  0  0  0  0  # atno 15286 bound_to 15206
   -8.4327   31.4621  -28.6711 H   0  0  0  0  0  0  0  0  0  0  0  0  # atno 15382 bound_to 15342
   -9.7104   30.8698  -31.5115 H   0  0  0  0  0  0  0  0  0  0  0  0  # atno 15498 bound_to 15438
  -11.1423   29.8816  -33.3096 H   0  0  0  0  0  0  0  0  0  0  0  0  # atno 15590 bound_to 15546
   -8.0831   36.8529  -33.5364 LP  0  0  0  0  0  0  0  0  0  0  0  0  # atno 20694 bound_to 1354
   -7.7974   35.5031  -32.4892 LP  0  0  0  0  0  0  0  0  0  0  0  0  # atno 20695 bound_to 1354
   -5.6654   38.3162  -31.2994 LP  0  0  0  0  0  0  0  0  0  0  0  0  # atno 20696 bound_to 1443
   -3.1503   34.6972  -31.1532 LP  0  0  0  0  0  0  0  0  0  0  0  0  # atno 20697 bound_to 1446
   -3.8229   36.1714  -30.5412 LP  0  0  0  0  0  0  0  0  0  0  0  0  # atno 20698 bound_to 1446
   -2.9556   31.4716  -31.2703 LP  0  0  0  0  0  0  0  0  0  0  0  0  # atno 20700 bound_to 1554
   -1.4499   31.9220  -31.9982 LP  0  0  0  0  0  0  0  0  0  0  0  0  # atno 20701 bound_to 1554
   -2.7834   34.4397  -33.4361 LP  0  0  0  0  0  0  0  0  0  0  0  0  # atno 20702 bound_to 1671
    1.2994   32.8450  -32.2334 LP  0  0  0  0  0  0  0  0  0  0  0  0  # atno 20703 bound_to 1674
    1.7747   34.2783  -33.0819 LP  0  0  0  0  0  0  0  0  0  0  0  0  # atno 20704 bound_to 1674
   -0.2332   34.6725  -32.8986 LP  0  0  0  0  0  0  0  0  0  0  0  0  # atno 20705 bound_to 1791
   -1.0051   33.5926  -29.3188 LP  0  0  0  0  0  0  0  0  0  0  0  0  # atno 20706 bound_to 1794
    0.2649   32.6723  -30.0539 LP  0  0  0  0  0  0  0  0  0  0  0  0  # atno 20707 bound_to 1794
    1.4683   35.8498  -29.0664 LP  0  0  0  0  0  0  0  0  0  0  0  0  # atno 20708 bound_to 1887
    2.8420   36.4443  -26.6579 LP  0  0  0  0  0  0  0  0  0  0  0  0  # atno 20709 bound_to 1890
    3.9170   35.1438  -26.2670 LP  0  0  0  0  0  0  0  0  0  0  0  0  # atno 20710 bound_to 1890
    1.2047   33.3294  -26.3704 LP  0  0  0  0  0  0  0  0  0  0  0  0  # atno 20715 bound_to 1982
    0.8546   37.3104  -23.1299 LP  0  0  0  0  0  0  0  0  0  0  0  0  # atno 20716 bound_to 1985
    2.1443   37.3687  -24.2845 LP  0  0  0  0  0  0  0  0  0  0  0  0  # atno 20717 bound_to 1985
   -0.9849   35.9102  -25.1711 LP  0  0  0  0  0  0  0  0  0  0  0  0  # atno 20718 bound_to 2058
   -3.5757   37.1875  -27.2100 LP  0  0  0  0  0  0  0  0  0  0  0  0  # atno 20719 bound_to 2061
   -2.0072   36.4573  -27.1284 LP  0  0  0  0  0  0  0  0  0  0  0  0  # atno 20720 bound_to 2061
   -2.4958   38.3189  -26.0214 LP  0  0  0  0  0  0  0  0  0  0  0  0  # atno 20721 bound_to 2190
   -4.2790   39.3384  -28.7947 LP  0  0  0  0  0  0  0  0  0  0  0  0  # atno 20722 bound_to 2355
   -5.0121   39.1310  -30.5518 LP  0  0  0  0  0  0  0  0  0  0  0  0  # atno 20723 bound_to 2358
   -6.0182   39.8910  -31.7393 LP  0  0  0  0  0  0  0  0  0  0  0  0  # atno 20724 bound_to 2358
   -2.1366   34.3051  -23.4094 LP  0  0  0  0  0  0  0  0  0  0  0  0  # atno 20725 bound_to 14569
   -2.7279   32.9468  -22.5119 LP  0  0  0  0  0  0  0  0  0  0  0  0  # atno 20726 bound_to 14569
   -5.1676   31.5822  -21.5283 LP  0  0  0  0  0  0  0  0  0  0  0  0  # atno 20727 bound_to 14946
   -4.3902   30.8646  -23.4131 LP  0  0  0  0  0  0  0  0  0  0  0  0  # atno 20728 bound_to 14949
   -4.8123   30.5916  -25.0706 LP  0  0  0  0  0  0  0  0  0  0  0  0  # atno 20729 bound_to 14949
   -7.5946   31.2874  -23.8206 LP  0  0  0  0  0  0  0  0  0  0  0  0  # atno 20730 bound_to 15098
   -9.9539   31.7522  -26.9431 LP  0  0  0  0  0  0  0  0  0  0  0  0  # atno 20731 bound_to 15101
   -9.3284   31.8436  -25.3305 LP  0  0  0  0  0  0  0  0  0  0  0  0  # atno 20732 bound_to 15101
   -8.5778   28.9511  -26.7360 LP  0  0  0  0  0  0  0  0  0  0  0  0  # atno 20737 bound_to 15206
   -9.5424   30.6562  -29.7503 LP  0  0  0  0  0  0  0  0  0  0  0  0  # atno 20738 bound_to 15342
   -2.2380   34.1246  -20.0961 LP  0  0  0  0  0  0  0  0  0  0  0  0  # atno 20741 bound_to 14682
   -1.1750   30.1473  -21.5447 LP  0  0  0  0  0  0  0  0  0  0  0  0  # atno 20742 bound_to 14685
   -2.8670   29.8851  -21.2830 LP  0  0  0  0  0  0  0  0  0  0  0  0  # atno 20743 bound_to 14685
   -9.6335   38.0572  -32.1923 LP  0  0  0  0  0  0  0  0  0  0  0  0  # atno 20744 bound_to 1351
   -8.7531   32.6596  -22.3903 LP  0  0  0  0  0  0  0  0  0  0  0  0  # atno 20745 bound_to 6649
   -9.5527   32.2911  -23.8819 LP  0  0  0  0  0  0  0  0  0  0  0  0  # atno 20746 bound_to 6649
   -6.5301   30.2403  -22.1948 LP  0  0  0  0  0  0  0  0  0  0  0  0  # atno 20747 bound_to 14797
   -7.0198   30.4531  -20.5471 LP  0  0  0  0  0  0  0  0  0  0  0  0  # atno 20748 bound_to 14797
  -11.9223   31.4737  -28.7546 LP  0  0  0  0  0  0  0  0  0  0  0  0  # atno 20749 bound_to 15209
  -11.4983   31.2693  -30.4214 LP  0  0  0  0  0  0  0  0  0  0  0  0  # atno 20750 bound_to 15209
  -11.2231   33.4438  -31.8240 LP  0  0  0  0  0  0  0  0  0  0  0  0  # atno 20751 bound_to 15345
  -10.2027   33.4358  -33.2236 LP  0  0  0  0  0  0  0  0  0  0  0  0  # atno 20752 bound_to 15345
   -8.3852   31.8400  -32.1076 LP  0  0  0  0  0  0  0  0  0  0  0  0  # atno 20753 bound_to 15438

> <Gold.Score>
     Fitness  S(hb_ext) S(vdw_ext)  S(hb_int)    S(int)      intcor
     29.76       1.22      23.47       0.00      -3.74      -0.88

> <Gold.Goldscore.Fitness>
29.7609

> <Gold.Goldscore.Internal.Vdw>
-3.7171

> <Gold.Goldscore.Internal.Torsion>
-0.9001

> <Gold.Goldscore.External.Vdw>
23.4740

> <Gold.Goldscore.Internal.HBond>
0.0000

> <Gold.Goldscore.External.HBond>
1.2193

> <Gold.Goldscore.Internal.Correction>
-0.8821

> <Gold.Goldscore.Hbonds>
donor molecule, donor type, donor heavy atom, donor atom, acceptor molecule, acceptor atom, score
      L1  H     8    22       P1 15445  0.20

> <Gold.Goldscore.Internal.Vdw.Weighted>
-3.7171

> <Gold.Goldscore.Internal.Torsion.Weighted>
-0.9001

> <Gold.Goldscore.External.Vdw.Weighted>
32.2767

> <Gold.Goldscore.Internal.HBond.Weighted>
0.0000

> <Gold.Goldscore.External.HBond.Weighted>
1.2193

> <Gold.Goldscore.Internal.Correction.Weighted>
-0.8821

> <Gold.Rescore>
     Score     S(PLP)   S(hbond)     S(cho)   S(metal)  DE(clash)   DE(tors)     intcor
     14.58     -17.27       0.00       0.00       0.00       2.00       0.34       ----

> <Gold.PLP.Fitness>
14.5818

> <Gold.PLP.PLP>
-17.2727

> <Gold.PLP.part.hbond>
-1.0000

> <Gold.PLP.part.metal>
0.0000

> <Gold.PLP.part.buried>
-0.4975

> <Gold.PLP.part.nonpolar>
-21.8273

> <Gold.PLP.part.repulsive>
5.8028

> <Gold.PLP.ligand.clash>
2.0022

> <Gold.PLP.ligand.torsion>
0.3444

> <Gold.PLP.Chemscore.Hbond>
0.0000

> <Gold.PLP.Chemscore.CHOScore>
0.0000

> <Gold.PLP.Chemscore.Metal>
0.0000

> <Gold.PLP.Chemscore.Internal.Correction>
   9.000000E+99

