#       Name:                CT1002167954
#       Creating user name   hitesit
#       Creation time:       Sun Apr 16 02:23:50 2023


#       File generated by GOLD software.
#

@<TRIPOS>MOLECULE
CT1002167954|ligand_prepared|mol2|1|dock7
    29    30     1
SMALL
NO_CHARGES


@<TRIPOS>ATOM
      1 C1          -3.3838  30.9241 -28.0444 C.3            1 RES1               0.0000
      2 C2          -2.9789  31.9940 -27.0099 C.ar           1 RES1               0.0000
      3 C3          -2.2233  30.8201 -29.0297 C.2            1 RES1               0.0000
      4 C4          -3.6467  29.6460 -27.2557 C.2            1 RES1               0.0000
      5 C5          -4.6679  31.2717 -28.8329 C.3            1 RES1               0.0000
      6 C6          -2.3997  31.6257 -25.7993 C.ar           1 RES1               0.0000
      7 C7          -3.1757  33.3508 -27.2525 C.ar           1 RES1               0.0000
      8 N8          -1.4241  29.7179 -28.9505 N.am           1 RES1               0.0000
      9 O9          -1.9893  31.7105 -29.8376 O.2            1 RES1               0.0000
     10 N10         -2.8101  28.5806 -27.4622 N.am           1 RES1               0.0000
     11 O11         -4.5607  29.5575 -26.4452 O.2            1 RES1               0.0000
     12 C12         -5.2262  30.1093 -29.6386 C.3            1 RES1               0.0000
     13 C13         -2.0278  32.5794 -24.8663 C.ar           1 RES1               0.0000
     14 C14         -2.8033  34.3029 -26.3180 C.ar           1 RES1               0.0000
     15 C15         -1.6922  28.5688 -28.2511 C.2            1 RES1               0.0000
     16 C16         -2.2289  33.9185 -25.1251 C.ar           1 RES1               0.0000
     17 O17         -0.9587  27.5887 -28.3434 O.2            1 RES1               0.0000
     18 H18         -5.4348  31.6122 -28.1262 H              1 RES1               0.0000
     19 H19         -4.4491  32.1018 -29.5158 H              1 RES1               0.0000
     20 H20         -2.2358  30.5766 -25.5769 H              1 RES1               0.0000
     21 H21         -3.6269  33.6764 -28.1837 H              1 RES1               0.0000
     22 H22         -0.5457  29.7513 -29.4582 H              1 RES1               0.0000
     23 H23         -3.0423  27.7161 -26.9835 H              1 RES1               0.0000
     24 H24         -6.1264  30.4070 -30.1723 H              1 RES1               0.0000
     25 H25         -4.4986  29.7615 -30.3690 H              1 RES1               0.0000
     26 H26         -5.4785  29.2748 -28.9876 H              1 RES1               0.0000
     27 H27         -1.5774  32.2716 -23.9284 H              1 RES1               0.0000
     28 H28         -2.9640  35.3557 -26.5257 H              1 RES1               0.0000
     29 H29         -1.9371  34.6654 -24.3942 H              1 RES1               0.0000
@<TRIPOS>BOND
    1    1    2 1     
    2    1    3 1     
    3    1    4 1     
    4    1    5 1     
    5    2    6 ar    
    6    2    7 ar    
    7    3    8 1     
    8    3    9 2     
    9    4   10 1     
   10    4   11 2     
   11    5   12 1     
   12    5   18 1     
   13    5   19 1     
   14    6   13 ar    
   15    6   20 1     
   16    7   14 ar    
   17    7   21 1     
   18    8   15 1     
   19    8   22 1     
   20   10   15 1     
   21   10   23 1     
   22   12   24 1     
   23   12   25 1     
   24   12   26 1     
   25   13   16 ar    
   26   13   27 1     
   27   14   16 ar    
   28   14   28 1     
   29   15   17 2     
   30   16   29 1     
@<TRIPOS>SUBSTRUCTURE
      1 RES1           1
@<TRIPOS>SET
DONOR_HYDROGENS      STATIC     ATOMS    <user>   **** ""
2 22 23
ATOM$RED        STATIC     ATOMS    COLORGROUP SYSTEM
2 22 23
@<TRIPOS>COMMENT
> <Gold.Version>
2022.3.0

> <Gold.Id.Protein>
unknown|7ta6_clean|pdb

> <Gold.Protein.RotatedTorsions>
[ 1479 1443 1444 1445 ] final  -63.49 input   95.13 | X-H torsion
[ 1715 1671 1672 1673 ] final  -89.72 input  105.58 | X-H torsion
[ 1815 1791 1792 1793 ] final  164.24 input  118.53 | X-H torsion
[ 1925 1887 1888 1889 ] final  -84.19 input   64.46 | X-H torsion
[ 2001 1982 1983 1984 ] final -129.53 input -106.71 | X-H torsion
[ 2100 2058 2059 2060 ] final   22.96 input   13.45 | X-H torsion
[ 2231 2190 2191 2192 ] final  179.36 input   70.14 | X-H torsion
[ 2399 2355 2356 2357 ] final  -22.75 input   76.48 | X-H torsion
[ 15022 14946 14947 14948 ] final  -93.60 input  119.61 | X-H torsion
[ 15146 15098 15099 15100 ] final  -88.25 input   10.36 | X-H torsion
[ 15286 15206 15207 15208 ] final  -61.52 input -115.44 | X-H torsion
[ 15382 15342 15343 15344 ] final   75.00 input  111.11 | X-H torsion
[ 14730 14682 14683 14684 ] final  -41.09 input  117.17 | X-H torsion
[ 1374 1351 1352 1353 ] final  -53.43 input  113.38 | X-H torsion
[ 15498 15438 15439 15440 ] final  -40.83 input  116.04 | X-H torsion
[ 15590 15546 15547 15548 ] final  -82.44 input  104.39 | X-H torsion
[ 20694 1354 1353 1352 ] final -179.64 input    0.00 | X-H torsion
[ 20697 1446 1445 1444 ] final -141.85 input    0.00 | X-H torsion
[ 20700 1554 1553 1552 ] final   88.68 input    0.00 | X-H torsion
[ 20703 1674 1673 1672 ] final -156.12 input   -0.00 | X-H torsion
[ 20706 1794 1793 1792 ] final   40.74 input    0.00 | X-H torsion
[ 20709 1890 1889 1888 ] final  108.16 input    0.00 | X-H torsion
[ 20716 1985 1984 1983 ] final -172.10 input    0.00 | X-H torsion
[ 20719 2061 2060 2059 ] final   43.34 input    0.00 | X-H torsion
[ 20723 2358 2357 2356 ] final  103.75 input    0.00 | X-H torsion
[ 20725 14569 14568 14567 ] final  -49.67 input   -0.00 | X-H torsion
[ 20728 14949 14948 14947 ] final  -83.44 input    0.00 | X-H torsion
[ 20731 15101 15100 15099 ] final  -31.47 input   -0.00 | X-H torsion
[ 20742 14685 14684 14683 ] final   13.50 input   -0.00 | X-H torsion
[ 20745 6649 6648 6647 ] final  -66.24 input    0.00 | X-H torsion
[ 20747 14797 14796 14795 ] final  170.80 input    0.00 | X-H torsion
[ 20749 15209 15208 15207 ] final -159.72 input    0.00 | X-H torsion
[ 20751 15345 15344 15343 ] final  -57.05 input    0.00 | X-H torsion

> <Gold.Protein.ActiveResidues>
 ALA18   ASN19   PRO20   GLN21   ALA22   GLU23   GLY24   GLN25   LEU26   GLN27  
 LEU63   ILE136  PRO139  ASP140  TYR141  LEU142  ASP143  PHE144  ALA145  GLU146 
 SER147  VAL150 

> <Gold.Protein.RotatedAtoms>
   -9.5822   38.5941  -32.1048 H   0  0  0  0  0  0  0  0  0  0  0  0  # atno 1374 bound_to 1351
   -6.7934   37.0307  -31.6738 H   0  0  0  0  0  0  0  0  0  0  0  0  # atno 1479 bound_to 1443
   -2.9145   32.8537  -33.0322 H   0  0  0  0  0  0  0  0  0  0  0  0  # atno 1715 bound_to 1671
   -1.2535   35.5193  -32.6840 H   0  0  0  0  0  0  0  0  0  0  0  0  # atno 1815 bound_to 1791
    0.6276   34.8775  -29.4155 H   0  0  0  0  0  0  0  0  0  0  0  0  # atno 1925 bound_to 1887
    0.6599   33.4574  -26.4585 H   0  0  0  0  0  0  0  0  0  0  0  0  # atno 2001 bound_to 1982
   -0.7634   36.0362  -26.2025 H   0  0  0  0  0  0  0  0  0  0  0  0  # atno 2100 bound_to 2058
   -2.8670   38.4533  -25.1572 H   0  0  0  0  0  0  0  0  0  0  0  0  # atno 2231 bound_to 2190
   -4.7571   39.8764  -28.4051 H   0  0  0  0  0  0  0  0  0  0  0  0  # atno 2399 bound_to 2355
   -2.1473   34.2253  -21.0372 H   0  0  0  0  0  0  0  0  0  0  0  0  # atno 14730 bound_to 14682
   -5.6402   32.0621  -21.0524 H   0  0  0  0  0  0  0  0  0  0  0  0  # atno 15022 bound_to 14946
   -6.7552   32.3076  -24.9627 H   0  0  0  0  0  0  0  0  0  0  0  0  # atno 15146 bound_to 15098
   -7.8449   29.6712  -27.9448 H   0  0  0  0  0  0  0  0  0  0  0  0  # atno 15286 bound_to 15206
   -8.2618   30.8213  -29.6453 H   0  0  0  0  0  0  0  0  0  0  0  0  # atno 15382 bound_to 15342
   -9.7575   31.8724  -31.7507 H   0  0  0  0  0  0  0  0  0  0  0  0  # atno 15498 bound_to 15438
  -11.2064   30.5013  -33.5692 H   0  0  0  0  0  0  0  0  0  0  0  0  # atno 15590 bound_to 15546
   -7.1638   36.0344  -33.3685 LP  0  0  0  0  0  0  0  0  0  0  0  0  # atno 20694 bound_to 1354
   -8.7167   36.3216  -32.6571 LP  0  0  0  0  0  0  0  0  0  0  0  0  # atno 20695 bound_to 1354
   -5.6855   38.3452  -31.3381 LP  0  0  0  0  0  0  0  0  0  0  0  0  # atno 20696 bound_to 1443
   -3.0635   34.7725  -31.2119 LP  0  0  0  0  0  0  0  0  0  0  0  0  # atno 20697 bound_to 1446
   -3.9098   36.0961  -30.4825 LP  0  0  0  0  0  0  0  0  0  0  0  0  # atno 20698 bound_to 1446
   -2.4234   31.0655  -32.1844 LP  0  0  0  0  0  0  0  0  0  0  0  0  # atno 20700 bound_to 1554
   -1.9820   32.3282  -31.0841 LP  0  0  0  0  0  0  0  0  0  0  0  0  # atno 20701 bound_to 1554
   -2.9018   34.3084  -33.9991 LP  0  0  0  0  0  0  0  0  0  0  0  0  # atno 20702 bound_to 1671
    1.5365   33.8407  -31.8378 LP  0  0  0  0  0  0  0  0  0  0  0  0  # atno 20703 bound_to 1674
    1.5375   33.2826  -33.4775 LP  0  0  0  0  0  0  0  0  0  0  0  0  # atno 20704 bound_to 1674
   -0.6512   33.9669  -32.1582 LP  0  0  0  0  0  0  0  0  0  0  0  0  # atno 20705 bound_to 1791
   -0.4967   33.0467  -30.5388 LP  0  0  0  0  0  0  0  0  0  0  0  0  # atno 20706 bound_to 1794
   -0.2435   33.2182  -28.8339 LP  0  0  0  0  0  0  0  0  0  0  0  0  # atno 20707 bound_to 1794
    2.2021   35.5153  -29.8394 LP  0  0  0  0  0  0  0  0  0  0  0  0  # atno 20708 bound_to 1887
    2.8037   36.4357  -26.5447 LP  0  0  0  0  0  0  0  0  0  0  0  0  # atno 20709 bound_to 1890
    3.9552   35.1524  -26.3802 LP  0  0  0  0  0  0  0  0  0  0  0  0  # atno 20710 bound_to 1890
    1.6974   34.8077  -26.8563 LP  0  0  0  0  0  0  0  0  0  0  0  0  # atno 20715 bound_to 1982
    0.9160   37.9614  -23.8586 LP  0  0  0  0  0  0  0  0  0  0  0  0  # atno 20716 bound_to 1985
    2.0829   36.7177  -23.5558 LP  0  0  0  0  0  0  0  0  0  0  0  0  # atno 20717 bound_to 1985
    0.2683   36.3426  -24.8247 LP  0  0  0  0  0  0  0  0  0  0  0  0  # atno 20718 bound_to 2058
   -2.4998   36.2354  -26.6032 LP  0  0  0  0  0  0  0  0  0  0  0  0  # atno 20719 bound_to 2061
   -3.0831   37.4095  -27.7352 LP  0  0  0  0  0  0  0  0  0  0  0  0  # atno 20720 bound_to 2061
   -2.1871   39.7223  -26.1567 LP  0  0  0  0  0  0  0  0  0  0  0  0  # atno 20721 bound_to 2190
   -3.0238   39.9087  -28.1536 LP  0  0  0  0  0  0  0  0  0  0  0  0  # atno 20722 bound_to 2355
   -6.1703   39.5809  -30.5836 LP  0  0  0  0  0  0  0  0  0  0  0  0  # atno 20723 bound_to 2358
   -4.8600   39.4410  -31.7076 LP  0  0  0  0  0  0  0  0  0  0  0  0  # atno 20724 bound_to 2358
   -3.2686   33.8345  -22.8767 LP  0  0  0  0  0  0  0  0  0  0  0  0  # atno 20725 bound_to 14569
   -1.5959   33.4174  -23.0445 LP  0  0  0  0  0  0  0  0  0  0  0  0  # atno 20726 bound_to 14569
   -4.2928   32.7709  -21.9086 LP  0  0  0  0  0  0  0  0  0  0  0  0  # atno 20727 bound_to 14946
   -4.2958   31.3358  -24.7779 LP  0  0  0  0  0  0  0  0  0  0  0  0  # atno 20728 bound_to 14949
   -4.9068   30.1204  -23.7058 LP  0  0  0  0  0  0  0  0  0  0  0  0  # atno 20729 bound_to 14949
   -7.5165   31.2553  -23.7918 LP  0  0  0  0  0  0  0  0  0  0  0  0  # atno 20730 bound_to 15098
   -9.4002   31.7745  -25.3053 LP  0  0  0  0  0  0  0  0  0  0  0  0  # atno 20731 bound_to 15101
   -9.8821   31.8214  -26.9683 LP  0  0  0  0  0  0  0  0  0  0  0  0  # atno 20732 bound_to 15101
   -8.7789   29.5975  -26.4641 LP  0  0  0  0  0  0  0  0  0  0  0  0  # atno 20737 bound_to 15206
   -9.7106   31.2870  -28.7912 LP  0  0  0  0  0  0  0  0  0  0  0  0  # atno 20738 bound_to 15342
   -0.8548   34.5211  -19.9022 LP  0  0  0  0  0  0  0  0  0  0  0  0  # atno 20741 bound_to 14682
   -1.1592   30.0968  -21.4428 LP  0  0  0  0  0  0  0  0  0  0  0  0  # atno 20742 bound_to 14685
   -2.8828   29.9356  -21.3849 LP  0  0  0  0  0  0  0  0  0  0  0  0  # atno 20743 bound_to 14685
  -10.1691   37.8032  -30.6617 LP  0  0  0  0  0  0  0  0  0  0  0  0  # atno 20744 bound_to 1351
   -9.3978   31.9273  -23.7604 LP  0  0  0  0  0  0  0  0  0  0  0  0  # atno 20745 bound_to 6649
   -8.9080   33.0233  -22.5118 LP  0  0  0  0  0  0  0  0  0  0  0  0  # atno 20746 bound_to 6649
   -7.1264   30.9041  -21.9329 LP  0  0  0  0  0  0  0  0  0  0  0  0  # atno 20747 bound_to 14797
   -6.4235   29.7893  -20.8090 LP  0  0  0  0  0  0  0  0  0  0  0  0  # atno 20748 bound_to 14797
  -11.3612   31.8285  -30.2355 LP  0  0  0  0  0  0  0  0  0  0  0  0  # atno 20749 bound_to 15209
  -12.0594   30.9145  -28.9405 LP  0  0  0  0  0  0  0  0  0  0  0  0  # atno 20750 bound_to 15209
  -11.2744   33.3567  -31.8698 LP  0  0  0  0  0  0  0  0  0  0  0  0  # atno 20751 bound_to 15345
  -10.1513   33.5230  -33.1778 LP  0  0  0  0  0  0  0  0  0  0  0  0  # atno 20752 bound_to 15345
   -8.3392   30.8594  -31.8737 LP  0  0  0  0  0  0  0  0  0  0  0  0  # atno 20753 bound_to 15438

> <Gold.Score>
     Fitness  S(hb_ext) S(vdw_ext)  S(hb_int)    S(int)      intcor
     27.50       0.00      20.60       0.00      -0.82      -0.77

> <Gold.Goldscore.Fitness>
27.4983

> <Gold.Goldscore.Internal.Vdw>
-1.0043

> <Gold.Goldscore.Internal.Torsion>
-0.5841

> <Gold.Goldscore.External.Vdw>
20.5973

> <Gold.Goldscore.Internal.HBond>
0.0000

> <Gold.Goldscore.External.HBond>
0.0000

> <Gold.Goldscore.Internal.Correction>
-0.7653

> <Gold.Goldscore.Internal.Vdw.Weighted>
-1.0043

> <Gold.Goldscore.Internal.Torsion.Weighted>
-0.5841

> <Gold.Goldscore.External.Vdw.Weighted>
28.3213

> <Gold.Goldscore.Internal.HBond.Weighted>
0.0000

> <Gold.Goldscore.External.HBond.Weighted>
0.0000

> <Gold.Goldscore.Internal.Correction.Weighted>
-0.7653

> <Gold.Rescore>
     Score     S(PLP)   S(hbond)     S(cho)   S(metal)  DE(clash)   DE(tors)     intcor
     -3.83       1.49       0.00       0.00       0.00       0.37       0.98       ----

> <Gold.PLP.Fitness>
-3.8308

> <Gold.PLP.PLP>
1.4929

> <Gold.PLP.part.hbond>
-3.2207

> <Gold.PLP.part.metal>
0.0000

> <Gold.PLP.part.buried>
14.9504

> <Gold.PLP.part.nonpolar>
-14.1027

> <Gold.PLP.part.repulsive>
3.1094

> <Gold.PLP.ligand.clash>
0.3741

> <Gold.PLP.ligand.torsion>
0.9827

> <Gold.PLP.Chemscore.Hbond>
0.0005

> <Gold.PLP.Chemscore.CHOScore>
0.0000

> <Gold.PLP.Chemscore.Metal>
0.0000

> <Gold.PLP.Chemscore.Internal.Correction>
   9.000000E+99

