#       Name:                CT1002167954
#       Creating user name   hitesit
#       Creation time:       Sun Apr 16 02:23:46 2023


#       File generated by GOLD software.
#

@<TRIPOS>MOLECULE
CT1002167954|ligand_prepared|mol2|1|dock2
    29    30     1
SMALL
NO_CHARGES


@<TRIPOS>ATOM
      1 C1          -3.3261  32.2809 -27.9007 C.3            1 RES1               0.0000
      2 C2          -4.1646  31.0817 -28.3881 C.ar           1 RES1               0.0000
      3 C3          -3.3786  32.2489 -26.3760 C.2            1 RES1               0.0000
      4 C4          -1.9288  32.0878 -28.4793 C.2            1 RES1               0.0000
      5 C5          -3.8572  33.6513 -28.3818 C.3            1 RES1               0.0000
      6 C6          -3.5878  29.8225 -28.5244 C.ar           1 RES1               0.0000
      7 C7          -5.5141  31.2181 -28.7022 C.ar           1 RES1               0.0000
      8 N8          -2.2581  31.8416 -25.7137 N.am           1 RES1               0.0000
      9 O9          -4.4001  32.5388 -25.7656 O.2            1 RES1               0.0000
     10 N10         -0.8982  31.8585 -27.6058 N.am           1 RES1               0.0000
     11 O11         -1.7137  32.1157 -29.6848 O.2            1 RES1               0.0000
     12 C12         -2.9226  34.8118 -28.0788 C.3            1 RES1               0.0000
     13 C13         -4.3338  28.7383 -28.9561 C.ar           1 RES1               0.0000
     14 C14         -6.2583  30.1327 -29.1340 C.ar           1 RES1               0.0000
     15 C15         -1.0046  31.6961 -26.2513 C.2            1 RES1               0.0000
     16 C16         -5.6695  28.8925 -29.2607 C.ar           1 RES1               0.0000
     17 O17         -0.0389  31.4377 -25.5387 O.2            1 RES1               0.0000
     18 H18         -4.0232  33.6051 -29.4651 H              1 RES1               0.0000
     19 H19         -4.8251  33.8431 -27.9022 H              1 RES1               0.0000
     20 H20         -2.5374  29.6825 -28.2916 H              1 RES1               0.0000
     21 H21         -5.9981  32.1846 -28.6109 H              1 RES1               0.0000
     22 H22         -2.3620  31.6251 -24.7275 H              1 RES1               0.0000
     23 H23          0.0348  31.8039 -28.0020 H              1 RES1               0.0000
     24 H24         -3.3428  35.7492 -28.4371 H              1 RES1               0.0000
     25 H25         -2.7553  34.9029 -27.0076 H              1 RES1               0.0000
     26 H26         -1.9582  34.6664 -28.5613 H              1 RES1               0.0000
     27 H27         -3.8653  27.7647 -29.0555 H              1 RES1               0.0000
     28 H28         -7.3090  30.2588 -29.3732 H              1 RES1               0.0000
     29 H29         -6.2537  28.0430 -29.5986 H              1 RES1               0.0000
@<TRIPOS>BOND
    1    1    2 1     
    2    1    3 1     
    3    1    4 1     
    4    1    5 1     
    5    2    6 ar    
    6    2    7 ar    
    7    3    8 1     
    8    3    9 2     
    9    4   10 1     
   10    4   11 2     
   11    5   12 1     
   12    5   18 1     
   13    5   19 1     
   14    6   13 ar    
   15    6   20 1     
   16    7   14 ar    
   17    7   21 1     
   18    8   15 1     
   19    8   22 1     
   20   10   15 1     
   21   10   23 1     
   22   12   24 1     
   23   12   25 1     
   24   12   26 1     
   25   13   16 ar    
   26   13   27 1     
   27   14   16 ar    
   28   14   28 1     
   29   15   17 2     
   30   16   29 1     
@<TRIPOS>SUBSTRUCTURE
      1 RES1           1
@<TRIPOS>SET
DONOR_HYDROGENS      STATIC     ATOMS    <user>   **** ""
2 22 23
ATOM$RED        STATIC     ATOMS    COLORGROUP SYSTEM
2 22 23
@<TRIPOS>COMMENT
> <Gold.Version>
2022.3.0

> <Gold.Id.Protein>
unknown|7ta6_clean|pdb

> <Gold.Protein.RotatedTorsions>
[ 1479 1443 1444 1445 ] final   -3.11 input   95.13 | X-H torsion
[ 1715 1671 1672 1673 ] final   10.18 input  105.58 | X-H torsion
[ 1815 1791 1792 1793 ] final -174.90 input  118.53 | X-H torsion
[ 1925 1887 1888 1889 ] final  -51.65 input   64.46 | X-H torsion
[ 2001 1982 1983 1984 ] final  -73.13 input -106.71 | X-H torsion
[ 2100 2058 2059 2060 ] final   53.71 input   13.45 | X-H torsion
[ 2231 2190 2191 2192 ] final -113.22 input   70.14 | X-H torsion
[ 2399 2355 2356 2357 ] final  -36.56 input   76.48 | X-H torsion
[ 15022 14946 14947 14948 ] final -104.75 input  119.61 | X-H torsion
[ 15146 15098 15099 15100 ] final   38.14 input   10.36 | X-H torsion
[ 15286 15206 15207 15208 ] final  179.86 input -115.44 | X-H torsion
[ 15382 15342 15343 15344 ] final  -91.13 input  111.11 | X-H torsion
[ 14730 14682 14683 14684 ] final   99.04 input  117.17 | X-H torsion
[ 1374 1351 1352 1353 ] final   27.77 input  113.38 | X-H torsion
[ 15498 15438 15439 15440 ] final -127.43 input  116.04 | X-H torsion
[ 15590 15546 15547 15548 ] final   36.62 input  104.39 | X-H torsion
[ 20694 1354 1353 1352 ] final  -40.74 input    0.00 | X-H torsion
[ 20697 1446 1445 1444 ] final  -64.94 input    0.00 | X-H torsion
[ 20700 1554 1553 1552 ] final    7.92 input    0.00 | X-H torsion
[ 20703 1674 1673 1672 ] final   58.13 input   -0.00 | X-H torsion
[ 20706 1794 1793 1792 ] final  159.36 input    0.00 | X-H torsion
[ 20709 1890 1889 1888 ] final -139.95 input    0.00 | X-H torsion
[ 20716 1985 1984 1983 ] final  119.90 input    0.00 | X-H torsion
[ 20719 2061 2060 2059 ] final -102.35 input    0.00 | X-H torsion
[ 20723 2358 2357 2356 ] final -115.11 input    0.00 | X-H torsion
[ 20725 14569 14568 14567 ] final   30.49 input   -0.00 | X-H torsion
[ 20728 14949 14948 14947 ] final  -47.61 input    0.00 | X-H torsion
[ 20731 15101 15100 15099 ] final  179.76 input   -0.00 | X-H torsion
[ 20742 14685 14684 14683 ] final   75.27 input   -0.00 | X-H torsion
[ 20745 6649 6648 6647 ] final  154.75 input    0.00 | X-H torsion
[ 20747 14797 14796 14795 ] final  -45.02 input    0.00 | X-H torsion
[ 20749 15209 15208 15207 ] final -153.18 input    0.00 | X-H torsion
[ 20751 15345 15344 15343 ] final  -17.31 input    0.00 | X-H torsion

> <Gold.Protein.ActiveResidues>
 ALA18   ASN19   PRO20   GLN21   ALA22   GLU23   GLY24   GLN25   LEU26   GLN27  
 LEU63   ILE136  PRO139  ASP140  TYR141  LEU142  ASP143  PHE144  ALA145  GLU146 
 SER147  VAL150 

> <Gold.Protein.RotatedAtoms>
   -9.8074   37.4859  -31.8980 H   0  0  0  0  0  0  0  0  0  0  0  0  # atno 1374 bound_to 1351
   -6.1902   36.9550  -31.0137 H   0  0  0  0  0  0  0  0  0  0  0  0  # atno 1479 bound_to 1443
   -2.7172   34.1837  -32.8973 H   0  0  0  0  0  0  0  0  0  0  0  0  # atno 1715 bound_to 1671
   -0.9892   35.4968  -32.8615 H   0  0  0  0  0  0  0  0  0  0  0  0  # atno 1815 bound_to 1791
    0.7103   35.2616  -29.1078 H   0  0  0  0  0  0  0  0  0  0  0  0  # atno 1925 bound_to 1887
    0.3039   34.1586  -26.7463 H   0  0  0  0  0  0  0  0  0  0  0  0  # atno 2001 bound_to 1982
   -0.3566   36.1868  -26.3826 H   0  0  0  0  0  0  0  0  0  0  0  0  # atno 2100 bound_to 2058
   -2.5124   38.3034  -26.0716 H   0  0  0  0  0  0  0  0  0  0  0  0  # atno 2231 bound_to 2190
   -4.7546   40.0368  -28.2628 H   0  0  0  0  0  0  0  0  0  0  0  0  # atno 2399 bound_to 2355
   -1.3413   34.3604  -19.5992 H   0  0  0  0  0  0  0  0  0  0  0  0  # atno 14730 bound_to 14682
   -5.6656   32.2214  -20.9944 H   0  0  0  0  0  0  0  0  0  0  0  0  # atno 15022 bound_to 14946
   -8.0119   31.6859  -24.2295 H   0  0  0  0  0  0  0  0  0  0  0  0  # atno 15146 bound_to 15098
   -8.5295   28.8323  -26.8559 H   0  0  0  0  0  0  0  0  0  0  0  0  # atno 15286 bound_to 15206
   -9.8170   31.1749  -28.9351 H   0  0  0  0  0  0  0  0  0  0  0  0  # atno 15382 bound_to 15342
   -8.6181   32.0777  -32.1083 H   0  0  0  0  0  0  0  0  0  0  0  0  # atno 15498 bound_to 15438
  -11.3839   31.2599  -32.2632 H   0  0  0  0  0  0  0  0  0  0  0  0  # atno 15590 bound_to 15546
   -8.4461   35.8451  -32.3937 LP  0  0  0  0  0  0  0  0  0  0  0  0  # atno 20694 bound_to 1354
   -7.4343   36.5109  -33.6319 LP  0  0  0  0  0  0  0  0  0  0  0  0  # atno 20695 bound_to 1354
   -6.2663   38.4180  -31.9738 LP  0  0  0  0  0  0  0  0  0  0  0  0  # atno 20696 bound_to 1443
   -2.8523   35.8260  -31.2879 LP  0  0  0  0  0  0  0  0  0  0  0  0  # atno 20697 bound_to 1446
   -4.1210   35.0426  -30.4066 LP  0  0  0  0  0  0  0  0  0  0  0  0  # atno 20698 bound_to 1446
   -2.9574   31.4616  -31.2805 LP  0  0  0  0  0  0  0  0  0  0  0  0  # atno 20700 bound_to 1554
   -1.4481   31.9320  -31.9880 LP  0  0  0  0  0  0  0  0  0  0  0  0  # atno 20701 bound_to 1554
   -3.0950   33.0063  -34.1312 LP  0  0  0  0  0  0  0  0  0  0  0  0  # atno 20702 bound_to 1671
    1.6738   33.7740  -33.4860 LP  0  0  0  0  0  0  0  0  0  0  0  0  # atno 20703 bound_to 1674
    1.4002   33.3493  -31.8293 LP  0  0  0  0  0  0  0  0  0  0  0  0  # atno 20704 bound_to 1674
   -0.9104   33.9891  -31.9841 LP  0  0  0  0  0  0  0  0  0  0  0  0  # atno 20705 bound_to 1791
    0.3321   32.7693  -29.3327 LP  0  0  0  0  0  0  0  0  0  0  0  0  # atno 20706 bound_to 1794
   -1.0723   33.4955  -30.0400 LP  0  0  0  0  0  0  0  0  0  0  0  0  # atno 20707 bound_to 1794
    2.1222   35.1444  -30.1366 LP  0  0  0  0  0  0  0  0  0  0  0  0  # atno 20708 bound_to 1887
    3.3740   35.4556  -25.6653 LP  0  0  0  0  0  0  0  0  0  0  0  0  # atno 20709 bound_to 1890
    3.3850   36.1326  -27.2596 LP  0  0  0  0  0  0  0  0  0  0  0  0  # atno 20710 bound_to 1890
    2.0440   34.1251  -26.5761 LP  0  0  0  0  0  0  0  0  0  0  0  0  # atno 20715 bound_to 1982
    1.7127   37.8246  -24.3922 LP  0  0  0  0  0  0  0  0  0  0  0  0  # atno 20716 bound_to 1985
    1.2862   36.8545  -23.0222 LP  0  0  0  0  0  0  0  0  0  0  0  0  # atno 20717 bound_to 1985
   -0.1279   36.1959  -24.6493 LP  0  0  0  0  0  0  0  0  0  0  0  0  # atno 20718 bound_to 2058
   -2.5984   37.3071  -27.8604 LP  0  0  0  0  0  0  0  0  0  0  0  0  # atno 20719 bound_to 2061
   -2.9845   36.3377  -26.4780 LP  0  0  0  0  0  0  0  0  0  0  0  0  # atno 20720 bound_to 2061
   -2.5277   39.8663  -25.2785 LP  0  0  0  0  0  0  0  0  0  0  0  0  # atno 20721 bound_to 2190
   -3.0261   39.7541  -28.2907 LP  0  0  0  0  0  0  0  0  0  0  0  0  # atno 20722 bound_to 2355
   -5.3083   39.6937  -31.9665 LP  0  0  0  0  0  0  0  0  0  0  0  0  # atno 20723 bound_to 2358
   -5.7219   39.3282  -30.3247 LP  0  0  0  0  0  0  0  0  0  0  0  0  # atno 20724 bound_to 2358
   -2.4388   34.3832  -23.3807 LP  0  0  0  0  0  0  0  0  0  0  0  0  # atno 20725 bound_to 14569
   -2.4257   32.8686  -22.5406 LP  0  0  0  0  0  0  0  0  0  0  0  0  # atno 20726 bound_to 14569
   -4.2679   32.6148  -21.9654 LP  0  0  0  0  0  0  0  0  0  0  0  0  # atno 20727 bound_to 14946
   -4.1420   31.4611  -24.2835 LP  0  0  0  0  0  0  0  0  0  0  0  0  # atno 20728 bound_to 14949
   -5.0605   29.9950  -24.2002 LP  0  0  0  0  0  0  0  0  0  0  0  0  # atno 20729 bound_to 14949
   -6.2938   31.8602  -24.5052 LP  0  0  0  0  0  0  0  0  0  0  0  0  # atno 20730 bound_to 15098
  -10.1687   31.5162  -26.7632 LP  0  0  0  0  0  0  0  0  0  0  0  0  # atno 20731 bound_to 15101
   -9.1136   32.0797  -25.5104 LP  0  0  0  0  0  0  0  0  0  0  0  0  # atno 20732 bound_to 15101
   -8.1202   30.4046  -27.5117 LP  0  0  0  0  0  0  0  0  0  0  0  0  # atno 20737 bound_to 15206
   -8.1795   30.9390  -29.4905 LP  0  0  0  0  0  0  0  0  0  0  0  0  # atno 20738 bound_to 15342
   -1.6479   34.3882  -21.3172 LP  0  0  0  0  0  0  0  0  0  0  0  0  # atno 20741 bound_to 14682
   -1.5585   29.7131  -20.7473 LP  0  0  0  0  0  0  0  0  0  0  0  0  # atno 20742 bound_to 14685
   -2.4835   30.3193  -22.0804 LP  0  0  0  0  0  0  0  0  0  0  0  0  # atno 20743 bound_to 14685
   -9.9488   38.8872  -30.8640 LP  0  0  0  0  0  0  0  0  0  0  0  0  # atno 20744 bound_to 1351
   -8.7094   32.4630  -22.3924 LP  0  0  0  0  0  0  0  0  0  0  0  0  # atno 20745 bound_to 6649
   -9.5964   32.4876  -23.8799 LP  0  0  0  0  0  0  0  0  0  0  0  0  # atno 20746 bound_to 6649
   -6.2357   29.6735  -21.2937 LP  0  0  0  0  0  0  0  0  0  0  0  0  # atno 20747 bound_to 14797
   -7.3142   31.0199  -21.4481 LP  0  0  0  0  0  0  0  0  0  0  0  0  # atno 20748 bound_to 14797
  -11.3725   31.7476  -30.2912 LP  0  0  0  0  0  0  0  0  0  0  0  0  # atno 20749 bound_to 15209
  -12.0481   30.9954  -28.8849 LP  0  0  0  0  0  0  0  0  0  0  0  0  # atno 20750 bound_to 15209
  -10.9113   33.8080  -31.7655 LP  0  0  0  0  0  0  0  0  0  0  0  0  # atno 20751 bound_to 15345
  -10.5145   33.0717  -33.2822 LP  0  0  0  0  0  0  0  0  0  0  0  0  # atno 20752 bound_to 15345
   -9.4535   30.6586  -31.5240 LP  0  0  0  0  0  0  0  0  0  0  0  0  # atno 20753 bound_to 15438

> <Gold.Score>
     Fitness  S(hb_ext) S(vdw_ext)  S(hb_int)    S(int)      intcor
     35.88       0.00      26.36       0.00      -0.37      -0.77

> <Gold.Goldscore.Fitness>
35.8777

> <Gold.Goldscore.Internal.Vdw>
-0.6608

> <Gold.Goldscore.Internal.Torsion>
-0.4827

> <Gold.Goldscore.External.Vdw>
26.3650

> <Gold.Goldscore.Internal.HBond>
0.0000

> <Gold.Goldscore.External.HBond>
0.0000

> <Gold.Goldscore.Internal.Correction>
-0.7693

> <Gold.Goldscore.Internal.Vdw.Weighted>
-0.6608

> <Gold.Goldscore.Internal.Torsion.Weighted>
-0.4827

> <Gold.Goldscore.External.Vdw.Weighted>
36.2518

> <Gold.Goldscore.Internal.HBond.Weighted>
0.0000

> <Gold.Goldscore.External.HBond.Weighted>
0.0000

> <Gold.Goldscore.Internal.Correction.Weighted>
-0.7693

> <Gold.Rescore>
     Score     S(PLP)   S(hbond)     S(cho)   S(metal)  DE(clash)   DE(tors)     intcor
     11.57     -10.91       1.00       0.00       0.00       0.00       1.17       ----

> <Gold.PLP.Fitness>
11.5712

> <Gold.PLP.PLP>
-10.9128

> <Gold.PLP.part.hbond>
-1.3158

> <Gold.PLP.part.metal>
0.0000

> <Gold.PLP.part.buried>
0.4843

> <Gold.PLP.part.nonpolar>
-24.3250

> <Gold.PLP.part.repulsive>
14.6490

> <Gold.PLP.ligand.clash>
0.0030

> <Gold.PLP.ligand.torsion>
1.1693

> <Gold.PLP.Chemscore.Hbond>
1.0000

> <Gold.PLP.Chemscore.CHOScore>
0.0000

> <Gold.PLP.Chemscore.Metal>
0.0000

> <Gold.PLP.Chemscore.Internal.Correction>
   9.000000E+99

