#       Name:                CT1002167954
#       Creating user name   hitesit
#       Creation time:       Sun Apr 16 02:23:47 2023


#       File generated by GOLD software.
#

@<TRIPOS>MOLECULE
CT1002167954|ligand_prepared|mol2|1|dock4
    29    30     1
SMALL
NO_CHARGES


@<TRIPOS>ATOM
      1 C1          -3.8882  31.1506 -28.0466 C.3            1 RES1               0.0000
      2 C2          -3.4702  30.7428 -26.6191 C.ar           1 RES1               0.0000
      3 C3          -4.9042  32.2782 -27.8899 C.2            1 RES1               0.0000
      4 C4          -2.6079  31.5621 -28.7649 C.2            1 RES1               0.0000
      5 C5          -4.5439  30.0077 -28.8562 C.3            1 RES1               0.0000
      6 C6          -3.5301  29.4121 -26.2161 C.ar           1 RES1               0.0000
      7 C7          -3.0208  31.6839 -25.6966 C.ar           1 RES1               0.0000
      8 N8          -4.4947  33.5439 -28.1903 N.am           1 RES1               0.0000
      9 O9          -6.0355  32.0654 -27.4713 O.2            1 RES1               0.0000
     10 N10         -2.4752  32.8734 -29.1401 N.am           1 RES1               0.0000
     11 O11         -1.7055  30.7663 -28.9946 O.2            1 RES1               0.0000
     12 C12         -5.0953  30.4484 -30.2030 C.3            1 RES1               0.0000
     13 C13         -3.1518  29.0354 -24.9381 C.ar           1 RES1               0.0000
     14 C14         -2.6432  31.3050 -24.4190 C.ar           1 RES1               0.0000
     15 C15         -3.3473  33.8894 -28.8580 C.2            1 RES1               0.0000
     16 C16         -2.7077  29.9814 -24.0389 C.ar           1 RES1               0.0000
     17 O17         -3.1324  35.0539 -29.1818 O.2            1 RES1               0.0000
     18 H18         -3.7993  29.2190 -29.0204 H              1 RES1               0.0000
     19 H19         -5.3612  29.5788 -28.2633 H              1 RES1               0.0000
     20 H20         -3.8794  28.6540 -26.9091 H              1 RES1               0.0000
     21 H21         -2.9628  32.7311 -25.9733 H              1 RES1               0.0000
     22 H22         -5.0972  34.3038 -27.8907 H              1 RES1               0.0000
     23 H23         -1.6500  33.1145 -29.6797 H              1 RES1               0.0000
     24 H24         -5.5440  29.6086 -30.7295 H              1 RES1               0.0000
     25 H25         -5.8571  31.2147 -30.0758 H              1 RES1               0.0000
     26 H26         -4.3044  30.8571 -30.8285 H              1 RES1               0.0000
     27 H27         -3.2057  27.9926 -24.6435 H              1 RES1               0.0000
     28 H28         -2.2948  32.0530 -23.7144 H              1 RES1               0.0000
     29 H29         -2.4109  29.6859 -23.0380 H              1 RES1               0.0000
@<TRIPOS>BOND
    1    1    2 1     
    2    1    3 1     
    3    1    4 1     
    4    1    5 1     
    5    2    6 ar    
    6    2    7 ar    
    7    3    8 1     
    8    3    9 2     
    9    4   10 1     
   10    4   11 2     
   11    5   12 1     
   12    5   18 1     
   13    5   19 1     
   14    6   13 ar    
   15    6   20 1     
   16    7   14 ar    
   17    7   21 1     
   18    8   15 1     
   19    8   22 1     
   20   10   15 1     
   21   10   23 1     
   22   12   24 1     
   23   12   25 1     
   24   12   26 1     
   25   13   16 ar    
   26   13   27 1     
   27   14   16 ar    
   28   14   28 1     
   29   15   17 2     
   30   16   29 1     
@<TRIPOS>SUBSTRUCTURE
      1 RES1           1
@<TRIPOS>SET
DONOR_HYDROGENS      STATIC     ATOMS    <user>   **** ""
2 22 23
ATOM$RED        STATIC     ATOMS    COLORGROUP SYSTEM
2 22 23
@<TRIPOS>COMMENT
> <Gold.Version>
2022.3.0

> <Gold.Id.Protein>
unknown|7ta6_clean|pdb

> <Gold.Protein.RotatedTorsions>
[ 1479 1443 1444 1445 ] final   88.17 input   95.13 | X-H torsion
[ 1715 1671 1672 1673 ] final -144.47 input  105.58 | X-H torsion
[ 1815 1791 1792 1793 ] final -139.99 input  118.53 | X-H torsion
[ 1925 1887 1888 1889 ] final  -42.63 input   64.46 | X-H torsion
[ 2001 1982 1983 1984 ] final -175.86 input -106.71 | X-H torsion
[ 2100 2058 2059 2060 ] final -156.68 input   13.45 | X-H torsion
[ 2231 2190 2191 2192 ] final  -60.20 input   70.14 | X-H torsion
[ 2399 2355 2356 2357 ] final   67.82 input   76.48 | X-H torsion
[ 15022 14946 14947 14948 ] final  120.40 input  119.61 | X-H torsion
[ 15146 15098 15099 15100 ] final  117.18 input   10.36 | X-H torsion
[ 15286 15206 15207 15208 ] final  -67.86 input -115.44 | X-H torsion
[ 15382 15342 15343 15344 ] final   58.97 input  111.11 | X-H torsion
[ 14730 14682 14683 14684 ] final  127.22 input  117.17 | X-H torsion
[ 1374 1351 1352 1353 ] final   82.84 input  113.38 | X-H torsion
[ 15498 15438 15439 15440 ] final -121.78 input  116.04 | X-H torsion
[ 15590 15546 15547 15548 ] final   -5.85 input  104.39 | X-H torsion
[ 20694 1354 1353 1352 ] final  144.62 input    0.00 | X-H torsion
[ 20697 1446 1445 1444 ] final  -26.87 input    0.00 | X-H torsion
[ 20700 1554 1553 1552 ] final  -92.83 input    0.00 | X-H torsion
[ 20703 1674 1673 1672 ] final  -91.83 input   -0.00 | X-H torsion
[ 20706 1794 1793 1792 ] final -121.45 input    0.00 | X-H torsion
[ 20709 1890 1889 1888 ] final   67.21 input    0.00 | X-H torsion
[ 20716 1985 1984 1983 ] final -118.60 input    0.00 | X-H torsion
[ 20719 2061 2060 2059 ] final  132.45 input    0.00 | X-H torsion
[ 20723 2358 2357 2356 ] final -110.88 input    0.00 | X-H torsion
[ 20725 14569 14568 14567 ] final  148.89 input   -0.00 | X-H torsion
[ 20728 14949 14948 14947 ] final  -17.69 input    0.00 | X-H torsion
[ 20731 15101 15100 15099 ] final -126.08 input   -0.00 | X-H torsion
[ 20742 14685 14684 14683 ] final  -79.43 input   -0.00 | X-H torsion
[ 20745 6649 6648 6647 ] final -124.87 input    0.00 | X-H torsion
[ 20747 14797 14796 14795 ] final  -86.85 input    0.00 | X-H torsion
[ 20749 15209 15208 15207 ] final   16.06 input    0.00 | X-H torsion
[ 20751 15345 15344 15343 ] final  -73.69 input    0.00 | X-H torsion

> <Gold.Protein.ActiveResidues>
 ALA18   ASN19   PRO20   GLN21   ALA22   GLU23   GLY24   GLN25   LEU26   GLN27  
 LEU63   ILE136  PRO139  ASP140  TYR141  LEU142  ASP143  PHE144  ALA145  GLU146 
 SER147  VAL150 

> <Gold.Protein.RotatedAtoms>
  -10.0733   37.3669  -31.1351 H   0  0  0  0  0  0  0  0  0  0  0  0  # atno 1374 bound_to 1351
   -5.5436   38.0540  -31.0540 H   0  0  0  0  0  0  0  0  0  0  0  0  # atno 1479 bound_to 1443
   -3.0675   32.7759  -33.8256 H   0  0  0  0  0  0  0  0  0  0  0  0  # atno 1715 bound_to 1671
   -0.5530   35.2433  -33.0204 H   0  0  0  0  0  0  0  0  0  0  0  0  # atno 1815 bound_to 1791
    0.7764   35.3696  -29.0481 H   0  0  0  0  0  0  0  0  0  0  0  0  # atno 1925 bound_to 1887
    1.3353   33.3268  -26.3456 H   0  0  0  0  0  0  0  0  0  0  0  0  # atno 2001 bound_to 1982
    0.2742   36.3553  -24.8027 H   0  0  0  0  0  0  0  0  0  0  0  0  # atno 2100 bound_to 2058
   -2.2265   38.9187  -26.4916 H   0  0  0  0  0  0  0  0  0  0  0  0  # atno 2231 bound_to 2190
   -3.7678   39.2326  -28.8673 H   0  0  0  0  0  0  0  0  0  0  0  0  # atno 2399 bound_to 2355
   -0.9682   34.4834  -19.7698 H   0  0  0  0  0  0  0  0  0  0  0  0  # atno 14730 bound_to 14682
   -4.5064   33.1583  -21.6529 H   0  0  0  0  0  0  0  0  0  0  0  0  # atno 15022 bound_to 14946
   -7.1479   31.1592  -23.7311 H   0  0  0  0  0  0  0  0  0  0  0  0  # atno 15146 bound_to 15098
   -7.8432   29.5725  -27.9421 H   0  0  0  0  0  0  0  0  0  0  0  0  # atno 15286 bound_to 15206
   -8.4247   30.7104  -29.7913 H   0  0  0  0  0  0  0  0  0  0  0  0  # atno 15382 bound_to 15342
   -8.6933   32.1206  -32.0988 H   0  0  0  0  0  0  0  0  0  0  0  0  # atno 15498 bound_to 15438
  -11.3569   31.3492  -32.8955 H   0  0  0  0  0  0  0  0  0  0  0  0  # atno 15590 bound_to 15546
   -7.3805   36.4534  -33.6135 LP  0  0  0  0  0  0  0  0  0  0  0  0  # atno 20694 bound_to 1354
   -8.5000   35.9025  -32.4122 LP  0  0  0  0  0  0  0  0  0  0  0  0  # atno 20695 bound_to 1354
   -6.8889   37.3597  -31.9350 LP  0  0  0  0  0  0  0  0  0  0  0  0  # atno 20696 bound_to 1443
   -3.1641   36.2178  -31.0265 LP  0  0  0  0  0  0  0  0  0  0  0  0  # atno 20697 bound_to 1446
   -3.8091   34.6508  -30.6680 LP  0  0  0  0  0  0  0  0  0  0  0  0  # atno 20698 bound_to 1446
   -1.9629   32.3315  -31.0961 LP  0  0  0  0  0  0  0  0  0  0  0  0  # atno 20700 bound_to 1554
   -2.4426   31.0621  -32.1725 LP  0  0  0  0  0  0  0  0  0  0  0  0  # atno 20701 bound_to 1554
   -2.7521   34.3846  -33.2223 LP  0  0  0  0  0  0  0  0  0  0  0  0  # atno 20702 bound_to 1671
    1.3185   32.9734  -32.0608 LP  0  0  0  0  0  0  0  0  0  0  0  0  # atno 20703 bound_to 1674
    1.7556   34.1499  -33.2545 LP  0  0  0  0  0  0  0  0  0  0  0  0  # atno 20704 bound_to 1674
   -1.3382   34.2377  -31.8283 LP  0  0  0  0  0  0  0  0  0  0  0  0  # atno 20705 bound_to 1791
   -0.4731   33.3549  -28.8558 LP  0  0  0  0  0  0  0  0  0  0  0  0  # atno 20706 bound_to 1794
   -0.2671   32.9100  -30.5170 LP  0  0  0  0  0  0  0  0  0  0  0  0  # atno 20707 bound_to 1794
    2.0583   35.0400  -30.1943 LP  0  0  0  0  0  0  0  0  0  0  0  0  # atno 20708 bound_to 1887
    3.1001   36.3488  -27.0659 LP  0  0  0  0  0  0  0  0  0  0  0  0  # atno 20709 bound_to 1890
    3.6589   35.2393  -25.8590 LP  0  0  0  0  0  0  0  0  0  0  0  0  # atno 20710 bound_to 1890
    1.0399   34.9348  -26.9661 LP  0  0  0  0  0  0  0  0  0  0  0  0  # atno 20715 bound_to 1982
    0.7781   37.4909  -23.2525 LP  0  0  0  0  0  0  0  0  0  0  0  0  # atno 20716 bound_to 1985
    2.2209   37.1883  -24.1618 LP  0  0  0  0  0  0  0  0  0  0  0  0  # atno 20717 bound_to 1985
   -0.7422   36.0318  -26.1879 LP  0  0  0  0  0  0  0  0  0  0  0  0  # atno 20718 bound_to 2058
   -3.5566   36.8136  -26.7636 LP  0  0  0  0  0  0  0  0  0  0  0  0  # atno 20719 bound_to 2061
   -2.0263   36.8312  -27.5748 LP  0  0  0  0  0  0  0  0  0  0  0  0  # atno 20720 bound_to 2061
   -2.8023   39.2754  -24.8751 LP  0  0  0  0  0  0  0  0  0  0  0  0  # atno 20721 bound_to 2190
   -3.9772   40.5292  -27.7082 LP  0  0  0  0  0  0  0  0  0  0  0  0  # atno 20722 bound_to 2355
   -5.2509   39.6683  -31.9552 LP  0  0  0  0  0  0  0  0  0  0  0  0  # atno 20723 bound_to 2358
   -5.7794   39.3537  -30.3360 LP  0  0  0  0  0  0  0  0  0  0  0  0  # atno 20724 bound_to 2358
   -1.6835   33.1951  -22.8998 LP  0  0  0  0  0  0  0  0  0  0  0  0  # atno 20725 bound_to 14569
   -3.1810   34.0568  -23.0214 LP  0  0  0  0  0  0  0  0  0  0  0  0  # atno 20726 bound_to 14569
   -5.4037   31.6970  -21.3203 LP  0  0  0  0  0  0  0  0  0  0  0  0  # atno 20727 bound_to 14946
   -4.1462   31.3520  -23.8498 LP  0  0  0  0  0  0  0  0  0  0  0  0  # atno 20728 bound_to 14949
   -5.0563   30.1042  -24.6338 LP  0  0  0  0  0  0  0  0  0  0  0  0  # atno 20729 bound_to 14949
   -7.1344   32.3727  -24.9902 LP  0  0  0  0  0  0  0  0  0  0  0  0  # atno 20730 bound_to 15098
  -10.2786   31.2196  -26.0409 LP  0  0  0  0  0  0  0  0  0  0  0  0  # atno 20731 bound_to 15101
   -9.0037   32.3763  -26.2326 LP  0  0  0  0  0  0  0  0  0  0  0  0  # atno 20732 bound_to 15101
   -8.7805   29.6924  -26.4666 LP  0  0  0  0  0  0  0  0  0  0  0  0  # atno 20737 bound_to 15206
   -9.5503   31.3963  -28.6475 LP  0  0  0  0  0  0  0  0  0  0  0  0  # atno 20738 bound_to 15342
   -2.0151   34.2671  -21.1494 LP  0  0  0  0  0  0  0  0  0  0  0  0  # atno 20741 bound_to 14682
   -2.1272   30.3988  -22.1834 LP  0  0  0  0  0  0  0  0  0  0  0  0  # atno 20742 bound_to 14685
   -1.9148   29.6336  -20.6442 LP  0  0  0  0  0  0  0  0  0  0  0  0  # atno 20743 bound_to 14685
   -9.6887   39.0037  -31.6102 LP  0  0  0  0  0  0  0  0  0  0  0  0  # atno 20744 bound_to 1351
   -8.9436   31.6355  -23.1064 LP  0  0  0  0  0  0  0  0  0  0  0  0  # atno 20745 bound_to 6649
   -9.3621   33.3152  -23.1658 LP  0  0  0  0  0  0  0  0  0  0  0  0  # atno 20746 bound_to 6649
   -6.2753   29.8581  -21.8824 LP  0  0  0  0  0  0  0  0  0  0  0  0  # atno 20747 bound_to 14797
   -7.2746   30.8352  -20.8594 LP  0  0  0  0  0  0  0  0  0  0  0  0  # atno 20748 bound_to 14797
  -12.0643   30.8654  -28.9809 LP  0  0  0  0  0  0  0  0  0  0  0  0  # atno 20749 bound_to 15209
  -11.3563   31.8776  -30.1951 LP  0  0  0  0  0  0  0  0  0  0  0  0  # atno 20750 bound_to 15209
  -11.3555   33.1666  -32.0116 LP  0  0  0  0  0  0  0  0  0  0  0  0  # atno 20751 bound_to 15345
  -10.0703   33.7131  -33.0360 LP  0  0  0  0  0  0  0  0  0  0  0  0  # atno 20752 bound_to 15345
   -9.3800   30.6167  -31.5332 LP  0  0  0  0  0  0  0  0  0  0  0  0  # atno 20753 bound_to 15438

> <Gold.Score>
     Fitness  S(hb_ext) S(vdw_ext)  S(hb_int)    S(int)      intcor
     34.94       0.84      25.36       0.00      -0.78      -0.77

> <Gold.Goldscore.Fitness>
34.9367

> <Gold.Goldscore.Internal.Vdw>
-1.1104

> <Gold.Goldscore.Internal.Torsion>
-0.4372

> <Gold.Goldscore.External.Vdw>
25.3621

> <Gold.Goldscore.Internal.HBond>
0.0000

> <Gold.Goldscore.External.HBond>
0.8429

> <Gold.Goldscore.Internal.Correction>
-0.7686

> <Gold.Goldscore.Hbonds>
donor molecule, donor type, donor heavy atom, donor atom, acceptor molecule, acceptor atom, score
      L1  H    10    23       P1  1794  0.42

> <Gold.Goldscore.Internal.Vdw.Weighted>
-1.1104

> <Gold.Goldscore.Internal.Torsion.Weighted>
-0.4372

> <Gold.Goldscore.External.Vdw.Weighted>
34.8728

> <Gold.Goldscore.Internal.HBond.Weighted>
0.0000

> <Gold.Goldscore.External.HBond.Weighted>
0.8429

> <Gold.Goldscore.Internal.Correction.Weighted>
-0.7686

> <Gold.Rescore>
     Score     S(PLP)   S(hbond)     S(cho)   S(metal)  DE(clash)   DE(tors)     intcor
     13.63     -10.77       0.99       0.00       0.00       0.00       0.06       ----

> <Gold.PLP.Fitness>
13.6276

> <Gold.PLP.PLP>
-10.7677

> <Gold.PLP.part.hbond>
-2.9642

> <Gold.PLP.part.metal>
0.0000

> <Gold.PLP.part.buried>
7.3589

> <Gold.PLP.part.nonpolar>
-19.1432

> <Gold.PLP.part.repulsive>
5.4200

> <Gold.PLP.ligand.clash>
0.0000

> <Gold.PLP.ligand.torsion>
0.0580

> <Gold.PLP.Chemscore.Hbond>
0.9920

> <Gold.PLP.Chemscore.CHOScore>
0.0000

> <Gold.PLP.Chemscore.Metal>
0.0000

> <Gold.Chemscore.Hbonds>
donor molecule, donor type, donor heavy atom, donor atom, acceptor molecule, acceptor atom, score
      L1  H    10    23       P1  1794  1.00

> <Gold.PLP.Chemscore.Internal.Correction>
   9.000000E+99

