#       Name:                CT1002167954
#       Creating user name   hitesit
#       Creation time:       Sun Apr 16 02:23:46 2023


#       File generated by GOLD software.
#

@<TRIPOS>MOLECULE
CT1002167954|ligand_prepared|mol2|1|dock3
    29    30     1
SMALL
NO_CHARGES


@<TRIPOS>ATOM
      1 C1          -3.5786  32.0175 -27.9527 C.3            1 RES1               0.0000
      2 C2          -3.1810  31.1912 -26.7126 C.ar           1 RES1               0.0000
      3 C3          -2.9282  31.3320 -29.1508 C.2            1 RES1               0.0000
      4 C4          -5.1028  32.0229 -27.9909 C.2            1 RES1               0.0000
      5 C5          -3.0966  33.4862 -27.9058 C.3            1 RES1               0.0000
      6 C6          -3.4433  29.8256 -26.6570 C.ar           1 RES1               0.0000
      7 C7          -2.5500  31.7790 -25.6194 C.ar           1 RES1               0.0000
      8 N8          -3.7371  30.6220 -29.9884 N.am           1 RES1               0.0000
      9 O9          -1.7184  31.3808 -29.3358 O.2            1 RES1               0.0000
     10 N10         -5.7212  31.3864 -29.0351 N.am           1 RES1               0.0000
     11 O11         -5.7741  32.5584 -27.1175 O.2            1 RES1               0.0000
     12 C12         -3.5112  34.3065 -29.1171 C.3            1 RES1               0.0000
     13 C13         -3.0851  29.0742 -25.5501 C.ar           1 RES1               0.0000
     14 C14         -2.1929  31.0257 -24.5133 C.ar           1 RES1               0.0000
     15 C15         -5.1080  30.6599 -30.0191 C.2            1 RES1               0.0000
     16 C16         -2.4594  29.6735 -24.4778 C.ar           1 RES1               0.0000
     17 O17         -5.7357  30.0701 -30.8939 O.2            1 RES1               0.0000
     18 H18         -3.4996  33.9613 -27.0029 H              1 RES1               0.0000
     19 H19         -2.0023  33.4964 -27.8302 H              1 RES1               0.0000
     20 H20         -3.9372  29.3371 -27.4904 H              1 RES1               0.0000
     21 H21         -2.3314  32.8414 -25.6249 H              1 RES1               0.0000
     22 H22         -3.2805  30.0059 -30.6534 H              1 RES1               0.0000
     23 H23         -6.7323  31.4612 -29.0833 H              1 RES1               0.0000
     24 H24         -3.1476  35.3285 -29.0336 H              1 RES1               0.0000
     25 H25         -3.1065  33.8765 -30.0310 H              1 RES1               0.0000
     26 H26         -4.5949  34.3387 -29.2086 H              1 RES1               0.0000
     27 H27         -3.2984  28.0106 -25.5265 H              1 RES1               0.0000
     28 H28         -1.7011  31.5016 -23.6714 H              1 RES1               0.0000
     29 H29         -2.1785  29.0845 -23.6109 H              1 RES1               0.0000
@<TRIPOS>BOND
    1    1    2 1     
    2    1    3 1     
    3    1    4 1     
    4    1    5 1     
    5    2    6 ar    
    6    2    7 ar    
    7    3    8 1     
    8    3    9 2     
    9    4   10 1     
   10    4   11 2     
   11    5   12 1     
   12    5   18 1     
   13    5   19 1     
   14    6   13 ar    
   15    6   20 1     
   16    7   14 ar    
   17    7   21 1     
   18    8   15 1     
   19    8   22 1     
   20   10   15 1     
   21   10   23 1     
   22   12   24 1     
   23   12   25 1     
   24   12   26 1     
   25   13   16 ar    
   26   13   27 1     
   27   14   16 ar    
   28   14   28 1     
   29   15   17 2     
   30   16   29 1     
@<TRIPOS>SUBSTRUCTURE
      1 RES1           1
@<TRIPOS>SET
DONOR_HYDROGENS      STATIC     ATOMS    <user>   **** ""
2 22 23
ATOM$RED        STATIC     ATOMS    COLORGROUP SYSTEM
2 22 23
@<TRIPOS>COMMENT
> <Gold.Version>
2022.3.0

> <Gold.Id.Protein>
unknown|7ta6_clean|pdb

> <Gold.Protein.RotatedTorsions>
[ 1479 1443 1444 1445 ] final    6.51 input   95.13 | X-H torsion
[ 1715 1671 1672 1673 ] final  179.19 input  105.58 | X-H torsion
[ 1815 1791 1792 1793 ] final   69.82 input  118.53 | X-H torsion
[ 1925 1887 1888 1889 ] final  -24.13 input   64.46 | X-H torsion
[ 2001 1982 1983 1984 ] final   -1.50 input -106.71 | X-H torsion
[ 2100 2058 2059 2060 ] final -152.45 input   13.45 | X-H torsion
[ 2231 2190 2191 2192 ] final  -96.24 input   70.14 | X-H torsion
[ 2399 2355 2356 2357 ] final  -18.19 input   76.48 | X-H torsion
[ 15022 14946 14947 14948 ] final -123.75 input  119.61 | X-H torsion
[ 15146 15098 15099 15100 ] final -108.31 input   10.36 | X-H torsion
[ 15286 15206 15207 15208 ] final -159.76 input -115.44 | X-H torsion
[ 15382 15342 15343 15344 ] final  -75.11 input  111.11 | X-H torsion
[ 14730 14682 14683 14684 ] final  -63.79 input  117.17 | X-H torsion
[ 1374 1351 1352 1353 ] final   30.33 input  113.38 | X-H torsion
[ 15498 15438 15439 15440 ] final  154.51 input  116.04 | X-H torsion
[ 15590 15546 15547 15548 ] final  -51.05 input  104.39 | X-H torsion
[ 20694 1354 1353 1352 ] final -164.78 input    0.00 | X-H torsion
[ 20697 1446 1445 1444 ] final  143.00 input    0.00 | X-H torsion
[ 20700 1554 1553 1552 ] final  151.68 input    0.00 | X-H torsion
[ 20703 1674 1673 1672 ] final -104.10 input   -0.00 | X-H torsion
[ 20706 1794 1793 1792 ] final   28.74 input    0.00 | X-H torsion
[ 20709 1890 1889 1888 ] final  143.74 input    0.00 | X-H torsion
[ 20716 1985 1984 1983 ] final  164.74 input    0.00 | X-H torsion
[ 20719 2061 2060 2059 ] final  122.95 input    0.00 | X-H torsion
[ 20723 2358 2357 2356 ] final  -28.67 input    0.00 | X-H torsion
[ 20725 14569 14568 14567 ] final -126.91 input   -0.00 | X-H torsion
[ 20728 14949 14948 14947 ] final  149.80 input    0.00 | X-H torsion
[ 20731 15101 15100 15099 ] final  171.07 input   -0.00 | X-H torsion
[ 20742 14685 14684 14683 ] final  -79.32 input   -0.00 | X-H torsion
[ 20745 6649 6648 6647 ] final -114.97 input    0.00 | X-H torsion
[ 20747 14797 14796 14795 ] final  139.55 input    0.00 | X-H torsion
[ 20749 15209 15208 15207 ] final  -23.93 input    0.00 | X-H torsion
[ 20751 15345 15344 15343 ] final -132.96 input    0.00 | X-H torsion

> <Gold.Protein.ActiveResidues>
 ALA18   ASN19   PRO20   GLN21   ALA22   GLU23   GLY24   GLN25   LEU26   GLN27  
 LEU63   ILE136  PRO139  ASP140  TYR141  LEU142  ASP143  PHE144  ALA145  GLU146 
 SER147  VAL150 

> <Gold.Protein.RotatedAtoms>
   -9.8203   37.4637  -31.8682 H   0  0  0  0  0  0  0  0  0  0  0  0  # atno 1374 bound_to 1351
   -6.0776   37.0227  -30.9423 H   0  0  0  0  0  0  0  0  0  0  0  0  # atno 1479 bound_to 1443
   -3.0980   33.1269  -34.2486 H   0  0  0  0  0  0  0  0  0  0  0  0  # atno 1715 bound_to 1671
   -1.6102   34.5947  -31.8521 H   0  0  0  0  0  0  0  0  0  0  0  0  # atno 1815 bound_to 1791
    0.9607   35.5749  -28.9714 H   0  0  0  0  0  0  0  0  0  0  0  0  # atno 1925 bound_to 1887
    0.9502   34.9395  -26.9654 H   0  0  0  0  0  0  0  0  0  0  0  0  # atno 2001 bound_to 1982
    0.2244   36.3363  -24.7648 H   0  0  0  0  0  0  0  0  0  0  0  0  # atno 2100 bound_to 2058
   -2.4056   38.4467  -26.2658 H   0  0  0  0  0  0  0  0  0  0  0  0  # atno 2231 bound_to 2190
   -4.7466   39.8233  -28.4510 H   0  0  0  0  0  0  0  0  0  0  0  0  # atno 2399 bound_to 2355
   -1.8897   34.3171  -21.2497 H   0  0  0  0  0  0  0  0  0  0  0  0  # atno 14730 bound_to 14682
   -5.6475   32.5069  -20.9392 H   0  0  0  0  0  0  0  0  0  0  0  0  # atno 15022 bound_to 14946
   -6.5053   32.1749  -24.8392 H   0  0  0  0  0  0  0  0  0  0  0  0  # atno 15146 bound_to 15098
   -8.3608   28.7453  -27.1084 H   0  0  0  0  0  0  0  0  0  0  0  0  # atno 15286 bound_to 15206
   -9.8672   31.0383  -29.1324 H   0  0  0  0  0  0  0  0  0  0  0  0  # atno 15382 bound_to 15342
   -8.2266   31.0477  -31.9548 H   0  0  0  0  0  0  0  0  0  0  0  0  # atno 15498 bound_to 15438
  -11.2729   30.9565  -33.4417 H   0  0  0  0  0  0  0  0  0  0  0  0  # atno 15590 bound_to 15546
   -7.1588   35.8671  -33.2197 LP  0  0  0  0  0  0  0  0  0  0  0  0  # atno 20694 bound_to 1354
   -8.7216   36.4888  -32.8059 LP  0  0  0  0  0  0  0  0  0  0  0  0  # atno 20695 bound_to 1354
   -6.3747   38.3528  -32.0426 LP  0  0  0  0  0  0  0  0  0  0  0  0  # atno 20696 bound_to 1443
   -3.9126   34.7272  -30.5853 LP  0  0  0  0  0  0  0  0  0  0  0  0  # atno 20697 bound_to 1446
   -3.0607   36.1414  -31.1091 LP  0  0  0  0  0  0  0  0  0  0  0  0  # atno 20698 bound_to 1446
   -1.6536   31.5311  -32.2831 LP  0  0  0  0  0  0  0  0  0  0  0  0  # atno 20700 bound_to 1554
   -2.7518   31.8626  -30.9854 LP  0  0  0  0  0  0  0  0  0  0  0  0  # atno 20701 bound_to 1554
   -2.7222   34.0410  -32.8082 LP  0  0  0  0  0  0  0  0  0  0  0  0  # atno 20702 bound_to 1671
    1.3457   33.1129  -31.9421 LP  0  0  0  0  0  0  0  0  0  0  0  0  # atno 20703 bound_to 1674
    1.7283   34.0104  -33.3732 LP  0  0  0  0  0  0  0  0  0  0  0  0  # atno 20704 bound_to 1674
   -0.3014   34.8737  -32.9740 LP  0  0  0  0  0  0  0  0  0  0  0  0  # atno 20705 bound_to 1791
   -0.6458   33.1443  -30.5072 LP  0  0  0  0  0  0  0  0  0  0  0  0  # atno 20706 bound_to 1794
   -0.0944   33.1206  -28.8655 LP  0  0  0  0  0  0  0  0  0  0  0  0  # atno 20707 bound_to 1794
    1.8803   34.8416  -30.2684 LP  0  0  0  0  0  0  0  0  0  0  0  0  # atno 20708 bound_to 1887
    2.7732   36.2537  -26.0488 LP  0  0  0  0  0  0  0  0  0  0  0  0  # atno 20709 bound_to 1890
    3.9858   35.3344  -26.8761 LP  0  0  0  0  0  0  0  0  0  0  0  0  # atno 20710 bound_to 1890
    1.4148   33.3650  -26.3628 LP  0  0  0  0  0  0  0  0  0  0  0  0  # atno 20715 bound_to 1982
    1.1462   38.0183  -24.1129 LP  0  0  0  0  0  0  0  0  0  0  0  0  # atno 20716 bound_to 1985
    1.8528   36.6609  -23.3015 LP  0  0  0  0  0  0  0  0  0  0  0  0  # atno 20717 bound_to 1985
   -0.6937   36.0503  -26.2249 LP  0  0  0  0  0  0  0  0  0  0  0  0  # atno 20718 bound_to 2058
   -3.4959   36.7168  -26.6767 LP  0  0  0  0  0  0  0  0  0  0  0  0  # atno 20719 bound_to 2061
   -2.0870   36.9280  -27.6617 LP  0  0  0  0  0  0  0  0  0  0  0  0  # atno 20720 bound_to 2061
   -2.6303   39.7286  -25.0920 LP  0  0  0  0  0  0  0  0  0  0  0  0  # atno 20721 bound_to 2190
   -3.0339   39.9599  -28.1094 LP  0  0  0  0  0  0  0  0  0  0  0  0  # atno 20722 bound_to 2355
   -4.7161   39.1847  -31.0738 LP  0  0  0  0  0  0  0  0  0  0  0  0  # atno 20723 bound_to 2358
   -6.3141   39.8373  -31.2174 LP  0  0  0  0  0  0  0  0  0  0  0  0  # atno 20724 bound_to 2358
   -2.7520   32.9577  -22.5121 LP  0  0  0  0  0  0  0  0  0  0  0  0  # atno 20725 bound_to 14569
   -2.1125   34.2942  -23.4091 LP  0  0  0  0  0  0  0  0  0  0  0  0  # atno 20726 bound_to 14569
   -4.2857   32.3352  -22.0195 LP  0  0  0  0  0  0  0  0  0  0  0  0  # atno 20727 bound_to 14946
   -5.0737   30.0355  -24.4589 LP  0  0  0  0  0  0  0  0  0  0  0  0  # atno 20728 bound_to 14949
   -4.1289   31.4207  -24.0248 LP  0  0  0  0  0  0  0  0  0  0  0  0  # atno 20729 bound_to 14949
   -7.7596   31.3844  -23.9120 LP  0  0  0  0  0  0  0  0  0  0  0  0  # atno 20730 bound_to 15098
  -10.1014   31.5965  -26.8422 LP  0  0  0  0  0  0  0  0  0  0  0  0  # atno 20731 bound_to 15101
   -9.1809   31.9994  -25.4314 LP  0  0  0  0  0  0  0  0  0  0  0  0  # atno 20732 bound_to 15101
   -8.2825   30.4883  -27.2688 LP  0  0  0  0  0  0  0  0  0  0  0  0  # atno 20737 bound_to 15206
   -8.1301   31.0734  -29.2962 LP  0  0  0  0  0  0  0  0  0  0  0  0  # atno 20738 bound_to 15342
   -1.1083   34.4307  -19.6932 LP  0  0  0  0  0  0  0  0  0  0  0  0  # atno 20741 bound_to 14682
   -2.1255   30.3990  -22.1836 LP  0  0  0  0  0  0  0  0  0  0  0  0  # atno 20742 bound_to 14685
   -1.9165   29.6334  -20.6441 LP  0  0  0  0  0  0  0  0  0  0  0  0  # atno 20743 bound_to 14685
   -9.9362   38.9090  -30.8932 LP  0  0  0  0  0  0  0  0  0  0  0  0  # atno 20744 bound_to 1351
   -9.0180   31.6257  -23.2356 LP  0  0  0  0  0  0  0  0  0  0  0  0  # atno 20745 bound_to 6649
   -9.2878   33.3250  -23.0366 LP  0  0  0  0  0  0  0  0  0  0  0  0  # atno 20746 bound_to 6649
   -7.3008   31.0193  -21.5158 LP  0  0  0  0  0  0  0  0  0  0  0  0  # atno 20747 bound_to 14797
   -6.2491   29.6740  -21.2260 LP  0  0  0  0  0  0  0  0  0  0  0  0  # atno 20748 bound_to 14797
  -12.0158   30.5671  -29.4902 LP  0  0  0  0  0  0  0  0  0  0  0  0  # atno 20749 bound_to 15209
  -11.4048   32.1759  -29.6858 LP  0  0  0  0  0  0  0  0  0  0  0  0  # atno 20750 bound_to 15209
  -11.2038   32.7639  -32.7522 LP  0  0  0  0  0  0  0  0  0  0  0  0  # atno 20751 bound_to 15345
  -10.2220   34.1157  -32.2954 LP  0  0  0  0  0  0  0  0  0  0  0  0  # atno 20752 bound_to 15345
   -9.8365   31.6660  -31.6741 LP  0  0  0  0  0  0  0  0  0  0  0  0  # atno 20753 bound_to 15438

> <Gold.Score>
     Fitness  S(hb_ext) S(vdw_ext)  S(hb_int)    S(int)      intcor
     41.42       6.48      25.70       0.00      -0.40      -0.77

> <Gold.Goldscore.Fitness>
41.4161

> <Gold.Goldscore.Internal.Vdw>
-0.8000

> <Gold.Goldscore.Internal.Torsion>
-0.3682

> <Gold.Goldscore.External.Vdw>
25.6964

> <Gold.Goldscore.Internal.HBond>
0.0000

> <Gold.Goldscore.External.HBond>
6.4832

> <Gold.Goldscore.Internal.Correction>
-0.7686

> <Gold.Goldscore.Hbonds>
donor molecule, donor type, donor heavy atom, donor atom, acceptor molecule, acceptor atom, score
      P1  H 15438 15498       L1    17  0.39
      L1  H    10    23       P1 15342  0.95

> <Gold.Goldscore.Internal.Vdw.Weighted>
-0.8000

> <Gold.Goldscore.Internal.Torsion.Weighted>
-0.3682

> <Gold.Goldscore.External.Vdw.Weighted>
35.3325

> <Gold.Goldscore.Internal.HBond.Weighted>
0.0000

> <Gold.Goldscore.External.HBond.Weighted>
6.4832

> <Gold.Goldscore.Internal.Correction.Weighted>
-0.7686

> <Gold.Rescore>
     Score     S(PLP)   S(hbond)     S(cho)   S(metal)  DE(clash)   DE(tors)     intcor
     13.39     -13.87       0.05       0.00       0.00       0.00       0.32       ----

> <Gold.PLP.Fitness>
13.3930

> <Gold.PLP.PLP>
-13.8665

> <Gold.PLP.part.hbond>
-2.0000

> <Gold.PLP.part.metal>
0.0000

> <Gold.PLP.part.buried>
7.8702

> <Gold.PLP.part.nonpolar>
-25.5223

> <Gold.PLP.part.repulsive>
6.9478

> <Gold.PLP.ligand.clash>
0.0000

> <Gold.PLP.ligand.torsion>
0.3179

> <Gold.PLP.Chemscore.Hbond>
0.0541

> <Gold.PLP.Chemscore.CHOScore>
0.0000

> <Gold.PLP.Chemscore.Metal>
0.0000

> <Gold.Chemscore.Hbonds>
donor molecule, donor type, donor heavy atom, donor atom, acceptor molecule, acceptor atom, score
      L1  H    10    23       P1 15342  0.42
      P1  H 15098 15146       L1    11  0.06

> <Gold.PLP.Chemscore.Internal.Correction>
   9.000000E+99

