#       Name:                CT1002167954
#       Creating user name   hitesit
#       Creation time:       Sun Apr 16 20:27:20 2023


#       File generated by GOLD software.
#

@<TRIPOS>MOLECULE
CT1002167954|ligand_prepared|mol2|1|dock10
    29    30     1
SMALL
NO_CHARGES


@<TRIPOS>ATOM
      1 C1         227.8623  50.7041  13.5873 C.3            1 RES1               0.0000
      2 C2         226.9668  51.9223  13.2828 C.ar           1 RES1               0.0000
      3 C3         226.9305  49.4992  13.6772 C.2            1 RES1               0.0000
      4 C4         228.8748  50.6240  12.4502 C.2            1 RES1               0.0000
      5 C5         228.6446  50.8204  14.9162 C.3            1 RES1               0.0000
      6 C6         226.8751  52.4288  11.9898 C.ar           1 RES1               0.0000
      7 C7         226.2256  52.5474  14.2820 C.ar           1 RES1               0.0000
      8 N8         226.9416  48.6131  12.6406 N.am           1 RES1               0.0000
      9 O9         226.1689  49.3497  14.6248 O.2            1 RES1               0.0000
     10 N10        228.8172  49.5397  11.6143 N.am           1 RES1               0.0000
     11 O11        229.7113  51.4984  12.2604 O.2            1 RES1               0.0000
     12 C12        229.3250  52.1661  15.1115 C.3            1 RES1               0.0000
     13 C13        226.0694  53.5190  11.7054 C.ar           1 RES1               0.0000
     14 C14        225.4207  53.6376  13.9955 C.ar           1 RES1               0.0000
     15 C15        227.8770  48.5460  11.6394 C.2            1 RES1               0.0000
     16 C16        225.3415  54.1238  12.7078 C.ar           1 RES1               0.0000
     17 O17        227.8589  47.6323  10.8197 O.2            1 RES1               0.0000
     18 H18        227.9519  50.6507  15.7497 H              1 RES1               0.0000
     19 H19        229.4065  50.0317  14.9476 H              1 RES1               0.0000
     20 H20        227.4426  51.9675  11.1884 H              1 RES1               0.0000
     21 H21        226.2734  52.1828  15.3025 H              1 RES1               0.0000
     22 H22        226.1845  47.9379  12.6066 H              1 RES1               0.0000
     23 H23        229.5426  49.4665  10.9080 H              1 RES1               0.0000
     24 H24        229.8594  52.1943  16.0587 H              1 RES1               0.0000
     25 H25        230.0397  52.3564  14.3134 H              1 RES1               0.0000
     26 H26        228.5937  52.9717  15.1108 H              1 RES1               0.0000
     27 H27        226.0116  53.8986  10.6906 H              1 RES1               0.0000
     28 H28        224.8500  54.1109  14.7877 H              1 RES1               0.0000
     29 H29        224.7101  54.9775  12.4847 H              1 RES1               0.0000
@<TRIPOS>BOND
    1    1    2 1     
    2    1    3 1     
    3    1    4 1     
    4    1    5 1     
    5    2    6 ar    
    6    2    7 ar    
    7    3    8 1     
    8    3    9 2     
    9    4   10 1     
   10    4   11 2     
   11    5   12 1     
   12    5   18 1     
   13    5   19 1     
   14    6   13 ar    
   15    6   20 1     
   16    7   14 ar    
   17    7   21 1     
   18    8   15 1     
   19    8   22 1     
   20   10   15 1     
   21   10   23 1     
   22   12   24 1     
   23   12   25 1     
   24   12   26 1     
   25   13   16 ar    
   26   13   27 1     
   27   14   16 ar    
   28   14   28 1     
   29   15   17 2     
   30   16   29 1     
@<TRIPOS>SUBSTRUCTURE
      1 RES1           1
@<TRIPOS>SET
DONOR_HYDROGENS      STATIC     ATOMS    <user>   **** ""
2 22 23
ATOM$RED        STATIC     ATOMS    COLORGROUP SYSTEM
2 22 23
@<TRIPOS>COMMENT
> <Gold.Version>
2022.3.0

> <Gold.Id.Protein>
unknown|4d1n_clean|pdb

> <Gold.Protein.RotatedTorsions>
[ 6581 6565 6566 6567 ] final   11.15 input  113.40 | X-H torsion
[ 6673 6649 6650 6651 ] final   -4.23 input  128.31 | X-H torsion
[ 8033 8017 8018 8019 ] final   26.85 input   38.97 | X-H torsion
[ 8113 8095 8096 8097 ] final  133.08 input   94.22 | X-H torsion
[ 8173 8159 8160 8161 ] final  -25.37 input   69.09 | X-H torsion
[ 8253 8231 8232 8233 ] final  -32.73 input   84.65 | X-H torsion
[ 9561 9532 9531 9529 ] final -156.59 input   60.02 | X-H torsion
[ 8321 8305 8306 8307 ] final  102.88 input   94.69 | X-H torsion
[ 10203 10177 10178 10179 ] final  153.69 input   41.54 | X-H torsion
[ 7949 7931 7932 7933 ] final  -93.89 input   80.35 | X-H torsion
[ 7893 7881 7882 7883 ] final  138.85 input   97.23 | X-H torsion
[ 7897 7886 7885 7882 ] final  -51.43 input   59.98 | X-H torsion
[ 6813 6795 6796 6797 ] final -119.35 input  114.70 | X-H torsion
[ 27193 6328 6327 6326 ] final  123.12 input    0.00 | X-H torsion
[ 27196 6568 6567 6566 ] final -127.32 input   -0.00 | X-H torsion
[ 27199 7884 7883 7882 ] final   33.09 input   -0.00 | X-H torsion
[ 27202 8020 8019 8018 ] final   91.57 input   -0.00 | X-H torsion
[ 27205 8098 8097 8096 ] final  149.55 input   -0.00 | X-H torsion
[ 27208 8162 8161 8160 ] final -157.50 input    0.00 | X-H torsion
[ 27213 10092 10091 10090 ] final  108.07 input    0.00 | X-H torsion
[ 27217 10180 10179 10178 ] final  -39.51 input    0.00 | X-H torsion
[ 27220 7934 7933 7932 ] final  126.16 input    0.00 | X-H torsion
[ 27222 7726 7725 7724 ] final  -49.90 input    0.00 | X-H torsion
[ 27224 7804 7803 7802 ] final -177.75 input    0.00 | X-H torsion

> <Gold.Protein.ActiveResidues>
 ASP403  THR404  LEU406  ILE407  TYR408  ALA410  LYS411  TRP414  GLN425  TRP426 
 SER427  LYS428  LEU429  GLN430  VAL431  PHE432  ASP433  TYR453  SER462  ALA463 
 ILE464 

> <Gold.Protein.RotatedAtoms>
  217.1569   47.9456   19.3158 H   0  0  0  0  0  0  0  0  0  0  0  0  # atno 6581 bound_to 6565
  218.9489   47.6480   19.7757 H   0  0  0  0  0  0  0  0  0  0  0  0  # atno 6673 bound_to 6649
  221.7063   43.6599   18.9176 H   0  0  0  0  0  0  0  0  0  0  0  0  # atno 6813 bound_to 6795
  229.7425   45.7622   20.1939 H   0  0  0  0  0  0  0  0  0  0  0  0  # atno 7893 bound_to 7881
  230.8004   47.6400   19.7487 H   0  0  0  0  0  0  0  0  0  0  0  0  # atno 7897 bound_to 7886
  228.5657   47.3382   17.3721 H   0  0  0  0  0  0  0  0  0  0  0  0  # atno 7949 bound_to 7931
  226.8548   47.3454   14.7874 H   0  0  0  0  0  0  0  0  0  0  0  0  # atno 8033 bound_to 8017
  225.7931   45.6012   11.6428 H   0  0  0  0  0  0  0  0  0  0  0  0  # atno 8113 bound_to 8095
  221.7686   46.8975   10.9218 H   0  0  0  0  0  0  0  0  0  0  0  0  # atno 8173 bound_to 8159
  218.6069   45.5385   11.4779 H   0  0  0  0  0  0  0  0  0  0  0  0  # atno 8253 bound_to 8231
  215.8892   47.2180   10.1034 H   0  0  0  0  0  0  0  0  0  0  0  0  # atno 8321 bound_to 8305
  227.1775   47.0542    8.1285 H   0  0  0  0  0  0  0  0  0  0  0  0  # atno 9561 bound_to 9532
  222.9270   41.9126   11.8412 H   0  0  0  0  0  0  0  0  0  0  0  0  # atno 10203 bound_to 10177
  216.6045   50.5670   17.2967 LP  0  0  0  0  0  0  0  0  0  0  0  0  # atno 27193 bound_to 6328
  215.3926   49.4146   17.7475 LP  0  0  0  0  0  0  0  0  0  0  0  0  # atno 27194 bound_to 6328
  216.7054   48.0108   17.6248 LP  0  0  0  0  0  0  0  0  0  0  0  0  # atno 27195 bound_to 6565
  220.4327   46.0728   19.8978 LP  0  0  0  0  0  0  0  0  0  0  0  0  # atno 27196 bound_to 6568
  221.1699   46.7969   18.5077 LP  0  0  0  0  0  0  0  0  0  0  0  0  # atno 27197 bound_to 6568
  219.3174   49.3410   20.0102 LP  0  0  0  0  0  0  0  0  0  0  0  0  # atno 27198 bound_to 6649
  227.5473   49.2172   17.8582 LP  0  0  0  0  0  0  0  0  0  0  0  0  # atno 27199 bound_to 7884
  227.3684   48.4436   16.3189 LP  0  0  0  0  0  0  0  0  0  0  0  0  # atno 27200 bound_to 7884
  228.0689   46.0863   14.8059 LP  0  0  0  0  0  0  0  0  0  0  0  0  # atno 27201 bound_to 8017
  224.8522   48.0849   13.7868 LP  0  0  0  0  0  0  0  0  0  0  0  0  # atno 27202 bound_to 8020
  223.6443   46.9718   14.3363 LP  0  0  0  0  0  0  0  0  0  0  0  0  # atno 27203 bound_to 8020
  224.7245   45.6749   13.0194 LP  0  0  0  0  0  0  0  0  0  0  0  0  # atno 27204 bound_to 8095
  221.7722   44.1883   11.9156 LP  0  0  0  0  0  0  0  0  0  0  0  0  # atno 27205 bound_to 8098
  222.9931   44.2023   10.6871 LP  0  0  0  0  0  0  0  0  0  0  0  0  # atno 27206 bound_to 8098
  222.2373   46.8846   12.6003 LP  0  0  0  0  0  0  0  0  0  0  0  0  # atno 27207 bound_to 8159
  217.9609   47.7323   10.6607 LP  0  0  0  0  0  0  0  0  0  0  0  0  # atno 27208 bound_to 8162
  219.4359   48.3101   11.3611 LP  0  0  0  0  0  0  0  0  0  0  0  0  # atno 27209 bound_to 8162
  219.6837   45.0696   10.1880 LP  0  0  0  0  0  0  0  0  0  0  0  0  # atno 27210 bound_to 8231
  225.9777   48.1530    8.1566 LP  0  0  0  0  0  0  0  0  0  0  0  0  # atno 27211 bound_to 9532
  227.2719   48.3775    7.1863 LP  0  0  0  0  0  0  0  0  0  0  0  0  # atno 27212 bound_to 9532
  226.1748   44.2269    9.5492 LP  0  0  0  0  0  0  0  0  0  0  0  0  # atno 27213 bound_to 10092
  226.5642   44.4215   11.2256 LP  0  0  0  0  0  0  0  0  0  0  0  0  # atno 27214 bound_to 10092
  216.1065   45.4816   10.1286 LP  0  0  0  0  0  0  0  0  0  0  0  0  # atno 27215 bound_to 8305
  222.0774   42.3467   10.3755 LP  0  0  0  0  0  0  0  0  0  0  0  0  # atno 27216 bound_to 10177
  219.9276   43.4567   11.5262 LP  0  0  0  0  0  0  0  0  0  0  0  0  # atno 27217 bound_to 10180
  219.1970   43.1536    9.9853 LP  0  0  0  0  0  0  0  0  0  0  0  0  # atno 27218 bound_to 10180
  229.8789   46.1930   17.2084 LP  0  0  0  0  0  0  0  0  0  0  0  0  # atno 27219 bound_to 7931
  228.5186   44.1534   14.4595 LP  0  0  0  0  0  0  0  0  0  0  0  0  # atno 27220 bound_to 7934
  229.6774   45.0721   13.5577 LP  0  0  0  0  0  0  0  0  0  0  0  0  # atno 27221 bound_to 7934
  230.9124   45.0199   16.6058 LP  0  0  0  0  0  0  0  0  0  0  0  0  # atno 27222 bound_to 7726
  229.6540   43.8681   16.9053 LP  0  0  0  0  0  0  0  0  0  0  0  0  # atno 27223 bound_to 7726
  226.9126   45.3854   18.5013 LP  0  0  0  0  0  0  0  0  0  0  0  0  # atno 27224 bound_to 7804
  227.0008   43.6639   18.6709 LP  0  0  0  0  0  0  0  0  0  0  0  0  # atno 27225 bound_to 7804
  229.0868   45.0778   18.7270 LP  0  0  0  0  0  0  0  0  0  0  0  0  # atno 27226 bound_to 7881
  230.6519   49.1194   20.4106 LP  0  0  0  0  0  0  0  0  0  0  0  0  # atno 27227 bound_to 7886
  230.3490   48.8988   18.8212 LP  0  0  0  0  0  0  0  0  0  0  0  0  # atno 27228 bound_to 7886

> <Gold.Score>
     Fitness  S(hb_ext) S(vdw_ext)  S(hb_int)    S(int)      intcor
     15.68       1.45      12.69       0.00      -3.23      -0.75

> <Gold.Goldscore.Fitness>
15.6752

> <Gold.Goldscore.Internal.Vdw>
-3.3329

> <Gold.Goldscore.Internal.Torsion>
-0.6473

> <Gold.Goldscore.External.Vdw>
12.6906

> <Gold.Goldscore.Internal.HBond>
0.0000

> <Gold.Goldscore.External.HBond>
1.4519

> <Gold.Goldscore.Internal.Correction>
-0.7539

> <Gold.Goldscore.Hbonds>
donor molecule, donor type, donor heavy atom, donor atom, acceptor molecule, acceptor atom, score
      P1  H  8017  8033       L1     9  0.52
      P1  H  8102  8120       L1    17  0.06
      L1  H     8    22       P1  8020  0.15

> <Gold.Goldscore.Internal.Vdw.Weighted>
-3.3329

> <Gold.Goldscore.Internal.Torsion.Weighted>
-0.6473

> <Gold.Goldscore.External.Vdw.Weighted>
17.4496

> <Gold.Goldscore.Internal.HBond.Weighted>
0.0000

> <Gold.Goldscore.External.HBond.Weighted>
1.4519

> <Gold.Goldscore.Internal.Correction.Weighted>
-0.7539

> <Gold.Rescore>
     Score     S(PLP)   S(hbond)     S(cho)   S(metal)  DE(clash)   DE(tors)     intcor
     20.34     -16.58       1.99       0.00       0.00       0.29       0.96       ----

> <Gold.PLP.Fitness>
20.3419

> <Gold.PLP.PLP>
-16.5765

> <Gold.PLP.part.hbond>
-4.4674

> <Gold.PLP.part.metal>
0.0000

> <Gold.PLP.part.buried>
-4.4855

> <Gold.PLP.part.nonpolar>
-10.9212

> <Gold.PLP.part.repulsive>
1.8022

> <Gold.PLP.ligand.clash>
0.2934

> <Gold.PLP.ligand.torsion>
0.9575

> <Gold.PLP.Chemscore.Hbond>
1.9913

> <Gold.PLP.Chemscore.CHOScore>
0.0000

> <Gold.PLP.Chemscore.Metal>
0.0000

> <Gold.Chemscore.Hbonds>
donor molecule, donor type, donor heavy atom, donor atom, acceptor molecule, acceptor atom, score
      L1  H     8    22       P1  8095  0.01
      P1  H  8017  8033       L1     9  0.38

> <Gold.PLP.Chemscore.Internal.Correction>
   9.000000E+99

