#       Name:                CT1002167954
#       Creating user name   hitesit
#       Creation time:       Sun Apr 16 20:27:18 2023


#       File generated by GOLD software.
#

@<TRIPOS>MOLECULE
CT1002167954|ligand_prepared|mol2|1|dock5
    29    30     1
SMALL
NO_CHARGES


@<TRIPOS>ATOM
      1 C1         225.7605  51.5621  12.7029 C.3            1 RES1               0.0000
      2 C2         224.3443  50.9604  12.5977 C.ar           1 RES1               0.0000
      3 C3         225.8035  52.3284  14.0218 C.2            1 RES1               0.0000
      4 C4         226.7296  50.3870  12.6343 C.2            1 RES1               0.0000
      5 C5         226.1114  52.5383  11.5560 C.3            1 RES1               0.0000
      6 C6         223.4119  51.4934  11.7128 C.ar           1 RES1               0.0000
      7 C7         223.9573  49.8724  13.3756 C.ar           1 RES1               0.0000
      8 N8         226.5081  51.7762  15.0506 N.am           1 RES1               0.0000
      9 O9         225.1958  53.3816  14.1690 O.2            1 RES1               0.0000
     10 N10        227.4816  50.1092  13.7456 N.am           1 RES1               0.0000
     11 O11        226.8366  49.6889  11.6335 O.2            1 RES1               0.0000
     12 C12        227.5698  52.9686  11.5416 C.3            1 RES1               0.0000
     13 C13        222.1395  50.9566  11.6072 C.ar           1 RES1               0.0000
     14 C14        222.6843  49.3372  13.2686 C.ar           1 RES1               0.0000
     15 C15        227.3925  50.7315  14.9609 C.2            1 RES1               0.0000
     16 C16        221.7750  49.8779  12.3846 C.ar           1 RES1               0.0000
     17 O17        228.0643  50.3890  15.9297 O.2            1 RES1               0.0000
     18 H18        225.8756  52.0576  10.5986 H              1 RES1               0.0000
     19 H19        225.4808  53.4313  11.6471 H              1 RES1               0.0000
     20 H20        223.6798  52.3438  11.0947 H              1 RES1               0.0000
     21 H21        224.6557  49.4313  14.0786 H              1 RES1               0.0000
     22 H22        226.3639  52.1770  15.9720 H              1 RES1               0.0000
     23 H23        228.1719  49.3701  13.6587 H              1 RES1               0.0000
     24 H24        227.7620  53.6527  10.7178 H              1 RES1               0.0000
     25 H25        227.8323  53.4730  12.4692 H              1 RES1               0.0000
     26 H26        228.2248  52.1074  11.4270 H              1 RES1               0.0000
     27 H27        221.4271  51.3867  10.9110 H              1 RES1               0.0000
     28 H28        222.4016  48.4886  13.8828 H              1 RES1               0.0000
     29 H29        220.7783  49.4573  12.3014 H              1 RES1               0.0000
@<TRIPOS>BOND
    1    1    2 1     
    2    1    3 1     
    3    1    4 1     
    4    1    5 1     
    5    2    6 ar    
    6    2    7 ar    
    7    3    8 1     
    8    3    9 2     
    9    4   10 1     
   10    4   11 2     
   11    5   12 1     
   12    5   18 1     
   13    5   19 1     
   14    6   13 ar    
   15    6   20 1     
   16    7   14 ar    
   17    7   21 1     
   18    8   15 1     
   19    8   22 1     
   20   10   15 1     
   21   10   23 1     
   22   12   24 1     
   23   12   25 1     
   24   12   26 1     
   25   13   16 ar    
   26   13   27 1     
   27   14   16 ar    
   28   14   28 1     
   29   15   17 2     
   30   16   29 1     
@<TRIPOS>SUBSTRUCTURE
      1 RES1           1
@<TRIPOS>SET
DONOR_HYDROGENS      STATIC     ATOMS    <user>   **** ""
2 22 23
ATOM$RED        STATIC     ATOMS    COLORGROUP SYSTEM
2 22 23
@<TRIPOS>COMMENT
> <Gold.Version>
2022.3.0

> <Gold.Id.Protein>
unknown|4d1n_clean|pdb

> <Gold.Protein.RotatedTorsions>
[ 6581 6565 6566 6567 ] final -110.59 input  113.40 | X-H torsion
[ 6673 6649 6650 6651 ] final   36.48 input  128.31 | X-H torsion
[ 8033 8017 8018 8019 ] final   38.90 input   38.97 | X-H torsion
[ 8113 8095 8096 8097 ] final -160.77 input   94.22 | X-H torsion
[ 8173 8159 8160 8161 ] final  -48.36 input   69.09 | X-H torsion
[ 8253 8231 8232 8233 ] final -109.87 input   84.65 | X-H torsion
[ 9561 9532 9531 9529 ] final   50.16 input   60.02 | X-H torsion
[ 8321 8305 8306 8307 ] final   77.26 input   94.69 | X-H torsion
[ 10203 10177 10178 10179 ] final  176.41 input   41.54 | X-H torsion
[ 7949 7931 7932 7933 ] final   -1.83 input   80.35 | X-H torsion
[ 7893 7881 7882 7883 ] final -100.18 input   97.23 | X-H torsion
[ 7897 7886 7885 7882 ] final   -5.37 input   59.98 | X-H torsion
[ 6813 6795 6796 6797 ] final -117.18 input  114.70 | X-H torsion
[ 27193 6328 6327 6326 ] final -110.54 input    0.00 | X-H torsion
[ 27196 6568 6567 6566 ] final  -98.71 input   -0.00 | X-H torsion
[ 27199 7884 7883 7882 ] final  -78.59 input   -0.00 | X-H torsion
[ 27202 8020 8019 8018 ] final  -92.27 input   -0.00 | X-H torsion
[ 27205 8098 8097 8096 ] final   84.83 input   -0.00 | X-H torsion
[ 27208 8162 8161 8160 ] final -102.93 input    0.00 | X-H torsion
[ 27213 10092 10091 10090 ] final  112.57 input    0.00 | X-H torsion
[ 27217 10180 10179 10178 ] final   95.10 input    0.00 | X-H torsion
[ 27220 7934 7933 7932 ] final -154.33 input    0.00 | X-H torsion
[ 27222 7726 7725 7724 ] final  -93.36 input    0.00 | X-H torsion
[ 27224 7804 7803 7802 ] final  -56.12 input    0.00 | X-H torsion

> <Gold.Protein.ActiveResidues>
 ASP403  THR404  LEU406  ILE407  TYR408  ALA410  LYS411  TRP414  GLN425  TRP426 
 SER427  LYS428  LEU429  GLN430  VAL431  PHE432  ASP433  TYR453  SER462  ALA463 
 ILE464 

> <Gold.Protein.RotatedAtoms>
  216.8346   47.2389   17.9650 H   0  0  0  0  0  0  0  0  0  0  0  0  # atno 6581 bound_to 6565
  218.4849   47.9300   20.0667 H   0  0  0  0  0  0  0  0  0  0  0  0  # atno 6673 bound_to 6649
  221.7044   43.6321   18.9357 H   0  0  0  0  0  0  0  0  0  0  0  0  # atno 6813 bound_to 6795
  228.6473   44.9753   19.4597 H   0  0  0  0  0  0  0  0  0  0  0  0  # atno 7893 bound_to 7881
  230.6137   47.8276   19.0654 H   0  0  0  0  0  0  0  0  0  0  0  0  # atno 7897 bound_to 7886
  228.6709   46.0866   17.1292 H   0  0  0  0  0  0  0  0  0  0  0  0  # atno 7949 bound_to 7931
  226.8201   47.2874   14.9610 H   0  0  0  0  0  0  0  0  0  0  0  0  # atno 8033 bound_to 8017
  225.7946   46.3277   12.2679 H   0  0  0  0  0  0  0  0  0  0  0  0  # atno 8113 bound_to 8095
  221.9272   46.5883   10.9472 H   0  0  0  0  0  0  0  0  0  0  0  0  # atno 8173 bound_to 8159
  219.2837   46.1679   10.8909 H   0  0  0  0  0  0  0  0  0  0  0  0  # atno 8253 bound_to 8231
  215.7194   47.1038    9.7663 H   0  0  0  0  0  0  0  0  0  0  0  0  # atno 8321 bound_to 8305
  226.1463   48.5195    7.8011 H   0  0  0  0  0  0  0  0  0  0  0  0  # atno 9561 bound_to 9532
  223.0293   41.6585   11.6246 H   0  0  0  0  0  0  0  0  0  0  0  0  # atno 10203 bound_to 10177
  215.8248   49.7161   18.3248 LP  0  0  0  0  0  0  0  0  0  0  0  0  # atno 27193 bound_to 6328
  216.1723   50.2655   16.7193 LP  0  0  0  0  0  0  0  0  0  0  0  0  # atno 27194 bound_to 6328
  217.0159   48.6917   18.9264 LP  0  0  0  0  0  0  0  0  0  0  0  0  # atno 27195 bound_to 6565
  220.2305   45.8941   19.5656 LP  0  0  0  0  0  0  0  0  0  0  0  0  # atno 27196 bound_to 6568
  221.3722   46.9756   18.8399 LP  0  0  0  0  0  0  0  0  0  0  0  0  # atno 27197 bound_to 6568
  219.7697   49.0662   19.7266 LP  0  0  0  0  0  0  0  0  0  0  0  0  # atno 27198 bound_to 6649
  226.7747   48.2983   17.0754 LP  0  0  0  0  0  0  0  0  0  0  0  0  # atno 27199 bound_to 7884
  228.1411   49.3624   17.1017 LP  0  0  0  0  0  0  0  0  0  0  0  0  # atno 27200 bound_to 7884
  228.1025   46.1426   14.6372 LP  0  0  0  0  0  0  0  0  0  0  0  0  # atno 27201 bound_to 8017
  223.6158   46.9814   14.2868 LP  0  0  0  0  0  0  0  0  0  0  0  0  # atno 27202 bound_to 8020
  224.8808   48.0754   13.8364 LP  0  0  0  0  0  0  0  0  0  0  0  0  # atno 27203 bound_to 8020
  224.7230   44.9581   12.4027 LP  0  0  0  0  0  0  0  0  0  0  0  0  # atno 27204 bound_to 8095
  222.6711   44.0684   12.1080 LP  0  0  0  0  0  0  0  0  0  0  0  0  # atno 27205 bound_to 8098
  222.0942   44.3222   10.4947 LP  0  0  0  0  0  0  0  0  0  0  0  0  # atno 27206 bound_to 8098
  222.0799   47.1917   12.5750 LP  0  0  0  0  0  0  0  0  0  0  0  0  # atno 27207 bound_to 8159
  217.9732   47.8384   11.4475 LP  0  0  0  0  0  0  0  0  0  0  0  0  # atno 27208 bound_to 8162
  219.4236   48.2041   10.5743 LP  0  0  0  0  0  0  0  0  0  0  0  0  # atno 27209 bound_to 8162
  219.0159   44.4486   10.7673 LP  0  0  0  0  0  0  0  0  0  0  0  0  # atno 27210 bound_to 8231
  227.5773   47.9435    7.2833 LP  0  0  0  0  0  0  0  0  0  0  0  0  # atno 27211 bound_to 9532
  226.7109   47.1113    8.3893 LP  0  0  0  0  0  0  0  0  0  0  0  0  # atno 27212 bound_to 9532
  226.1099   44.2191    9.5679 LP  0  0  0  0  0  0  0  0  0  0  0  0  # atno 27213 bound_to 10092
  226.6291   44.4293   11.2069 LP  0  0  0  0  0  0  0  0  0  0  0  0  # atno 27214 bound_to 10092
  216.2708   45.5921   10.4549 LP  0  0  0  0  0  0  0  0  0  0  0  0  # atno 27215 bound_to 8305
  221.9778   42.5940   10.5863 LP  0  0  0  0  0  0  0  0  0  0  0  0  # atno 27216 bound_to 10177
  219.8617   43.2124    9.9485 LP  0  0  0  0  0  0  0  0  0  0  0  0  # atno 27217 bound_to 10180
  219.2629   43.3979   11.5631 LP  0  0  0  0  0  0  0  0  0  0  0  0  # atno 27218 bound_to 10180
  229.7770   47.4058   17.4437 LP  0  0  0  0  0  0  0  0  0  0  0  0  # atno 27219 bound_to 7931
  228.4506   44.5690   13.4350 LP  0  0  0  0  0  0  0  0  0  0  0  0  # atno 27220 bound_to 7934
  229.7454   44.6566   14.5821 LP  0  0  0  0  0  0  0  0  0  0  0  0  # atno 27221 bound_to 7934
  230.5110   45.2206   17.0638 LP  0  0  0  0  0  0  0  0  0  0  0  0  # atno 27222 bound_to 7726
  230.0555   43.6674   16.4473 LP  0  0  0  0  0  0  0  0  0  0  0  0  # atno 27223 bound_to 7726
  227.2273   44.0177   17.9382 LP  0  0  0  0  0  0  0  0  0  0  0  0  # atno 27224 bound_to 7804
  226.6861   45.0317   19.2339 LP  0  0  0  0  0  0  0  0  0  0  0  0  # atno 27225 bound_to 7804
  230.1597   45.8487   19.4463 LP  0  0  0  0  0  0  0  0  0  0  0  0  # atno 27226 bound_to 7881
  230.8258   48.4197   20.5665 LP  0  0  0  0  0  0  0  0  0  0  0  0  # atno 27227 bound_to 7886
  230.3630   49.4097   19.3531 LP  0  0  0  0  0  0  0  0  0  0  0  0  # atno 27228 bound_to 7886

> <Gold.Score>
     Fitness  S(hb_ext) S(vdw_ext)  S(hb_int)    S(int)      intcor
     25.59       0.25      18.88       0.00      -0.63      -0.78

> <Gold.Goldscore.Fitness>
25.5865

> <Gold.Goldscore.Internal.Vdw>
-0.9238

> <Gold.Goldscore.Internal.Torsion>
-0.4826

> <Gold.Goldscore.External.Vdw>
18.8817

> <Gold.Goldscore.Internal.HBond>
0.0000

> <Gold.Goldscore.External.HBond>
0.2536

> <Gold.Goldscore.Internal.Correction>
-0.7769

> <Gold.Goldscore.Hbonds>
donor molecule, donor type, donor heavy atom, donor atom, acceptor molecule, acceptor atom, score
      P1  H  6803  6823       L1    17  0.04

> <Gold.Goldscore.Internal.Vdw.Weighted>
-0.9238

> <Gold.Goldscore.Internal.Torsion.Weighted>
-0.4826

> <Gold.Goldscore.External.Vdw.Weighted>
25.9624

> <Gold.Goldscore.Internal.HBond.Weighted>
0.0000

> <Gold.Goldscore.External.HBond.Weighted>
0.2536

> <Gold.Goldscore.Internal.Correction.Weighted>
-0.7769

> <Gold.Rescore>
     Score     S(PLP)   S(hbond)     S(cho)   S(metal)  DE(clash)   DE(tors)     intcor
     21.19     -22.30       0.04       0.00       0.00       0.00       0.61       ----

> <Gold.PLP.Fitness>
21.1874

> <Gold.PLP.PLP>
-22.2953

> <Gold.PLP.part.hbond>
-2.0000

> <Gold.PLP.part.metal>
0.0000

> <Gold.PLP.part.buried>
-3.7068

> <Gold.PLP.part.nonpolar>
-17.5376

> <Gold.PLP.part.repulsive>
0.7505

> <Gold.PLP.ligand.clash>
0.0000

> <Gold.PLP.ligand.torsion>
0.6123

> <Gold.PLP.Chemscore.Hbond>
0.0389

> <Gold.PLP.Chemscore.CHOScore>
0.0000

> <Gold.PLP.Chemscore.Metal>
0.0000

> <Gold.Chemscore.Hbonds>
donor molecule, donor type, donor heavy atom, donor atom, acceptor molecule, acceptor atom, score
      P1  H  6803  6823       L1    17  0.01

> <Gold.PLP.Chemscore.Internal.Correction>
   9.000000E+99

