#       Name:                CT1002167954
#       Creating user name   hitesit
#       Creation time:       Sun Apr 16 20:27:16 2023


#       File generated by GOLD software.
#

@<TRIPOS>MOLECULE
CT1002167954|ligand_prepared|mol2|1|dock1
    29    30     1
SMALL
NO_CHARGES


@<TRIPOS>ATOM
      1 C1         224.5733  51.6266  13.2176 C.3            1 RES1               0.0000
      2 C2         225.9179  50.8728  13.1662 C.ar           1 RES1               0.0000
      3 C3         223.9234  51.4371  11.8501 C.2            1 RES1               0.0000
      4 C4         223.7854  51.0154  14.3710 C.2            1 RES1               0.0000
      5 C5         224.7168  53.1426  13.4874 C.3            1 RES1               0.0000
      6 C6         226.0135  49.6364  12.5346 C.ar           1 RES1               0.0000
      7 C7         227.0699  51.4014  13.7425 C.ar           1 RES1               0.0000
      8 N8         222.8649  50.5811  11.7668 N.am           1 RES1               0.0000
      9 O9         224.3578  51.9996  10.8526 O.2            1 RES1               0.0000
     10 N10        222.6360  50.3317  14.0723 N.am           1 RES1               0.0000
     11 O11        224.1584  51.1054  15.5342 O.2            1 RES1               0.0000
     12 C12        223.4282  53.9252  13.2894 C.3            1 RES1               0.0000
     13 C13        227.2177  48.9544  12.4785 C.ar           1 RES1               0.0000
     14 C14        228.2731  50.7176  13.6854 C.ar           1 RES1               0.0000
     15 C15        222.1564  50.0606  12.8198 C.2            1 RES1               0.0000
     16 C16        228.3483  49.4946  13.0534 C.ar           1 RES1               0.0000
     17 O17        221.1443  49.3922  12.6300 O.2            1 RES1               0.0000
     18 H18        225.0625  53.2865  14.5185 H              1 RES1               0.0000
     19 H19        225.4836  53.5495  12.8167 H              1 RES1               0.0000
     20 H20        225.1338  49.1944  12.0787 H              1 RES1               0.0000
     21 H21        227.0342  52.3615  14.2459 H              1 RES1               0.0000
     22 H22        222.5732  50.3022  10.8355 H              1 RES1               0.0000
     23 H23        222.0870  49.9936  14.8563 H              1 RES1               0.0000
     24 H24        223.5844  54.9828  13.4914 H              1 RES1               0.0000
     25 H25        223.0692  53.8249  12.2672 H              1 RES1               0.0000
     26 H26        222.6505  53.5635  13.9588 H              1 RES1               0.0000
     27 H27        227.2712  47.9916  11.9811 H              1 RES1               0.0000
     28 H28        229.1603  51.1463  14.1398 H              1 RES1               0.0000
     29 H29        229.2915  48.9604  13.0090 H              1 RES1               0.0000
@<TRIPOS>BOND
    1    1    2 1     
    2    1    3 1     
    3    1    4 1     
    4    1    5 1     
    5    2    6 ar    
    6    2    7 ar    
    7    3    8 1     
    8    3    9 2     
    9    4   10 1     
   10    4   11 2     
   11    5   12 1     
   12    5   18 1     
   13    5   19 1     
   14    6   13 ar    
   15    6   20 1     
   16    7   14 ar    
   17    7   21 1     
   18    8   15 1     
   19    8   22 1     
   20   10   15 1     
   21   10   23 1     
   22   12   24 1     
   23   12   25 1     
   24   12   26 1     
   25   13   16 ar    
   26   13   27 1     
   27   14   16 ar    
   28   14   28 1     
   29   15   17 2     
   30   16   29 1     
@<TRIPOS>SUBSTRUCTURE
      1 RES1           1
@<TRIPOS>SET
DONOR_HYDROGENS      STATIC     ATOMS    <user>   **** ""
2 22 23
ATOM$RED        STATIC     ATOMS    COLORGROUP SYSTEM
2 22 23
@<TRIPOS>COMMENT
> <Gold.Version>
2022.3.0

> <Gold.Id.Protein>
unknown|4d1n_clean|pdb

> <Gold.Protein.RotatedTorsions>
[ 6581 6565 6566 6567 ] final -130.93 input  113.40 | X-H torsion
[ 6673 6649 6650 6651 ] final  -37.71 input  128.31 | X-H torsion
[ 8033 8017 8018 8019 ] final  -93.79 input   38.97 | X-H torsion
[ 8113 8095 8096 8097 ] final  158.83 input   94.22 | X-H torsion
[ 8173 8159 8160 8161 ] final  -64.66 input   69.09 | X-H torsion
[ 8253 8231 8232 8233 ] final  131.12 input   84.65 | X-H torsion
[ 9561 9532 9531 9529 ] final   84.79 input   60.02 | X-H torsion
[ 8321 8305 8306 8307 ] final   35.98 input   94.69 | X-H torsion
[ 10203 10177 10178 10179 ] final   12.93 input   41.54 | X-H torsion
[ 7949 7931 7932 7933 ] final  -27.68 input   80.35 | X-H torsion
[ 7893 7881 7882 7883 ] final   -8.74 input   97.23 | X-H torsion
[ 7897 7886 7885 7882 ] final  -30.38 input   59.98 | X-H torsion
[ 6813 6795 6796 6797 ] final  -12.19 input  114.70 | X-H torsion
[ 27193 6328 6327 6326 ] final  101.00 input    0.00 | X-H torsion
[ 27196 6568 6567 6566 ] final   74.45 input   -0.00 | X-H torsion
[ 27199 7884 7883 7882 ] final   55.57 input   -0.00 | X-H torsion
[ 27202 8020 8019 8018 ] final  -38.60 input   -0.00 | X-H torsion
[ 27205 8098 8097 8096 ] final -110.49 input   -0.00 | X-H torsion
[ 27208 8162 8161 8160 ] final  101.55 input    0.00 | X-H torsion
[ 27213 10092 10091 10090 ] final  -80.40 input    0.00 | X-H torsion
[ 27217 10180 10179 10178 ] final  139.72 input    0.00 | X-H torsion
[ 27220 7934 7933 7932 ] final   55.83 input    0.00 | X-H torsion
[ 27222 7726 7725 7724 ] final   60.64 input    0.00 | X-H torsion
[ 27224 7804 7803 7802 ] final   13.67 input    0.00 | X-H torsion

> <Gold.Protein.ActiveResidues>
 ASP403  THR404  LEU406  ILE407  TYR408  ALA410  LYS411  TRP414  GLN425  TRP426 
 SER427  LYS428  LEU429  GLN430  VAL431  PHE432  ASP433  TYR453  SER462  ALA463 
 ILE464 

> <Gold.Protein.RotatedAtoms>
  216.7754   47.4579   17.7465 H   0  0  0  0  0  0  0  0  0  0  0  0  # atno 6581 bound_to 6565
  219.4111   47.7269   19.5749 H   0  0  0  0  0  0  0  0  0  0  0  0  # atno 6673 bound_to 6649
  221.4140   43.5502   20.2976 H   0  0  0  0  0  0  0  0  0  0  0  0  # atno 6813 bound_to 6795
  229.5015   45.2913   18.5842 H   0  0  0  0  0  0  0  0  0  0  0  0  # atno 7893 bound_to 7881
  230.7245   47.6553   19.4154 H   0  0  0  0  0  0  0  0  0  0  0  0  # atno 7897 bound_to 7886
  228.4272   46.3962   17.1821 H   0  0  0  0  0  0  0  0  0  0  0  0  # atno 7949 bound_to 7931
  227.9758   46.5556   14.0834 H   0  0  0  0  0  0  0  0  0  0  0  0  # atno 8033 bound_to 8017
  225.8921   45.9399   11.8120 H   0  0  0  0  0  0  0  0  0  0  0  0  # atno 8113 bound_to 8095
  222.0495   46.3959   11.0447 H   0  0  0  0  0  0  0  0  0  0  0  0  # atno 8173 bound_to 8159
  219.6041   44.8422   10.2355 H   0  0  0  0  0  0  0  0  0  0  0  0  # atno 8253 bound_to 8231
  215.5686   46.6231    9.3933 H   0  0  0  0  0  0  0  0  0  0  0  0  # atno 8321 bound_to 8305
  225.9814   48.1312    8.1654 H   0  0  0  0  0  0  0  0  0  0  0  0  # atno 9561 bound_to 9532
  221.9326   42.7414   10.7865 H   0  0  0  0  0  0  0  0  0  0  0  0  # atno 10203 bound_to 10177
  216.4733   50.4933   17.0005 LP  0  0  0  0  0  0  0  0  0  0  0  0  # atno 27193 bound_to 6328
  215.5238   49.4882   18.0437 LP  0  0  0  0  0  0  0  0  0  0  0  0  # atno 27194 bound_to 6328
  217.0729   48.4806   19.1369 LP  0  0  0  0  0  0  0  0  0  0  0  0  # atno 27195 bound_to 6565
  221.3351   46.9437   18.7488 LP  0  0  0  0  0  0  0  0  0  0  0  0  # atno 27196 bound_to 6568
  220.2675   45.9260   19.6567 LP  0  0  0  0  0  0  0  0  0  0  0  0  # atno 27197 bound_to 6568
  218.8670   49.2641   20.2059 LP  0  0  0  0  0  0  0  0  0  0  0  0  # atno 27198 bound_to 6649
  227.8081   49.3479   17.6881 LP  0  0  0  0  0  0  0  0  0  0  0  0  # atno 27199 bound_to 7884
  227.1077   48.3128   16.4890 LP  0  0  0  0  0  0  0  0  0  0  0  0  # atno 27200 bound_to 7884
  226.9796   46.8538   15.4900 LP  0  0  0  0  0  0  0  0  0  0  0  0  # atno 27201 bound_to 8017
  224.2002   47.0749   14.7978 LP  0  0  0  0  0  0  0  0  0  0  0  0  # atno 27202 bound_to 8020
  224.2963   47.9819   13.3254 LP  0  0  0  0  0  0  0  0  0  0  0  0  # atno 27203 bound_to 8020
  224.6268   45.3407   12.8525 LP  0  0  0  0  0  0  0  0  0  0  0  0  # atno 27204 bound_to 8095
  221.8901   44.3315   10.6023 LP  0  0  0  0  0  0  0  0  0  0  0  0  # atno 27205 bound_to 8098
  222.8753   44.0591   12.0005 LP  0  0  0  0  0  0  0  0  0  0  0  0  # atno 27206 bound_to 8098
  221.9584   47.3828   12.4782 LP  0  0  0  0  0  0  0  0  0  0  0  0  # atno 27207 bound_to 8159
  219.1973   48.0946   10.3068 LP  0  0  0  0  0  0  0  0  0  0  0  0  # atno 27208 bound_to 8162
  218.1996   47.9478   11.7150 LP  0  0  0  0  0  0  0  0  0  0  0  0  # atno 27209 bound_to 8162
  218.6997   45.7568   11.4140 LP  0  0  0  0  0  0  0  0  0  0  0  0  # atno 27210 bound_to 8231
  227.2549   48.3928    7.1869 LP  0  0  0  0  0  0  0  0  0  0  0  0  # atno 27211 bound_to 9532
  227.1993   47.0530    8.1189 LP  0  0  0  0  0  0  0  0  0  0  0  0  # atno 27212 bound_to 9532
  226.4392   44.4051   11.2468 LP  0  0  0  0  0  0  0  0  0  0  0  0  # atno 27213 bound_to 10092
  226.2998   44.2433    9.5280 LP  0  0  0  0  0  0  0  0  0  0  0  0  # atno 27214 bound_to 10092
  216.4168   46.0575   10.8159 LP  0  0  0  0  0  0  0  0  0  0  0  0  # atno 27215 bound_to 8305
  223.0450   41.5402   11.4019 LP  0  0  0  0  0  0  0  0  0  0  0  0  # atno 27216 bound_to 10177
  219.2075   43.1538    9.9804 LP  0  0  0  0  0  0  0  0  0  0  0  0  # atno 27217 bound_to 10180
  219.9171   43.4565   11.5312 LP  0  0  0  0  0  0  0  0  0  0  0  0  # atno 27218 bound_to 10180
  230.0131   47.1057   17.3925 LP  0  0  0  0  0  0  0  0  0  0  0  0  # atno 27219 bound_to 7931
  229.4219   44.4200   14.7883 LP  0  0  0  0  0  0  0  0  0  0  0  0  # atno 27220 bound_to 7934
  228.7741   44.8056   13.2289 LP  0  0  0  0  0  0  0  0  0  0  0  0  # atno 27221 bound_to 7934
  230.3742   43.7538   16.2404 LP  0  0  0  0  0  0  0  0  0  0  0  0  # atno 27222 bound_to 7726
  230.1923   45.1343   17.2706 LP  0  0  0  0  0  0  0  0  0  0  0  0  # atno 27223 bound_to 7726
  226.9423   43.6939   18.8303 LP  0  0  0  0  0  0  0  0  0  0  0  0  # atno 27224 bound_to 7804
  226.9711   45.3554   18.3419 LP  0  0  0  0  0  0  0  0  0  0  0  0  # atno 27225 bound_to 7804
  229.3229   45.5391   20.3039 LP  0  0  0  0  0  0  0  0  0  0  0  0  # atno 27226 bound_to 7881
  230.7430   48.8191   20.5529 LP  0  0  0  0  0  0  0  0  0  0  0  0  # atno 27227 bound_to 7886
  230.3342   49.1836   19.0145 LP  0  0  0  0  0  0  0  0  0  0  0  0  # atno 27228 bound_to 7886

> <Gold.Score>
     Fitness  S(hb_ext) S(vdw_ext)  S(hb_int)    S(int)      intcor
     33.83      10.42      17.16       0.00      -0.18      -0.78

> <Gold.Goldscore.Fitness>
33.8341

> <Gold.Goldscore.Internal.Vdw>
-0.4109

> <Gold.Goldscore.Internal.Torsion>
-0.5441

> <Gold.Goldscore.External.Vdw>
17.1578

> <Gold.Goldscore.Internal.HBond>
0.0000

> <Gold.Goldscore.External.HBond>
10.4202

> <Gold.Goldscore.Internal.Correction>
-0.7769

> <Gold.Goldscore.Hbonds>
donor molecule, donor type, donor heavy atom, donor atom, acceptor molecule, acceptor atom, score
      P1  H  6803  6824       L1    11  0.64
      P1  H  8102  8119       L1     9  0.30
      L1  H     8    22       P1  8103  1.00

> <Gold.Goldscore.Internal.Vdw.Weighted>
-0.4109

> <Gold.Goldscore.Internal.Torsion.Weighted>
-0.5441

> <Gold.Goldscore.External.Vdw.Weighted>
23.5919

> <Gold.Goldscore.Internal.HBond.Weighted>
0.0000

> <Gold.Goldscore.External.HBond.Weighted>
10.4202

> <Gold.Goldscore.Internal.Correction.Weighted>
-0.7769

> <Gold.Rescore>
     Score     S(PLP)   S(hbond)     S(cho)   S(metal)  DE(clash)   DE(tors)     intcor
     24.01     -18.47       2.39       0.00       0.00       0.00       0.82       ----

> <Gold.PLP.Fitness>
24.0102

> <Gold.PLP.PLP>
-18.4704

> <Gold.PLP.part.hbond>
-2.4711

> <Gold.PLP.part.metal>
0.0000

> <Gold.PLP.part.buried>
-2.7702

> <Gold.PLP.part.nonpolar>
-14.9843

> <Gold.PLP.part.repulsive>
0.4225

> <Gold.PLP.ligand.clash>
0.0000

> <Gold.PLP.ligand.torsion>
0.8189

> <Gold.PLP.Chemscore.Hbond>
2.3925

> <Gold.PLP.Chemscore.CHOScore>
0.0000

> <Gold.PLP.Chemscore.Metal>
0.0000

> <Gold.Chemscore.Hbonds>
donor molecule, donor type, donor heavy atom, donor atom, acceptor molecule, acceptor atom, score
      L1  H     8    22       P1  8103  0.80
      P1  H  6803  6824       L1    11  0.52
      P1  H  8102  8119       L1     9  0.55

> <Gold.PLP.Chemscore.Internal.Correction>
   9.000000E+99

