#       Name:                CT1002167954
#       Creating user name   hitesit
#       Creation time:       Sun Apr 16 20:27:19 2023


#       File generated by GOLD software.
#

@<TRIPOS>MOLECULE
CT1002167954|ligand_prepared|mol2|1|dock7
    29    30     1
SMALL
NO_CHARGES


@<TRIPOS>ATOM
      1 C1         227.7083  50.9430  12.2554 C.3            1 RES1               0.0000
      2 C2         227.8993  49.6158  11.4933 C.ar           1 RES1               0.0000
      3 C3         226.2924  51.4173  11.9415 C.2            1 RES1               0.0000
      4 C4         227.9466  50.6275  13.7279 C.2            1 RES1               0.0000
      5 C5         228.7017  52.0521  11.8375 C.3            1 RES1               0.0000
      6 C6         227.3718  48.4292  11.9936 C.ar           1 RES1               0.0000
      7 C7         228.5972  49.5629  10.2896 C.ar           1 RES1               0.0000
      8 N8         225.3545  51.3007  12.9247 N.am           1 RES1               0.0000
      9 O9         225.9940  51.8503  10.8353 O.2            1 RES1               0.0000
     10 N10        226.8874  50.7450  14.5894 N.am           1 RES1               0.0000
     11 O11        229.0380  50.2622  14.1472 O.2            1 RES1               0.0000
     12 C12        228.7315  53.2385  12.7881 C.3            1 RES1               0.0000
     13 C13        227.5335  47.2333  11.3137 C.ar           1 RES1               0.0000
     14 C14        228.7579  48.3659   9.6115 C.ar           1 RES1               0.0000
     15 C15        225.5947  51.0376  14.2494 C.2            1 RES1               0.0000
     16 C16        228.2261  47.2009  10.1222 C.ar           1 RES1               0.0000
     17 O17        224.6859  51.0716  15.0740 O.2            1 RES1               0.0000
     18 H18        229.7087  51.6206  11.7797 H              1 RES1               0.0000
     19 H19        228.4318  52.4089  10.8359 H              1 RES1               0.0000
     20 H20        226.8259  48.4347  12.9311 H              1 RES1               0.0000
     21 H21        229.0251  50.4667   9.8695 H              1 RES1               0.0000
     22 H22        224.3847  51.4201  12.6496 H              1 RES1               0.0000
     23 H23        227.0805  50.6012  15.5754 H              1 RES1               0.0000
     24 H24        229.4444  53.9870  12.4486 H              1 RES1               0.0000
     25 H25        227.7517  53.7075  12.8505 H              1 RES1               0.0000
     26 H26        229.0210  52.9239  13.7887 H              1 RES1               0.0000
     27 H27        227.1142  46.3190  11.7206 H              1 RES1               0.0000
     28 H28        229.3042  48.3449   8.6743 H              1 RES1               0.0000
     29 H29        228.3522  46.2641   9.5896 H              1 RES1               0.0000
@<TRIPOS>BOND
    1    1    2 1     
    2    1    3 1     
    3    1    4 1     
    4    1    5 1     
    5    2    6 ar    
    6    2    7 ar    
    7    3    8 1     
    8    3    9 2     
    9    4   10 1     
   10    4   11 2     
   11    5   12 1     
   12    5   18 1     
   13    5   19 1     
   14    6   13 ar    
   15    6   20 1     
   16    7   14 ar    
   17    7   21 1     
   18    8   15 1     
   19    8   22 1     
   20   10   15 1     
   21   10   23 1     
   22   12   24 1     
   23   12   25 1     
   24   12   26 1     
   25   13   16 ar    
   26   13   27 1     
   27   14   16 ar    
   28   14   28 1     
   29   15   17 2     
   30   16   29 1     
@<TRIPOS>SUBSTRUCTURE
      1 RES1           1
@<TRIPOS>SET
DONOR_HYDROGENS      STATIC     ATOMS    <user>   **** ""
2 22 23
ATOM$RED        STATIC     ATOMS    COLORGROUP SYSTEM
2 22 23
@<TRIPOS>COMMENT
> <Gold.Version>
2022.3.0

> <Gold.Id.Protein>
unknown|4d1n_clean|pdb

> <Gold.Protein.RotatedTorsions>
[ 6581 6565 6566 6567 ] final  149.95 input  113.40 | X-H torsion
[ 6673 6649 6650 6651 ] final   50.71 input  128.31 | X-H torsion
[ 8033 8017 8018 8019 ] final   89.02 input   38.97 | X-H torsion
[ 8113 8095 8096 8097 ] final   27.56 input   94.22 | X-H torsion
[ 8173 8159 8160 8161 ] final  119.66 input   69.09 | X-H torsion
[ 8253 8231 8232 8233 ] final   69.00 input   84.65 | X-H torsion
[ 9561 9532 9531 9529 ] final  111.46 input   60.02 | X-H torsion
[ 8321 8305 8306 8307 ] final  171.71 input   94.69 | X-H torsion
[ 10203 10177 10178 10179 ] final  -12.48 input   41.54 | X-H torsion
[ 7949 7931 7932 7933 ] final -162.88 input   80.35 | X-H torsion
[ 7893 7881 7882 7883 ] final -105.38 input   97.23 | X-H torsion
[ 7897 7886 7885 7882 ] final -100.51 input   59.98 | X-H torsion
[ 6813 6795 6796 6797 ] final  -51.47 input  114.70 | X-H torsion
[ 27193 6328 6327 6326 ] final   59.20 input    0.00 | X-H torsion
[ 27196 6568 6567 6566 ] final -170.82 input   -0.00 | X-H torsion
[ 27199 7884 7883 7882 ] final   87.49 input   -0.00 | X-H torsion
[ 27202 8020 8019 8018 ] final  -54.85 input   -0.00 | X-H torsion
[ 27205 8098 8097 8096 ] final   33.37 input   -0.00 | X-H torsion
[ 27208 8162 8161 8160 ] final -138.23 input    0.00 | X-H torsion
[ 27213 10092 10091 10090 ] final  -63.71 input    0.00 | X-H torsion
[ 27217 10180 10179 10178 ] final   31.61 input    0.00 | X-H torsion
[ 27220 7934 7933 7932 ] final   37.48 input    0.00 | X-H torsion
[ 27222 7726 7725 7724 ] final -159.81 input    0.00 | X-H torsion
[ 27224 7804 7803 7802 ] final  172.38 input    0.00 | X-H torsion

> <Gold.Protein.ActiveResidues>
 ASP403  THR404  LEU406  ILE407  TYR408  ALA410  LYS411  TRP414  GLN425  TRP426 
 SER427  LYS428  LEU429  GLN430  VAL431  PHE432  ASP433  TYR453  SER462  ALA463 
 ILE464 

> <Gold.Protein.RotatedAtoms>
  216.7711   48.5913   17.8251 H   0  0  0  0  0  0  0  0  0  0  0  0  # atno 6581 bound_to 6565
  218.3895   48.1063   20.1558 H   0  0  0  0  0  0  0  0  0  0  0  0  # atno 6673 bound_to 6649
  221.5435   43.2600   19.7992 H   0  0  0  0  0  0  0  0  0  0  0  0  # atno 6813 bound_to 6795
  228.6440   44.9895   19.5383 H   0  0  0  0  0  0  0  0  0  0  0  0  # atno 7893 bound_to 7881
  230.8623   48.0496   20.4071 H   0  0  0  0  0  0  0  0  0  0  0  0  # atno 7897 bound_to 7886
  229.5412   47.5742   17.4511 H   0  0  0  0  0  0  0  0  0  0  0  0  # atno 7949 bound_to 7931
  226.9769   46.8169   15.5257 H   0  0  0  0  0  0  0  0  0  0  0  0  # atno 8033 bound_to 8017
  224.7775   44.9024   12.3019 H   0  0  0  0  0  0  0  0  0  0  0  0  # atno 8113 bound_to 8095
  222.0078   47.3470   12.5100 H   0  0  0  0  0  0  0  0  0  0  0  0  # atno 8173 bound_to 8159
  219.0095   44.4367   10.7857 H   0  0  0  0  0  0  0  0  0  0  0  0  # atno 8253 bound_to 8231
  216.3416   46.7128   10.8454 H   0  0  0  0  0  0  0  0  0  0  0  0  # atno 8321 bound_to 8305
  226.0552   47.7575    8.3688 H   0  0  0  0  0  0  0  0  0  0  0  0  # atno 9561 bound_to 9532
  221.9858   42.5080   10.4787 H   0  0  0  0  0  0  0  0  0  0  0  0  # atno 10203 bound_to 10177
  216.0582   50.1696   16.6768 LP  0  0  0  0  0  0  0  0  0  0  0  0  # atno 27193 bound_to 6328
  215.9389   49.8119   18.3673 LP  0  0  0  0  0  0  0  0  0  0  0  0  # atno 27194 bound_to 6328
  217.0771   47.3886   19.0611 LP  0  0  0  0  0  0  0  0  0  0  0  0  # atno 27195 bound_to 6565
  220.8895   46.4927   20.0623 LP  0  0  0  0  0  0  0  0  0  0  0  0  # atno 27196 bound_to 6568
  220.7132   46.3770   18.3432 LP  0  0  0  0  0  0  0  0  0  0  0  0  # atno 27197 bound_to 6568
  219.8626   48.8943   19.6397 LP  0  0  0  0  0  0  0  0  0  0  0  0  # atno 27198 bound_to 6649
  228.0788   49.3961   17.2994 LP  0  0  0  0  0  0  0  0  0  0  0  0  # atno 27199 bound_to 7884
  226.8369   48.2647   16.8778 LP  0  0  0  0  0  0  0  0  0  0  0  0  # atno 27200 bound_to 7884
  227.9502   46.5998   14.0885 LP  0  0  0  0  0  0  0  0  0  0  0  0  # atno 27201 bound_to 8017
  223.9922   46.9963   14.6951 LP  0  0  0  0  0  0  0  0  0  0  0  0  # atno 27202 bound_to 8020
  224.5043   48.0605   13.4281 LP  0  0  0  0  0  0  0  0  0  0  0  0  # atno 27203 bound_to 8020
  225.7265   46.3644   12.3691 LP  0  0  0  0  0  0  0  0  0  0  0  0  # atno 27204 bound_to 8095
  223.1970   44.0754   11.5706 LP  0  0  0  0  0  0  0  0  0  0  0  0  # atno 27205 bound_to 8098
  221.5683   44.3152   11.0322 LP  0  0  0  0  0  0  0  0  0  0  0  0  # atno 27206 bound_to 8098
  221.9998   46.4382   11.0229 LP  0  0  0  0  0  0  0  0  0  0  0  0  # atno 27207 bound_to 8159
  217.8817   47.7423   10.9393 LP  0  0  0  0  0  0  0  0  0  0  0  0  # atno 27208 bound_to 8162
  219.5152   48.3002   11.0825 LP  0  0  0  0  0  0  0  0  0  0  0  0  # atno 27209 bound_to 8162
  219.2865   46.1569   10.8711 LP  0  0  0  0  0  0  0  0  0  0  0  0  # atno 27210 bound_to 8231
  226.8908   48.6163    7.2680 LP  0  0  0  0  0  0  0  0  0  0  0  0  # atno 27211 bound_to 9532
  227.4891   47.2059    7.8329 LP  0  0  0  0  0  0  0  0  0  0  0  0  # atno 27212 bound_to 9532
  226.6816   44.4353   11.1875 LP  0  0  0  0  0  0  0  0  0  0  0  0  # atno 27213 bound_to 10092
  226.0574   44.2130    9.5872 LP  0  0  0  0  0  0  0  0  0  0  0  0  # atno 27214 bound_to 10092
  215.6686   45.9706    9.4104 LP  0  0  0  0  0  0  0  0  0  0  0  0  # atno 27215 bound_to 8305
  222.9932   41.7673   11.7014 LP  0  0  0  0  0  0  0  0  0  0  0  0  # atno 27216 bound_to 10177
  220.4193   43.3725   10.6512 LP  0  0  0  0  0  0  0  0  0  0  0  0  # atno 27217 bound_to 10180
  218.7052   43.2379   10.8604 LP  0  0  0  0  0  0  0  0  0  0  0  0  # atno 27218 bound_to 10180
  228.9337   45.9643   17.1319 LP  0  0  0  0  0  0  0  0  0  0  0  0  # atno 27219 bound_to 7931
  229.6356   44.5616   14.6856 LP  0  0  0  0  0  0  0  0  0  0  0  0  # atno 27220 bound_to 7934
  228.5604   44.6639   13.3315 LP  0  0  0  0  0  0  0  0  0  0  0  0  # atno 27221 bound_to 7934
  229.7560   44.7381   17.3764 LP  0  0  0  0  0  0  0  0  0  0  0  0  # atno 27222 bound_to 7726
  230.8105   44.1500   16.1346 LP  0  0  0  0  0  0  0  0  0  0  0  0  # atno 27223 bound_to 7726
  226.8635   45.3839   18.6419 LP  0  0  0  0  0  0  0  0  0  0  0  0  # atno 27224 bound_to 7804
  227.0499   43.6655   18.5303 LP  0  0  0  0  0  0  0  0  0  0  0  0  # atno 27225 bound_to 7804
  230.1629   45.8348   19.3692 LP  0  0  0  0  0  0  0  0  0  0  0  0  # atno 27226 bound_to 7881
  230.4360   49.4749   19.7471 LP  0  0  0  0  0  0  0  0  0  0  0  0  # atno 27227 bound_to 7886
  230.5026   48.1310   18.8219 LP  0  0  0  0  0  0  0  0  0  0  0  0  # atno 27228 bound_to 7886

> <Gold.Score>
     Fitness  S(hb_ext) S(vdw_ext)  S(hb_int)    S(int)      intcor
     29.04       6.00      16.93       0.00      -0.24      -0.78

> <Gold.Goldscore.Fitness>
29.0365

> <Gold.Goldscore.Internal.Vdw>
-0.3859

> <Gold.Goldscore.Internal.Torsion>
-0.6331

> <Gold.Goldscore.External.Vdw>
16.9311

> <Gold.Goldscore.Internal.HBond>
0.0000

> <Gold.Goldscore.External.HBond>
6.0000

> <Gold.Goldscore.Internal.Correction>
-0.7752

> <Gold.Goldscore.Hbonds>
donor molecule, donor type, donor heavy atom, donor atom, acceptor molecule, acceptor atom, score
      P1  H  6803  6824       L1    17  1.00

> <Gold.Goldscore.Internal.Vdw.Weighted>
-0.3859

> <Gold.Goldscore.Internal.Torsion.Weighted>
-0.6331

> <Gold.Goldscore.External.Vdw.Weighted>
23.2802

> <Gold.Goldscore.Internal.HBond.Weighted>
0.0000

> <Gold.Goldscore.External.HBond.Weighted>
6.0000

> <Gold.Goldscore.Internal.Correction.Weighted>
-0.7752

> <Gold.Rescore>
     Score     S(PLP)   S(hbond)     S(cho)   S(metal)  DE(clash)   DE(tors)     intcor
     -0.70       4.68       1.88       0.00       0.00       0.00       0.83       ----

> <Gold.PLP.Fitness>
-0.6954

> <Gold.PLP.PLP>
4.6821

> <Gold.PLP.part.hbond>
-3.8716

> <Gold.PLP.part.metal>
0.0000

> <Gold.PLP.part.buried>
9.0584

> <Gold.PLP.part.nonpolar>
-9.1237

> <Gold.PLP.part.repulsive>
7.9668

> <Gold.PLP.ligand.clash>
0.0000

> <Gold.PLP.ligand.torsion>
0.8267

> <Gold.PLP.Chemscore.Hbond>
1.8800

> <Gold.PLP.Chemscore.CHOScore>
0.0000

> <Gold.PLP.Chemscore.Metal>
0.0000

> <Gold.Chemscore.Hbonds>
donor molecule, donor type, donor heavy atom, donor atom, acceptor molecule, acceptor atom, score
      P1  H  6803  6824       L1    17  1.00
      P1  H  8102  8119       L1     9  0.77

> <Gold.PLP.Chemscore.Internal.Correction>
   9.000000E+99

