#       Name:                CT1002167954
#       Creating user name   hitesit
#       Creation time:       Sun Apr 16 20:27:17 2023


#       File generated by GOLD software.
#

@<TRIPOS>MOLECULE
CT1002167954|ligand_prepared|mol2|1|dock4
    29    30     1
SMALL
NO_CHARGES


@<TRIPOS>ATOM
      1 C1         224.4688  51.6065  12.8914 C.3            1 RES1               0.0000
      2 C2         223.0916  51.1980  12.3301 C.ar           1 RES1               0.0000
      3 C3         224.7665  50.6447  14.0380 C.2            1 RES1               0.0000
      4 C4         225.4494  51.5100  11.7279 C.2            1 RES1               0.0000
      5 C5         224.5168  53.0523  13.4381 C.3            1 RES1               0.0000
      6 C6         222.4270  52.0141  11.4196 C.ar           1 RES1               0.0000
      7 C7         222.4753  50.0089  12.7106 C.ar           1 RES1               0.0000
      8 N8         225.7029  49.6766  13.8236 N.am           1 RES1               0.0000
      9 O9         224.1606  50.7100  15.1005 O.2            1 RES1               0.0000
     10 N10        226.4382  50.5639  11.7983 N.am           1 RES1               0.0000
     11 O11        225.3646  52.2336  10.7433 O.2            1 RES1               0.0000
     12 C12        225.8634  53.4403  14.0282 C.3            1 RES1               0.0000
     13 C13        221.1925  51.6533  10.9057 C.ar           1 RES1               0.0000
     14 C14        221.2405  49.6500  12.1957 C.ar           1 RES1               0.0000
     15 C15        226.5907  49.6224  12.7794 C.2            1 RES1               0.0000
     16 C16        220.5987  50.4709  11.2930 C.ar           1 RES1               0.0000
     17 O17        227.4729  48.7692  12.7453 O.2            1 RES1               0.0000
     18 H18        224.2753  53.7461  12.6233 H              1 RES1               0.0000
     19 H19        223.7472  53.1630  14.2119 H              1 RES1               0.0000
     20 H20        222.8777  52.9495  11.1050 H              1 RES1               0.0000
     21 H21        222.9612  49.3480  13.4203 H              1 RES1               0.0000
     22 H22        225.7470  48.9233  14.5025 H              1 RES1               0.0000
     23 H23        227.1241  50.5614  11.0501 H              1 RES1               0.0000
     24 H24        225.8426  54.4637  14.3969 H              1 RES1               0.0000
     25 H25        226.1237  52.7864  14.8580 H              1 RES1               0.0000
     26 H26        226.6488  53.3660  13.2789 H              1 RES1               0.0000
     27 H27        220.6909  52.3035  10.1967 H              1 RES1               0.0000
     28 H28        220.7766  48.7188  12.5038 H              1 RES1               0.0000
     29 H29        219.6317  50.1883  10.8901 H              1 RES1               0.0000
@<TRIPOS>BOND
    1    1    2 1     
    2    1    3 1     
    3    1    4 1     
    4    1    5 1     
    5    2    6 ar    
    6    2    7 ar    
    7    3    8 1     
    8    3    9 2     
    9    4   10 1     
   10    4   11 2     
   11    5   12 1     
   12    5   18 1     
   13    5   19 1     
   14    6   13 ar    
   15    6   20 1     
   16    7   14 ar    
   17    7   21 1     
   18    8   15 1     
   19    8   22 1     
   20   10   15 1     
   21   10   23 1     
   22   12   24 1     
   23   12   25 1     
   24   12   26 1     
   25   13   16 ar    
   26   13   27 1     
   27   14   16 ar    
   28   14   28 1     
   29   15   17 2     
   30   16   29 1     
@<TRIPOS>SUBSTRUCTURE
      1 RES1           1
@<TRIPOS>SET
DONOR_HYDROGENS      STATIC     ATOMS    <user>   **** ""
2 22 23
ATOM$RED        STATIC     ATOMS    COLORGROUP SYSTEM
2 22 23
@<TRIPOS>COMMENT
> <Gold.Version>
2022.3.0

> <Gold.Id.Protein>
unknown|4d1n_clean|pdb

> <Gold.Protein.RotatedTorsions>
[ 6581 6565 6566 6567 ] final   -8.63 input  113.40 | X-H torsion
[ 6673 6649 6650 6651 ] final -166.67 input  128.31 | X-H torsion
[ 8033 8017 8018 8019 ] final  -30.37 input   38.97 | X-H torsion
[ 8113 8095 8096 8097 ] final  102.36 input   94.22 | X-H torsion
[ 8173 8159 8160 8161 ] final  150.85 input   69.09 | X-H torsion
[ 8253 8231 8232 8233 ] final   86.82 input   84.65 | X-H torsion
[ 9561 9532 9531 9529 ] final   89.74 input   60.02 | X-H torsion
[ 8321 8305 8306 8307 ] final -153.16 input   94.69 | X-H torsion
[ 10203 10177 10178 10179 ] final   -4.73 input   41.54 | X-H torsion
[ 7949 7931 7932 7933 ] final -171.49 input   80.35 | X-H torsion
[ 7893 7881 7882 7883 ] final -107.35 input   97.23 | X-H torsion
[ 7897 7886 7885 7882 ] final -105.43 input   59.98 | X-H torsion
[ 6813 6795 6796 6797 ] final  -99.55 input  114.70 | X-H torsion
[ 27193 6328 6327 6326 ] final  -16.86 input    0.00 | X-H torsion
[ 27196 6568 6567 6566 ] final  -91.24 input   -0.00 | X-H torsion
[ 27199 7884 7883 7882 ] final   58.33 input   -0.00 | X-H torsion
[ 27202 8020 8019 8018 ] final   69.55 input   -0.00 | X-H torsion
[ 27205 8098 8097 8096 ] final   20.12 input   -0.00 | X-H torsion
[ 27208 8162 8161 8160 ] final   -1.36 input    0.00 | X-H torsion
[ 27213 10092 10091 10090 ] final  122.57 input    0.00 | X-H torsion
[ 27217 10180 10179 10178 ] final   32.92 input    0.00 | X-H torsion
[ 27220 7934 7933 7932 ] final -175.95 input    0.00 | X-H torsion
[ 27222 7726 7725 7724 ] final   -6.27 input    0.00 | X-H torsion
[ 27224 7804 7803 7802 ] final -157.00 input    0.00 | X-H torsion

> <Gold.Protein.ActiveResidues>
 ASP403  THR404  LEU406  ILE407  TYR408  ALA410  LYS411  TRP414  GLN425  TRP426 
 SER427  LYS428  LEU429  GLN430  VAL431  PHE432  ASP433  TYR453  SER462  ALA463 
 ILE464 

> <Gold.Protein.RotatedAtoms>
  217.1474   47.6460   19.2523 H   0  0  0  0  0  0  0  0  0  0  0  0  # atno 6581 bound_to 6565
  219.5525   49.2865   19.8938 H   0  0  0  0  0  0  0  0  0  0  0  0  # atno 6673 bound_to 6649
  221.6790   43.4353   19.1181 H   0  0  0  0  0  0  0  0  0  0  0  0  # atno 6813 bound_to 6795
  228.6443   44.9958   19.5680 H   0  0  0  0  0  0  0  0  0  0  0  0  # atno 7893 bound_to 7881
  230.8580   48.1176   20.4499 H   0  0  0  0  0  0  0  0  0  0  0  0  # atno 7897 bound_to 7886
  229.6624   47.5189   17.4442 H   0  0  0  0  0  0  0  0  0  0  0  0  # atno 7949 bound_to 7931
  227.3287   47.2272   14.0924 H   0  0  0  0  0  0  0  0  0  0  0  0  # atno 8033 bound_to 8017
  225.5391   45.2121   11.6226 H   0  0  0  0  0  0  0  0  0  0  0  0  # atno 8113 bound_to 8095
  222.2321   46.9452   12.6062 H   0  0  0  0  0  0  0  0  0  0  0  0  # atno 8173 bound_to 8159
  219.1958   44.4592   10.5889 H   0  0  0  0  0  0  0  0  0  0  0  0  # atno 8253 bound_to 8231
  216.4186   46.1831   10.8857 H   0  0  0  0  0  0  0  0  0  0  0  0  # atno 8321 bound_to 8305
  225.9818   48.0640    8.2102 H   0  0  0  0  0  0  0  0  0  0  0  0  # atno 9561 bound_to 9532
  221.9583   42.5894   10.5621 H   0  0  0  0  0  0  0  0  0  0  0  0  # atno 10203 bound_to 10177
  215.3865   49.4963   17.1604 LP  0  0  0  0  0  0  0  0  0  0  0  0  # atno 27193 bound_to 6328
  216.6106   50.4853   17.8837 LP  0  0  0  0  0  0  0  0  0  0  0  0  # atno 27194 bound_to 6328
  216.7145   48.2994   17.6860 LP  0  0  0  0  0  0  0  0  0  0  0  0  # atno 27195 bound_to 6565
  220.1993   45.8681   19.4604 LP  0  0  0  0  0  0  0  0  0  0  0  0  # atno 27196 bound_to 6568
  221.4033   47.0016   18.9451 LP  0  0  0  0  0  0  0  0  0  0  0  0  # atno 27197 bound_to 6568
  218.7291   47.7440   19.8951 LP  0  0  0  0  0  0  0  0  0  0  0  0  # atno 27198 bound_to 6649
  227.8371   49.3588   17.6604 LP  0  0  0  0  0  0  0  0  0  0  0  0  # atno 27199 bound_to 7884
  227.0787   48.3020   16.5168 LP  0  0  0  0  0  0  0  0  0  0  0  0  # atno 27200 bound_to 7884
  227.6083   46.2011   15.4812 LP  0  0  0  0  0  0  0  0  0  0  0  0  # atno 27201 bound_to 8017
  224.9757   47.9979   14.0811 LP  0  0  0  0  0  0  0  0  0  0  0  0  # atno 27202 bound_to 8020
  223.5209   47.0588   14.0421 LP  0  0  0  0  0  0  0  0  0  0  0  0  # atno 27203 bound_to 8020
  224.9751   46.0588   13.0394 LP  0  0  0  0  0  0  0  0  0  0  0  0  # atno 27204 bound_to 8095
  223.2395   44.0939   11.3761 LP  0  0  0  0  0  0  0  0  0  0  0  0  # atno 27205 bound_to 8098
  221.5259   44.2967   11.2267 LP  0  0  0  0  0  0  0  0  0  0  0  0  # atno 27206 bound_to 8098
  221.7771   46.8373   10.9274 LP  0  0  0  0  0  0  0  0  0  0  0  0  # atno 27207 bound_to 8159
  219.2251   48.2778   11.6487 LP  0  0  0  0  0  0  0  0  0  0  0  0  # atno 27208 bound_to 8162
  218.1717   47.7646   10.3732 LP  0  0  0  0  0  0  0  0  0  0  0  0  # atno 27209 bound_to 8162
  219.1025   46.1348   11.0652 LP  0  0  0  0  0  0  0  0  0  0  0  0  # atno 27210 bound_to 8231
  227.1924   48.4446    7.1918 LP  0  0  0  0  0  0  0  0  0  0  0  0  # atno 27211 bound_to 9532
  227.2614   47.0689    8.0689 LP  0  0  0  0  0  0  0  0  0  0  0  0  # atno 27212 bound_to 9532
  225.9720   44.2040    9.6274 LP  0  0  0  0  0  0  0  0  0  0  0  0  # atno 27213 bound_to 10092
  226.7670   44.4444   11.1473 LP  0  0  0  0  0  0  0  0  0  0  0  0  # atno 27214 bound_to 10092
  215.5940   46.4833    9.3714 LP  0  0  0  0  0  0  0  0  0  0  0  0  # atno 27215 bound_to 8305
  223.0200   41.6881   11.6201 LP  0  0  0  0  0  0  0  0  0  0  0  0  # atno 27216 bound_to 10177
  220.4170   43.3693   10.6319 LP  0  0  0  0  0  0  0  0  0  0  0  0  # atno 27217 bound_to 10180
  218.7076   43.2410   10.8797 LP  0  0  0  0  0  0  0  0  0  0  0  0  # atno 27218 bound_to 10180
  228.8162   46.0179   17.1385 LP  0  0  0  0  0  0  0  0  0  0  0  0  # atno 27219 bound_to 7931
  228.3233   44.4030   13.6834 LP  0  0  0  0  0  0  0  0  0  0  0  0  # atno 27220 bound_to 7934
  229.8728   44.8226   14.3338 LP  0  0  0  0  0  0  0  0  0  0  0  0  # atno 27221 bound_to 7934
  230.9684   44.5012   16.2289 LP  0  0  0  0  0  0  0  0  0  0  0  0  # atno 27222 bound_to 7726
  229.5981   44.3869   17.2822 LP  0  0  0  0  0  0  0  0  0  0  0  0  # atno 27223 bound_to 7726
  227.0185   45.3065   18.2187 LP  0  0  0  0  0  0  0  0  0  0  0  0  # atno 27224 bound_to 7804
  226.8949   43.7429   18.9535 LP  0  0  0  0  0  0  0  0  0  0  0  0  # atno 27225 bound_to 7804
  230.1626   45.8286   19.3402 LP  0  0  0  0  0  0  0  0  0  0  0  0  # atno 27226 bound_to 7881
  230.4186   49.4757   19.6681 LP  0  0  0  0  0  0  0  0  0  0  0  0  # atno 27227 bound_to 7886
  230.5243   48.0618   18.8579 LP  0  0  0  0  0  0  0  0  0  0  0  0  # atno 27228 bound_to 7886

> <Gold.Score>
     Fitness  S(hb_ext) S(vdw_ext)  S(hb_int)    S(int)      intcor
     29.03       8.35      16.21       0.00      -1.62      -0.78

> <Gold.Goldscore.Fitness>
29.0254

> <Gold.Goldscore.Internal.Vdw>
-2.0260

> <Gold.Goldscore.Internal.Torsion>
-0.3732

> <Gold.Goldscore.External.Vdw>
16.2143

> <Gold.Goldscore.Internal.HBond>
0.0000

> <Gold.Goldscore.External.HBond>
8.3529

> <Gold.Goldscore.Internal.Correction>
-0.7769

> <Gold.Goldscore.Hbonds>
donor molecule, donor type, donor heavy atom, donor atom, acceptor molecule, acceptor atom, score
      P1  H  6803  6824       L1     9  1.00
      P1  H  8017  8033       L1    17  0.94
      P1  H  8102  8119       L1    11  0.24

> <Gold.Goldscore.Internal.Vdw.Weighted>
-2.0260

> <Gold.Goldscore.Internal.Torsion.Weighted>
-0.3732

> <Gold.Goldscore.External.Vdw.Weighted>
22.2947

> <Gold.Goldscore.Internal.HBond.Weighted>
0.0000

> <Gold.Goldscore.External.HBond.Weighted>
8.3529

> <Gold.Goldscore.Internal.Correction.Weighted>
-0.7769

> <Gold.Rescore>
     Score     S(PLP)   S(hbond)     S(cho)   S(metal)  DE(clash)   DE(tors)     intcor
     27.09     -20.50       2.70       0.00       0.00       1.08       0.22       ----

> <Gold.PLP.Fitness>
27.0882

> <Gold.PLP.PLP>
-20.5048

> <Gold.PLP.part.hbond>
-2.9705

> <Gold.PLP.part.metal>
0.0000

> <Gold.PLP.part.buried>
-3.3914

> <Gold.PLP.part.nonpolar>
-16.5776

> <Gold.PLP.part.repulsive>
1.6149

> <Gold.PLP.ligand.clash>
1.0795

> <Gold.PLP.ligand.torsion>
0.2185

> <Gold.PLP.Chemscore.Hbond>
2.7000

> <Gold.PLP.Chemscore.CHOScore>
0.0000

> <Gold.PLP.Chemscore.Metal>
0.0000

> <Gold.Chemscore.Hbonds>
donor molecule, donor type, donor heavy atom, donor atom, acceptor molecule, acceptor atom, score
      L1  H     8    22       P1  8020  0.13
      P1  H  6803  6824       L1     9  0.94
      P1  H  8017  8033       L1    17  1.00

> <Gold.PLP.Chemscore.Internal.Correction>
   9.000000E+99

