#       Name:                CT1002167954
#       Creating user name   hitesit
#       Creation time:       Sun Apr 16 20:27:19 2023


#       File generated by GOLD software.
#

@<TRIPOS>MOLECULE
CT1002167954|ligand_prepared|mol2|1|dock8
    29    30     1
SMALL
NO_CHARGES


@<TRIPOS>ATOM
      1 C1         229.8922  49.3799   9.8971 C.3            1 RES1               0.0000
      2 C2         231.2372  48.8678   9.3425 C.ar           1 RES1               0.0000
      3 C3         228.8038  48.7382   9.0417 C.2            1 RES1               0.0000
      4 C4         229.8523  48.9699  11.3651 C.2            1 RES1               0.0000
      5 C5         229.7312  50.9163   9.8257 C.3            1 RES1               0.0000
      6 C6         231.6409  47.5545   9.5636 C.ar           1 RES1               0.0000
      7 C7         232.0821  49.6947   8.6069 C.ar           1 RES1               0.0000
      8 N8         228.0744  47.7297   9.5991 N.am           1 RES1               0.0000
      9 O9         228.6148  49.0850   7.8822 O.2            1 RES1               0.0000
     10 N10        228.9083  48.0545  11.7507 N.am           1 RES1               0.0000
     11 O11        230.6406  49.4187  12.1882 O.2            1 RES1               0.0000
     12 C12        228.4873  51.4358  10.5292 C.3            1 RES1               0.0000
     13 C13        232.8443  47.0839   9.0649 C.ar           1 RES1               0.0000
     14 C14        233.2852  49.2221   8.1093 C.ar           1 RES1               0.0000
     15 C15        228.0375  47.3928  10.9284 C.2            1 RES1               0.0000
     16 C16        233.6670  47.9171   8.3372 C.ar           1 RES1               0.0000
     17 O17        227.2544  46.5426  11.3419 O.2            1 RES1               0.0000
     18 H18        230.6141  51.3852  10.2773 H              1 RES1               0.0000
     19 H19        229.6930  51.2187   8.7719 H              1 RES1               0.0000
     20 H20        231.0078  46.8848  10.1361 H              1 RES1               0.0000
     21 H21        231.8027  50.7253   8.4162 H              1 RES1               0.0000
     22 H22        227.5037  47.1746   8.9695 H              1 RES1               0.0000
     23 H23        228.8491  47.8472  12.7426 H              1 RES1               0.0000
     24 H24        228.4227  52.5189  10.4489 H              1 RES1               0.0000
     25 H25        227.5885  51.0092  10.0889 H              1 RES1               0.0000
     26 H26        228.5041  51.1747  11.5854 H              1 RES1               0.0000
     27 H27        233.1408  46.0564   9.2482 H              1 RES1               0.0000
     28 H28        233.9298  49.8815   7.5376 H              1 RES1               0.0000
     29 H29        234.6095  47.5480   7.9463 H              1 RES1               0.0000
@<TRIPOS>BOND
    1    1    2 1     
    2    1    3 1     
    3    1    4 1     
    4    1    5 1     
    5    2    6 ar    
    6    2    7 ar    
    7    3    8 1     
    8    3    9 2     
    9    4   10 1     
   10    4   11 2     
   11    5   12 1     
   12    5   18 1     
   13    5   19 1     
   14    6   13 ar    
   15    6   20 1     
   16    7   14 ar    
   17    7   21 1     
   18    8   15 1     
   19    8   22 1     
   20   10   15 1     
   21   10   23 1     
   22   12   24 1     
   23   12   25 1     
   24   12   26 1     
   25   13   16 ar    
   26   13   27 1     
   27   14   16 ar    
   28   14   28 1     
   29   15   17 2     
   30   16   29 1     
@<TRIPOS>SUBSTRUCTURE
      1 RES1           1
@<TRIPOS>SET
DONOR_HYDROGENS      STATIC     ATOMS    <user>   **** ""
2 22 23
ATOM$RED        STATIC     ATOMS    COLORGROUP SYSTEM
2 22 23
@<TRIPOS>COMMENT
> <Gold.Version>
2022.3.0

> <Gold.Id.Protein>
unknown|4d1n_clean|pdb

> <Gold.Protein.RotatedTorsions>
[ 6581 6565 6566 6567 ] final  139.04 input  113.40 | X-H torsion
[ 6673 6649 6650 6651 ] final   29.05 input  128.31 | X-H torsion
[ 8033 8017 8018 8019 ] final  142.78 input   38.97 | X-H torsion
[ 8113 8095 8096 8097 ] final   70.03 input   94.22 | X-H torsion
[ 8173 8159 8160 8161 ] final   23.42 input   69.09 | X-H torsion
[ 8253 8231 8232 8233 ] final   33.64 input   84.65 | X-H torsion
[ 9561 9532 9531 9529 ] final  -26.94 input   60.02 | X-H torsion
[ 8321 8305 8306 8307 ] final   57.98 input   94.69 | X-H torsion
[ 10203 10177 10178 10179 ] final    8.67 input   41.54 | X-H torsion
[ 7949 7931 7932 7933 ] final   66.82 input   80.35 | X-H torsion
[ 7893 7881 7882 7883 ] final  163.06 input   97.23 | X-H torsion
[ 7897 7886 7885 7882 ] final -173.41 input   59.98 | X-H torsion
[ 6813 6795 6796 6797 ] final   33.98 input  114.70 | X-H torsion
[ 27193 6328 6327 6326 ] final -138.20 input    0.00 | X-H torsion
[ 27196 6568 6567 6566 ] final  -36.80 input   -0.00 | X-H torsion
[ 27199 7884 7883 7882 ] final  164.18 input   -0.00 | X-H torsion
[ 27202 8020 8019 8018 ] final  -94.19 input   -0.00 | X-H torsion
[ 27205 8098 8097 8096 ] final -137.15 input   -0.00 | X-H torsion
[ 27208 8162 8161 8160 ] final -125.08 input    0.00 | X-H torsion
[ 27213 10092 10091 10090 ] final  167.51 input    0.00 | X-H torsion
[ 27217 10180 10179 10178 ] final -173.16 input    0.00 | X-H torsion
[ 27220 7934 7933 7932 ] final  -57.54 input    0.00 | X-H torsion
[ 27222 7726 7725 7724 ] final   76.85 input    0.00 | X-H torsion
[ 27224 7804 7803 7802 ] final  152.58 input    0.00 | X-H torsion

> <Gold.Protein.ActiveResidues>
 ASP403  THR404  LEU406  ILE407  TYR408  ALA410  LYS411  TRP414  GLN425  TRP426 
 SER427  LYS428  LEU429  GLN430  VAL431  PHE432  ASP433  TYR453  SER462  ALA463 
 ILE464 

> <Gold.Protein.RotatedAtoms>
  216.7998   48.7029   17.9495 H   0  0  0  0  0  0  0  0  0  0  0  0  # atno 6581 bound_to 6565
  218.5510   47.8513   20.0157 H   0  0  0  0  0  0  0  0  0  0  0  0  # atno 6673 bound_to 6649
  221.3239   44.2049   20.4936 H   0  0  0  0  0  0  0  0  0  0  0  0  # atno 6813 bound_to 6795
  229.4297   45.6054   20.3145 H   0  0  0  0  0  0  0  0  0  0  0  0  # atno 7893 bound_to 7881
  230.6400   49.1399   20.3873 H   0  0  0  0  0  0  0  0  0  0  0  0  # atno 7897 bound_to 7886
  229.6691   45.9958   17.1447 H   0  0  0  0  0  0  0  0  0  0  0  0  # atno 7949 bound_to 7931
  227.5262   46.2325   15.5445 H   0  0  0  0  0  0  0  0  0  0  0  0  # atno 8033 bound_to 8017
  225.1884   44.9327   11.8174 H   0  0  0  0  0  0  0  0  0  0  0  0  # atno 8113 bound_to 8095
  221.5837   47.4920   11.2877 H   0  0  0  0  0  0  0  0  0  0  0  0  # atno 8173 bound_to 8159
  218.6963   44.6323   11.1705 H   0  0  0  0  0  0  0  0  0  0  0  0  # atno 8253 bound_to 8231
  215.6254   46.9157    9.5555 H   0  0  0  0  0  0  0  0  0  0  0  0  # atno 8321 bound_to 8305
  227.1453   48.4714    7.2003 H   0  0  0  0  0  0  0  0  0  0  0  0  # atno 9561 bound_to 9532
  221.9340   42.7095   10.7288 H   0  0  0  0  0  0  0  0  0  0  0  0  # atno 10203 bound_to 10177
  216.1347   49.9859   18.3773 LP  0  0  0  0  0  0  0  0  0  0  0  0  # atno 27193 bound_to 6328
  215.8624   49.9957   16.6668 LP  0  0  0  0  0  0  0  0  0  0  0  0  # atno 27194 bound_to 6328
  217.0495   47.2811   18.9413 LP  0  0  0  0  0  0  0  0  0  0  0  0  # atno 27195 bound_to 6565
  220.2883   45.9726   18.6801 LP  0  0  0  0  0  0  0  0  0  0  0  0  # atno 27196 bound_to 6568
  221.3144   46.8970   19.7254 LP  0  0  0  0  0  0  0  0  0  0  0  0  # atno 27197 bound_to 6568
  219.7052   49.1428   19.7763 LP  0  0  0  0  0  0  0  0  0  0  0  0  # atno 27198 bound_to 6649
  227.9264   48.8918   16.3628 LP  0  0  0  0  0  0  0  0  0  0  0  0  # atno 27199 bound_to 7884
  226.9894   48.7690   17.8143 LP  0  0  0  0  0  0  0  0  0  0  0  0  # atno 27200 bound_to 7884
  227.4165   47.1677   14.0703 LP  0  0  0  0  0  0  0  0  0  0  0  0  # atno 27201 bound_to 8017
  223.6026   46.9870   14.2617 LP  0  0  0  0  0  0  0  0  0  0  0  0  # atno 27202 bound_to 8020
  224.8940   48.0697   13.8615 LP  0  0  0  0  0  0  0  0  0  0  0  0  # atno 27203 bound_to 8020
  225.3211   46.3344   12.8471 LP  0  0  0  0  0  0  0  0  0  0  0  0  # atno 27204 bound_to 8095
  221.6255   44.3246   10.9014 LP  0  0  0  0  0  0  0  0  0  0  0  0  # atno 27205 bound_to 8098
  223.1399   44.0661   11.7014 LP  0  0  0  0  0  0  0  0  0  0  0  0  # atno 27206 bound_to 8098
  222.4211   46.2942   12.2369 LP  0  0  0  0  0  0  0  0  0  0  0  0  # atno 27207 bound_to 8159
  217.8800   47.7672   11.1361 LP  0  0  0  0  0  0  0  0  0  0  0  0  # atno 27208 bound_to 8162
  219.5168   48.2752   10.8857 LP  0  0  0  0  0  0  0  0  0  0  0  0  # atno 27209 bound_to 8162
  219.5955   45.9639   10.4913 LP  0  0  0  0  0  0  0  0  0  0  0  0  # atno 27210 bound_to 8231
  227.3014   47.0829    8.0342 LP  0  0  0  0  0  0  0  0  0  0  0  0  # atno 27211 bound_to 9532
  225.9807   48.0203    8.2435 LP  0  0  0  0  0  0  0  0  0  0  0  0  # atno 27212 bound_to 9532
  225.5517   44.1851   10.1386 LP  0  0  0  0  0  0  0  0  0  0  0  0  # atno 27213 bound_to 10092
  227.1873   44.4632   10.6362 LP  0  0  0  0  0  0  0  0  0  0  0  0  # atno 27214 bound_to 10092
  216.3618   45.7742   10.6590 LP  0  0  0  0  0  0  0  0  0  0  0  0  # atno 27215 bound_to 8305
  223.0436   41.5712   11.4580 LP  0  0  0  0  0  0  0  0  0  0  0  0  # atno 27216 bound_to 10177
  218.7452   43.1866   10.4945 LP  0  0  0  0  0  0  0  0  0  0  0  0  # atno 27217 bound_to 10180
  220.3794   43.4238   11.0170 LP  0  0  0  0  0  0  0  0  0  0  0  0  # atno 27218 bound_to 10180
  228.8097   47.4937   17.4287 LP  0  0  0  0  0  0  0  0  0  0  0  0  # atno 27219 bound_to 7931
  229.6406   45.0738   13.5156 LP  0  0  0  0  0  0  0  0  0  0  0  0  # atno 27220 bound_to 7934
  228.5554   44.1518   14.5016 LP  0  0  0  0  0  0  0  0  0  0  0  0  # atno 27221 bound_to 7934
  230.1735   43.6818   16.3594 LP  0  0  0  0  0  0  0  0  0  0  0  0  # atno 27222 bound_to 7726
  230.3930   45.2063   17.1516 LP  0  0  0  0  0  0  0  0  0  0  0  0  # atno 27223 bound_to 7726
  226.7745   45.3049   18.9149 LP  0  0  0  0  0  0  0  0  0  0  0  0  # atno 27224 bound_to 7804
  227.1389   43.7445   18.2573 LP  0  0  0  0  0  0  0  0  0  0  0  0  # atno 27225 bound_to 7804
  229.3932   45.2314   18.6089 LP  0  0  0  0  0  0  0  0  0  0  0  0  # atno 27226 bound_to 7881
  230.3521   48.8690   18.8085 LP  0  0  0  0  0  0  0  0  0  0  0  0  # atno 27227 bound_to 7886
  230.8101   47.6393   19.7805 LP  0  0  0  0  0  0  0  0  0  0  0  0  # atno 27228 bound_to 7886

> <Gold.Score>
     Fitness  S(hb_ext) S(vdw_ext)  S(hb_int)    S(int)      intcor
     18.23       0.09      13.20       0.00      -0.01      -0.75

> <Gold.Goldscore.Fitness>
18.2339

> <Gold.Goldscore.Internal.Vdw>
-0.3105

> <Gold.Goldscore.Internal.Torsion>
-0.4502

> <Gold.Goldscore.External.Vdw>
13.2010

> <Gold.Goldscore.Internal.HBond>
0.0000

> <Gold.Goldscore.External.HBond>
0.0893

> <Gold.Goldscore.Internal.Correction>
-0.7539

> <Gold.Goldscore.Hbonds>
donor molecule, donor type, donor heavy atom, donor atom, acceptor molecule, acceptor atom, score
      P1  H  9532  9561       L1     9  0.03
      L1  H     8    22       P1  9532  0.01

> <Gold.Goldscore.Internal.Vdw.Weighted>
-0.3105

> <Gold.Goldscore.Internal.Torsion.Weighted>
-0.4502

> <Gold.Goldscore.External.Vdw.Weighted>
18.1514

> <Gold.Goldscore.Internal.HBond.Weighted>
0.0000

> <Gold.Goldscore.External.HBond.Weighted>
0.0893

> <Gold.Goldscore.Internal.Correction.Weighted>
-0.7539

> <Gold.Rescore>
     Score     S(PLP)   S(hbond)     S(cho)   S(metal)  DE(clash)   DE(tors)     intcor
     20.89     -17.59       1.22       0.00       0.00       0.00       0.18       ----

> <Gold.PLP.Fitness>
20.8883

> <Gold.PLP.PLP>
-17.5901

> <Gold.PLP.part.hbond>
-3.1397

> <Gold.PLP.part.metal>
0.0000

> <Gold.PLP.part.buried>
-2.8063

> <Gold.PLP.part.nonpolar>
-12.1261

> <Gold.PLP.part.repulsive>
0.2699

> <Gold.PLP.ligand.clash>
0.0000

> <Gold.PLP.ligand.torsion>
0.1779

> <Gold.PLP.Chemscore.Hbond>
1.2180

> <Gold.PLP.Chemscore.CHOScore>
0.0000

> <Gold.PLP.Chemscore.Metal>
0.0000

> <Gold.Chemscore.Hbonds>
donor molecule, donor type, donor heavy atom, donor atom, acceptor molecule, acceptor atom, score
      L1  H     8    22       P1  9532  0.56
      P1  H  9532  9561       L1     9  0.46

> <Gold.PLP.Chemscore.Internal.Correction>
   9.000000E+99

