#       Name:                CT1002167954
#       Creating user name   hitesit
#       Creation time:       Sun Apr 16 20:27:17 2023


#       File generated by GOLD software.
#

@<TRIPOS>MOLECULE
CT1002167954|ligand_prepared|mol2|1|dock3
    29    30     1
SMALL
NO_CHARGES


@<TRIPOS>ATOM
      1 C1         224.7627  51.5281  12.8885 C.3            1 RES1               0.0000
      2 C2         223.3794  51.1309  12.3342 C.ar           1 RES1               0.0000
      3 C3         225.0079  50.6402  14.1050 C.2            1 RES1               0.0000
      4 C4         225.7556  51.3136  11.7515 C.2            1 RES1               0.0000
      5 C5         224.8569  53.0065  13.3325 C.3            1 RES1               0.0000
      6 C6         222.7547  51.9090  11.3641 C.ar           1 RES1               0.0000
      7 C7         222.7179  49.9899  12.7804 C.ar           1 RES1               0.0000
      8 N8         225.9103  49.6260  13.9754 N.am           1 RES1               0.0000
      9 O9         224.3897  50.8028  15.1498 O.2            1 RES1               0.0000
     10 N10        226.7072  50.3397  11.9052 N.am           1 RES1               0.0000
     11 O11        225.7121  51.9679  10.7170 O.2            1 RES1               0.0000
     12 C12        226.1664  53.3576  14.0212 C.3            1 RES1               0.0000
     13 C13        221.5150  51.5576  10.8562 C.ar           1 RES1               0.0000
     14 C14        221.4780  49.6404  12.2713 C.ar           1 RES1               0.0000
     15 C15        226.8104  49.4654  12.9527 C.2            1 RES1               0.0000
     16 C16        220.8761  50.4230  11.3090 C.ar           1 RES1               0.0000
     17 O17        227.6604  48.5806  12.9939 O.2            1 RES1               0.0000
     18 H18        224.7385  53.6482  12.4507 H              1 RES1               0.0000
     19 H19        224.0284  53.2227  14.0182 H              1 RES1               0.0000
     20 H20        223.2411  52.8067  10.9973 H              1 RES1               0.0000
     21 H21        223.1719  49.3598  13.5376 H              1 RES1               0.0000
     22 H22        225.9165  48.9218  14.7063 H              1 RES1               0.0000
     23 H23        227.4032  50.2591  11.1708 H              1 RES1               0.0000
     24 H24        226.1802  54.4059  14.3120 H              1 RES1               0.0000
     25 H25        226.3047  52.7556  14.9168 H              1 RES1               0.0000
     26 H26        227.0107  53.1786  13.3586 H              1 RES1               0.0000
     27 H27        221.0449  52.1776  10.1000 H              1 RES1               0.0000
     28 H28        220.9786  48.7469  12.6311 H              1 RES1               0.0000
     29 H29        219.9051  50.1477  10.9107 H              1 RES1               0.0000
@<TRIPOS>BOND
    1    1    2 1     
    2    1    3 1     
    3    1    4 1     
    4    1    5 1     
    5    2    6 ar    
    6    2    7 ar    
    7    3    8 1     
    8    3    9 2     
    9    4   10 1     
   10    4   11 2     
   11    5   12 1     
   12    5   18 1     
   13    5   19 1     
   14    6   13 ar    
   15    6   20 1     
   16    7   14 ar    
   17    7   21 1     
   18    8   15 1     
   19    8   22 1     
   20   10   15 1     
   21   10   23 1     
   22   12   24 1     
   23   12   25 1     
   24   12   26 1     
   25   13   16 ar    
   26   13   27 1     
   27   14   16 ar    
   28   14   28 1     
   29   15   17 2     
   30   16   29 1     
@<TRIPOS>SUBSTRUCTURE
      1 RES1           1
@<TRIPOS>SET
DONOR_HYDROGENS      STATIC     ATOMS    <user>   **** ""
2 22 23
ATOM$RED        STATIC     ATOMS    COLORGROUP SYSTEM
2 22 23
@<TRIPOS>COMMENT
> <Gold.Version>
2022.3.0

> <Gold.Id.Protein>
unknown|4d1n_clean|pdb

> <Gold.Protein.RotatedTorsions>
[ 6581 6565 6566 6567 ] final -111.48 input  113.40 | X-H torsion
[ 6673 6649 6650 6651 ] final  153.76 input  128.31 | X-H torsion
[ 8033 8017 8018 8019 ] final  -51.05 input   38.97 | X-H torsion
[ 8113 8095 8096 8097 ] final  -75.43 input   94.22 | X-H torsion
[ 8173 8159 8160 8161 ] final -148.12 input   69.09 | X-H torsion
[ 8253 8231 8232 8233 ] final   31.28 input   84.65 | X-H torsion
[ 9561 9532 9531 9529 ] final  -95.78 input   60.02 | X-H torsion
[ 8321 8305 8306 8307 ] final -127.74 input   94.69 | X-H torsion
[ 10203 10177 10178 10179 ] final   33.33 input   41.54 | X-H torsion
[ 7949 7931 7932 7933 ] final   39.88 input   80.35 | X-H torsion
[ 7893 7881 7882 7883 ] final  172.24 input   97.23 | X-H torsion
[ 7897 7886 7885 7882 ] final  -53.90 input   59.98 | X-H torsion
[ 6813 6795 6796 6797 ] final   17.83 input  114.70 | X-H torsion
[ 27193 6328 6327 6326 ] final -153.45 input    0.00 | X-H torsion
[ 27196 6568 6567 6566 ] final   35.21 input   -0.00 | X-H torsion
[ 27199 7884 7883 7882 ] final    8.67 input   -0.00 | X-H torsion
[ 27202 8020 8019 8018 ] final -110.66 input   -0.00 | X-H torsion
[ 27205 8098 8097 8096 ] final  -82.99 input   -0.00 | X-H torsion
[ 27208 8162 8161 8160 ] final  -11.41 input    0.00 | X-H torsion
[ 27213 10092 10091 10090 ] final -100.08 input    0.00 | X-H torsion
[ 27217 10180 10179 10178 ] final -144.05 input    0.00 | X-H torsion
[ 27220 7934 7933 7932 ] final   66.44 input    0.00 | X-H torsion
[ 27222 7726 7725 7724 ] final  -67.19 input    0.00 | X-H torsion
[ 27224 7804 7803 7802 ] final  126.27 input    0.00 | X-H torsion

> <Gold.Protein.ActiveResidues>
 ASP403  THR404  LEU406  ILE407  TYR408  ALA410  LYS411  TRP414  GLN425  TRP426 
 SER427  LYS428  LEU429  GLN430  VAL431  PHE432  ASP433  TYR453  SER462  ALA463 
 ILE464 

> <Gold.Protein.RotatedAtoms>
  216.8317   47.2467   17.9539 H   0  0  0  0  0  0  0  0  0  0  0  0  # atno 6581 bound_to 6565
  219.0190   49.3415   20.1617 H   0  0  0  0  0  0  0  0  0  0  0  0  # atno 6673 bound_to 6649
  221.3435   43.9589   20.4856 H   0  0  0  0  0  0  0  0  0  0  0  0  # atno 6813 bound_to 6795
  229.3071   45.5355   20.3209 H   0  0  0  0  0  0  0  0  0  0  0  0  # atno 7893 bound_to 7881
  230.8077   47.6463   19.7879 H   0  0  0  0  0  0  0  0  0  0  0  0  # atno 7897 bound_to 7886
  229.2710   45.8868   17.1100 H   0  0  0  0  0  0  0  0  0  0  0  0  # atno 7949 bound_to 7931
  227.5631   47.0427   13.9809 H   0  0  0  0  0  0  0  0  0  0  0  0  # atno 8033 bound_to 8017
  224.9550   46.0353   13.0591 H   0  0  0  0  0  0  0  0  0  0  0  0  # atno 8113 bound_to 8095
  222.4440   46.2285   12.1268 H   0  0  0  0  0  0  0  0  0  0  0  0  # atno 8173 bound_to 8159
  218.6804   44.6556   11.1931 H   0  0  0  0  0  0  0  0  0  0  0  0  # atno 8253 bound_to 8231
  216.3765   45.8233   10.7378 H   0  0  0  0  0  0  0  0  0  0  0  0  # atno 8321 bound_to 8305
  227.6365   47.5788    7.4866 H   0  0  0  0  0  0  0  0  0  0  0  0  # atno 9561 bound_to 9532
  221.9685   42.8445   11.0808 H   0  0  0  0  0  0  0  0  0  0  0  0  # atno 10203 bound_to 10177
  216.2966   50.1391   18.3216 LP  0  0  0  0  0  0  0  0  0  0  0  0  # atno 27193 bound_to 6328
  215.7005   49.8425   16.7226 LP  0  0  0  0  0  0  0  0  0  0  0  0  # atno 27194 bound_to 6328
  217.0187   48.6841   18.9370 LP  0  0  0  0  0  0  0  0  0  0  0  0  # atno 27195 bound_to 6565
  220.9979   46.6405   18.3848 LP  0  0  0  0  0  0  0  0  0  0  0  0  # atno 27196 bound_to 6568
  220.6047   46.2292   20.0207 LP  0  0  0  0  0  0  0  0  0  0  0  0  # atno 27197 bound_to 6568
  219.2491   47.6904   19.6340 LP  0  0  0  0  0  0  0  0  0  0  0  0  # atno 27198 bound_to 6649
  227.2501   49.0095   17.9100 LP  0  0  0  0  0  0  0  0  0  0  0  0  # atno 27199 bound_to 7884
  227.6656   48.6513   16.2671 LP  0  0  0  0  0  0  0  0  0  0  0  0  # atno 27200 bound_to 7884
  227.3806   46.3804   15.5896 LP  0  0  0  0  0  0  0  0  0  0  0  0  # atno 27201 bound_to 8017
  223.5202   47.0600   14.0393 LP  0  0  0  0  0  0  0  0  0  0  0  0  # atno 27202 bound_to 8020
  224.9764   47.9968   14.0839 LP  0  0  0  0  0  0  0  0  0  0  0  0  # atno 27203 bound_to 8020
  225.5514   45.2466   11.6221 LP  0  0  0  0  0  0  0  0  0  0  0  0  # atno 27204 bound_to 8095
  222.2718   44.3084   10.4500 LP  0  0  0  0  0  0  0  0  0  0  0  0  # atno 27205 bound_to 8098
  222.4936   44.0823   12.1528 LP  0  0  0  0  0  0  0  0  0  0  0  0  # atno 27206 bound_to 8098
  221.5666   47.5491   11.4035 LP  0  0  0  0  0  0  0  0  0  0  0  0  # atno 27207 bound_to 8159
  219.1067   48.2505   11.7394 LP  0  0  0  0  0  0  0  0  0  0  0  0  # atno 27208 bound_to 8162
  218.2902   47.7920   10.2824 LP  0  0  0  0  0  0  0  0  0  0  0  0  # atno 27209 bound_to 8162
  219.6112   45.9410   10.4690 LP  0  0  0  0  0  0  0  0  0  0  0  0  # atno 27210 bound_to 8231
  226.3586   47.3336    8.4637 LP  0  0  0  0  0  0  0  0  0  0  0  0  # atno 27211 bound_to 9532
  226.4288   48.6686    7.5257 LP  0  0  0  0  0  0  0  0  0  0  0  0  # atno 27212 bound_to 9532
  226.1474   44.3609   11.2236 LP  0  0  0  0  0  0  0  0  0  0  0  0  # atno 27213 bound_to 10092
  226.5916   44.2875    9.5511 LP  0  0  0  0  0  0  0  0  0  0  0  0  # atno 27214 bound_to 10092
  215.6348   46.8316    9.5145 LP  0  0  0  0  0  0  0  0  0  0  0  0  # atno 27215 bound_to 8305
  223.0100   41.4399   11.1154 LP  0  0  0  0  0  0  0  0  0  0  0  0  # atno 27216 bound_to 10177
  218.7147   43.2484   10.9243 LP  0  0  0  0  0  0  0  0  0  0  0  0  # atno 27217 bound_to 10180
  220.4099   43.3619   10.5872 LP  0  0  0  0  0  0  0  0  0  0  0  0  # atno 27218 bound_to 10180
  229.1955   47.5994   17.4624 LP  0  0  0  0  0  0  0  0  0  0  0  0  # atno 27219 bound_to 7931
  229.2818   44.3462   14.8118 LP  0  0  0  0  0  0  0  0  0  0  0  0  # atno 27220 bound_to 7934
  228.9142   44.8794   13.2054 LP  0  0  0  0  0  0  0  0  0  0  0  0  # atno 27221 bound_to 7934
  230.7851   45.1489   16.7927 LP  0  0  0  0  0  0  0  0  0  0  0  0  # atno 27222 bound_to 7726
  229.7814   43.7392   16.7183 LP  0  0  0  0  0  0  0  0  0  0  0  0  # atno 27223 bound_to 7726
  226.6911   45.0604   19.2126 LP  0  0  0  0  0  0  0  0  0  0  0  0  # atno 27224 bound_to 7804
  227.2223   43.9890   17.9596 LP  0  0  0  0  0  0  0  0  0  0  0  0  # atno 27225 bound_to 7804
  229.5133   45.2999   18.6026 LP  0  0  0  0  0  0  0  0  0  0  0  0  # atno 27226 bound_to 7881
  230.6406   49.1503   20.3869 LP  0  0  0  0  0  0  0  0  0  0  0  0  # atno 27227 bound_to 7886
  230.3530   48.8616   18.8055 LP  0  0  0  0  0  0  0  0  0  0  0  0  # atno 27228 bound_to 7886

> <Gold.Score>
     Fitness  S(hb_ext) S(vdw_ext)  S(hb_int)    S(int)      intcor
     30.17       7.47      17.57       0.00      -1.46      -0.78

> <Gold.Goldscore.Fitness>
30.1686

> <Gold.Goldscore.Internal.Vdw>
-1.8007

> <Gold.Goldscore.Internal.Torsion>
-0.4379

> <Gold.Goldscore.External.Vdw>
17.5689

> <Gold.Goldscore.Internal.HBond>
0.0000

> <Gold.Goldscore.External.HBond>
7.4731

> <Gold.Goldscore.Internal.Correction>
-0.7769

> <Gold.Goldscore.Hbonds>
donor molecule, donor type, donor heavy atom, donor atom, acceptor molecule, acceptor atom, score
      P1  H  6803  6824       L1     9  1.00
      P1  H  8017  8033       L1    17  0.59
      P1  H  8102  8119       L1    11  0.14

> <Gold.Goldscore.Internal.Vdw.Weighted>
-1.8007

> <Gold.Goldscore.Internal.Torsion.Weighted>
-0.4379

> <Gold.Goldscore.External.Vdw.Weighted>
24.1572

> <Gold.Goldscore.Internal.HBond.Weighted>
0.0000

> <Gold.Goldscore.External.HBond.Weighted>
7.4731

> <Gold.Goldscore.Internal.Correction.Weighted>
-0.7769

> <Gold.Rescore>
     Score     S(PLP)   S(hbond)     S(cho)   S(metal)  DE(clash)   DE(tors)     intcor
     27.25     -20.55       2.75       0.00       0.00       0.94       0.31       ----

> <Gold.PLP.Fitness>
27.2503

> <Gold.PLP.PLP>
-20.5480

> <Gold.PLP.part.hbond>
-2.8345

> <Gold.PLP.part.metal>
0.0000

> <Gold.PLP.part.buried>
-2.2148

> <Gold.PLP.part.nonpolar>
-16.9386

> <Gold.PLP.part.repulsive>
0.7945

> <Gold.PLP.ligand.clash>
0.9416

> <Gold.PLP.ligand.torsion>
0.3071

> <Gold.PLP.Chemscore.Hbond>
2.7527

> <Gold.PLP.Chemscore.CHOScore>
0.0000

> <Gold.PLP.Chemscore.Metal>
0.0000

> <Gold.Chemscore.Hbonds>
donor molecule, donor type, donor heavy atom, donor atom, acceptor molecule, acceptor atom, score
      L1  H     8    22       P1  8020  0.01
      P1  H  6803  6824       L1     9  0.71
      P1  H  8017  8033       L1    17  1.00
      P1  H  8102  8119       L1    11  0.15

> <Gold.PLP.Chemscore.Internal.Correction>
   9.000000E+99

