#       Name:                CT1002167954
#       Creating user name   hitesit
#       Creation time:       Sun Apr 16 20:27:18 2023


#       File generated by GOLD software.
#

@<TRIPOS>MOLECULE
CT1002167954|ligand_prepared|mol2|1|dock6
    29    30     1
SMALL
NO_CHARGES


@<TRIPOS>ATOM
      1 C1         223.6925  51.4484  13.5710 C.3            1 RES1               0.0000
      2 C2         223.2007  52.8657  13.9291 C.ar           1 RES1               0.0000
      3 C3         222.9014  50.4852  14.4512 C.2            1 RES1               0.0000
      4 C4         223.4417  51.2746  12.0771 C.2            1 RES1               0.0000
      5 C5         225.2005  51.2259  13.8313 C.3            1 RES1               0.0000
      6 C6         223.4646  53.4118  15.1816 C.ar           1 RES1               0.0000
      7 C7         222.4857  53.6387  13.0182 C.ar           1 RES1               0.0000
      8 N8         221.9192  49.7485  13.8576 N.am           1 RES1               0.0000
      9 O9         223.1097  50.4023  15.6554 O.2            1 RES1               0.0000
     10 N10        222.5212  50.3383  11.6852 N.am           1 RES1               0.0000
     11 O11        224.0209  51.9517  11.2366 O.2            1 RES1               0.0000
     12 C12        225.6654  49.8029  13.5644 C.3            1 RES1               0.0000
     13 C13        223.0319  54.6857  15.5107 C.ar           1 RES1               0.0000
     14 C14        222.0537  54.9123  13.3493 C.ar           1 RES1               0.0000
     15 C15        221.7262  49.5888  12.5089 C.2            1 RES1               0.0000
     16 C16        222.3267  55.4369  14.5947 C.ar           1 RES1               0.0000
     17 O17        220.8825  48.8065  12.0808 O.2            1 RES1               0.0000
     18 H18        225.7737  51.9101  13.1936 H              1 RES1               0.0000
     19 H19        225.4195  51.4787  14.8761 H              1 RES1               0.0000
     20 H20        224.0161  52.8346  15.9163 H              1 RES1               0.0000
     21 H21        222.2585  53.2460  12.0329 H              1 RES1               0.0000
     22 H22        221.2678  49.2723  14.4735 H              1 RES1               0.0000
     23 H23        222.4193  50.1857  10.6868 H              1 RES1               0.0000
     24 H24        226.7304  49.7015  13.7626 H              1 RES1               0.0000
     25 H25        225.1338  49.0978  14.2000 H              1 RES1               0.0000
     26 H26        225.4859  49.5267  12.5274 H              1 RES1               0.0000
     27 H27        223.2481  55.0935  16.4926 H              1 RES1               0.0000
     28 H28        221.4985  55.4998  12.6256 H              1 RES1               0.0000
     29 H29        221.9882  56.4350  14.8526 H              1 RES1               0.0000
@<TRIPOS>BOND
    1    1    2 1     
    2    1    3 1     
    3    1    4 1     
    4    1    5 1     
    5    2    6 ar    
    6    2    7 ar    
    7    3    8 1     
    8    3    9 2     
    9    4   10 1     
   10    4   11 2     
   11    5   12 1     
   12    5   18 1     
   13    5   19 1     
   14    6   13 ar    
   15    6   20 1     
   16    7   14 ar    
   17    7   21 1     
   18    8   15 1     
   19    8   22 1     
   20   10   15 1     
   21   10   23 1     
   22   12   24 1     
   23   12   25 1     
   24   12   26 1     
   25   13   16 ar    
   26   13   27 1     
   27   14   16 ar    
   28   14   28 1     
   29   15   17 2     
   30   16   29 1     
@<TRIPOS>SUBSTRUCTURE
      1 RES1           1
@<TRIPOS>SET
DONOR_HYDROGENS      STATIC     ATOMS    <user>   **** ""
2 22 23
ATOM$RED        STATIC     ATOMS    COLORGROUP SYSTEM
2 22 23
@<TRIPOS>COMMENT
> <Gold.Version>
2022.3.0

> <Gold.Id.Protein>
unknown|4d1n_clean|pdb

> <Gold.Protein.RotatedTorsions>
[ 6581 6565 6566 6567 ] final   84.36 input  113.40 | X-H torsion
[ 6673 6649 6650 6651 ] final   52.92 input  128.31 | X-H torsion
[ 8033 8017 8018 8019 ] final   80.84 input   38.97 | X-H torsion
[ 8113 8095 8096 8097 ] final -175.55 input   94.22 | X-H torsion
[ 8173 8159 8160 8161 ] final -177.94 input   69.09 | X-H torsion
[ 8253 8231 8232 8233 ] final  -96.90 input   84.65 | X-H torsion
[ 9561 9532 9531 9529 ] final  161.49 input   60.02 | X-H torsion
[ 8321 8305 8306 8307 ] final -166.69 input   94.69 | X-H torsion
[ 10203 10177 10178 10179 ] final  -41.41 input   41.54 | X-H torsion
[ 7949 7931 7932 7933 ] final  115.34 input   80.35 | X-H torsion
[ 7893 7881 7882 7883 ] final   60.73 input   97.23 | X-H torsion
[ 7897 7886 7885 7882 ] final  -77.50 input   59.98 | X-H torsion
[ 6813 6795 6796 6797 ] final   60.40 input  114.70 | X-H torsion
[ 27193 6328 6327 6326 ] final  -76.44 input    0.00 | X-H torsion
[ 27196 6568 6567 6566 ] final   90.40 input   -0.00 | X-H torsion
[ 27199 7884 7883 7882 ] final  -78.46 input   -0.00 | X-H torsion
[ 27202 8020 8019 8018 ] final -121.03 input   -0.00 | X-H torsion
[ 27205 8098 8097 8096 ] final   82.52 input   -0.00 | X-H torsion
[ 27208 8162 8161 8160 ] final -122.31 input    0.00 | X-H torsion
[ 27213 10092 10091 10090 ] final  -69.42 input    0.00 | X-H torsion
[ 27217 10180 10179 10178 ] final   66.32 input    0.00 | X-H torsion
[ 27220 7934 7933 7932 ] final  100.34 input    0.00 | X-H torsion
[ 27222 7726 7725 7724 ] final -127.35 input    0.00 | X-H torsion
[ 27224 7804 7803 7802 ] final  -52.25 input    0.00 | X-H torsion

> <Gold.Protein.ActiveResidues>
 ASP403  THR404  LEU406  ILE407  TYR408  ALA410  LYS411  TRP414  GLN425  TRP426 
 SER427  LYS428  LEU429  GLN430  VAL431  PHE432  ASP433  TYR453  SER462  ALA463 
 ILE464 

> <Gold.Protein.RotatedAtoms>
  216.9937   48.8225   18.7364 H   0  0  0  0  0  0  0  0  0  0  0  0  # atno 6581 bound_to 6565
  218.3788   48.1361   20.1683 H   0  0  0  0  0  0  0  0  0  0  0  0  # atno 6673 bound_to 6649
  221.3246   44.5851   20.3633 H   0  0  0  0  0  0  0  0  0  0  0  0  # atno 6813 bound_to 6795
  230.1558   45.7901   19.1622 H   0  0  0  0  0  0  0  0  0  0  0  0  # atno 7893 bound_to 7881
  230.8563   47.7882   20.1403 H   0  0  0  0  0  0  0  0  0  0  0  0  # atno 7897 bound_to 7886
  230.1016   46.5703   17.2722 H   0  0  0  0  0  0  0  0  0  0  0  0  # atno 7949 bound_to 7931
  226.9203   46.9106   15.4622 H   0  0  0  0  0  0  0  0  0  0  0  0  # atno 8033 bound_to 8017
  225.8656   46.2171   12.0842 H   0  0  0  0  0  0  0  0  0  0  0  0  # atno 8113 bound_to 8095
  222.3929   46.5286   12.4580 H   0  0  0  0  0  0  0  0  0  0  0  0  # atno 8173 bound_to 8159
  219.1481   46.1559   11.0350 H   0  0  0  0  0  0  0  0  0  0  0  0  # atno 8253 bound_to 8231
  216.4071   46.3915   10.9047 H   0  0  0  0  0  0  0  0  0  0  0  0  # atno 8321 bound_to 8305
  226.5876   47.1741    8.4220 H   0  0  0  0  0  0  0  0  0  0  0  0  # atno 9561 bound_to 9532
  222.1641   42.1565   10.2769 H   0  0  0  0  0  0  0  0  0  0  0  0  # atno 10203 bound_to 10177
  215.5046   49.4756   18.0126 LP  0  0  0  0  0  0  0  0  0  0  0  0  # atno 27193 bound_to 6328
  216.4925   50.5059   17.0315 LP  0  0  0  0  0  0  0  0  0  0  0  0  # atno 27194 bound_to 6328
  216.8626   47.1658   18.1831 LP  0  0  0  0  0  0  0  0  0  0  0  0  # atno 27195 bound_to 6565
  221.4088   47.0060   18.9689 LP  0  0  0  0  0  0  0  0  0  0  0  0  # atno 27196 bound_to 6568
  220.1938   45.8636   19.4366 LP  0  0  0  0  0  0  0  0  0  0  0  0  # atno 27197 bound_to 6568
  219.8731   48.8653   19.6275 LP  0  0  0  0  0  0  0  0  0  0  0  0  # atno 27198 bound_to 6649
  226.7743   48.2988   17.0773 LP  0  0  0  0  0  0  0  0  0  0  0  0  # atno 27199 bound_to 7884
  228.1415   49.3620   17.0999 LP  0  0  0  0  0  0  0  0  0  0  0  0  # atno 27200 bound_to 7884
  228.0052   46.5088   14.1502 LP  0  0  0  0  0  0  0  0  0  0  0  0  # atno 27201 bound_to 8017
  223.4987   47.1261   13.8991 LP  0  0  0  0  0  0  0  0  0  0  0  0  # atno 27202 bound_to 8020
  224.9978   47.9306   14.2241 LP  0  0  0  0  0  0  0  0  0  0  0  0  # atno 27203 bound_to 8020
  224.6530   45.0672   12.5839 LP  0  0  0  0  0  0  0  0  0  0  0  0  # atno 27204 bound_to 8095
  222.7037   44.0664   12.0953 LP  0  0  0  0  0  0  0  0  0  0  0  0  # atno 27205 bound_to 8098
  222.0616   44.3242   10.5075 LP  0  0  0  0  0  0  0  0  0  0  0  0  # atno 27206 bound_to 8098
  221.6173   47.2510   11.0746 LP  0  0  0  0  0  0  0  0  0  0  0  0  # atno 27207 bound_to 8159
  217.8851   47.7743   11.1770 LP  0  0  0  0  0  0  0  0  0  0  0  0  # atno 27208 bound_to 8162
  219.5117   48.2682   10.8448 LP  0  0  0  0  0  0  0  0  0  0  0  0  # atno 27209 bound_to 8162
  219.1497   44.4604   10.6250 LP  0  0  0  0  0  0  0  0  0  0  0  0  # atno 27210 bound_to 8231
  226.2257   48.5902    7.7068 LP  0  0  0  0  0  0  0  0  0  0  0  0  # atno 27211 bound_to 9532
  227.6180   47.8195    7.3405 LP  0  0  0  0  0  0  0  0  0  0  0  0  # atno 27212 bound_to 9532
  226.6006   44.4259   11.2158 LP  0  0  0  0  0  0  0  0  0  0  0  0  # atno 27213 bound_to 10092
  226.1384   44.2225    9.5590 LP  0  0  0  0  0  0  0  0  0  0  0  0  # atno 27214 bound_to 10092
  215.6052   46.2816    9.3530 LP  0  0  0  0  0  0  0  0  0  0  0  0  # atno 27215 bound_to 8305
  222.8197   42.1094   11.8977 LP  0  0  0  0  0  0  0  0  0  0  0  0  # atno 27216 bound_to 10177
  220.2139   43.2824   10.1858 LP  0  0  0  0  0  0  0  0  0  0  0  0  # atno 27217 bound_to 10180
  218.9107   43.3279   11.3258 LP  0  0  0  0  0  0  0  0  0  0  0  0  # atno 27218 bound_to 10180
  228.3907   46.9371   17.3052 LP  0  0  0  0  0  0  0  0  0  0  0  0  # atno 27219 bound_to 7931
  228.8165   44.1816   14.7049 LP  0  0  0  0  0  0  0  0  0  0  0  0  # atno 27220 bound_to 7934
  229.3795   45.0439   13.3123 LP  0  0  0  0  0  0  0  0  0  0  0  0  # atno 27221 bound_to 7934
  230.0950   45.0780   17.3147 LP  0  0  0  0  0  0  0  0  0  0  0  0  # atno 27222 bound_to 7726
  230.4715   43.8101   16.1964 LP  0  0  0  0  0  0  0  0  0  0  0  0  # atno 27223 bound_to 7726
  227.2190   43.9717   17.9733 LP  0  0  0  0  0  0  0  0  0  0  0  0  # atno 27224 bound_to 7804
  226.6944   45.0776   19.1988 LP  0  0  0  0  0  0  0  0  0  0  0  0  # atno 27225 bound_to 7804
  228.6819   45.0505   19.7377 LP  0  0  0  0  0  0  0  0  0  0  0  0  # atno 27226 bound_to 7881
  230.5313   49.3824   20.0990 LP  0  0  0  0  0  0  0  0  0  0  0  0  # atno 27227 bound_to 7886
  230.4133   48.4867   18.7387 LP  0  0  0  0  0  0  0  0  0  0  0  0  # atno 27228 bound_to 7886

> <Gold.Score>
     Fitness  S(hb_ext) S(vdw_ext)  S(hb_int)    S(int)      intcor
     24.63       6.82      14.78       0.00      -2.51      -0.78

> <Gold.Goldscore.Fitness>
24.6330

> <Gold.Goldscore.Internal.Vdw>
-2.8938

> <Gold.Goldscore.Internal.Torsion>
-0.3915

> <Gold.Goldscore.External.Vdw>
14.7817

> <Gold.Goldscore.Internal.HBond>
0.0000

> <Gold.Goldscore.External.HBond>
6.8165

> <Gold.Goldscore.Internal.Correction>
-0.7769

> <Gold.Goldscore.Hbonds>
donor molecule, donor type, donor heavy atom, donor atom, acceptor molecule, acceptor atom, score
      P1  H  6803  6824       L1     9  0.05
      P1  H  8102  8119       L1    11  0.17
      P1  H  8231  8253       L1    17  0.08
      L1  H    10    23       P1  8103  1.00

> <Gold.Goldscore.Internal.Vdw.Weighted>
-2.8938

> <Gold.Goldscore.Internal.Torsion.Weighted>
-0.3915

> <Gold.Goldscore.External.Vdw.Weighted>
20.3249

> <Gold.Goldscore.Internal.HBond.Weighted>
0.0000

> <Gold.Goldscore.External.HBond.Weighted>
6.8165

> <Gold.Goldscore.Internal.Correction.Weighted>
-0.7769

> <Gold.Rescore>
     Score     S(PLP)   S(hbond)     S(cho)   S(metal)  DE(clash)   DE(tors)     intcor
     16.21     -18.58       0.00       0.00       0.00       0.63       0.87       ----

> <Gold.PLP.Fitness>
16.2083

> <Gold.PLP.PLP>
-18.5782

> <Gold.PLP.part.hbond>
0.0000

> <Gold.PLP.part.metal>
0.0000

> <Gold.PLP.part.buried>
-2.5556

> <Gold.PLP.part.nonpolar>
-16.6240

> <Gold.PLP.part.repulsive>
0.9468

> <Gold.PLP.ligand.clash>
0.6324

> <Gold.PLP.ligand.torsion>
0.8688

> <Gold.PLP.Chemscore.Hbond>
0.0000

> <Gold.PLP.Chemscore.CHOScore>
0.0000

> <Gold.PLP.Chemscore.Metal>
0.0000

> <Gold.Chemscore.Hbonds>
donor molecule, donor type, donor heavy atom, donor atom, acceptor molecule, acceptor atom, score
      L1  H    10    23       P1  8103  0.95
      P1  H  6803  6824       L1     9  0.62
      P1  H  8102  8119       L1    11  0.69

> <Gold.PLP.Chemscore.Internal.Correction>
   9.000000E+99

