#       Name:                CT1002167954
#       Creating user name   hitesit
#       Creation time:       Sun Apr 16 20:16:23 2023


#       File generated by GOLD software.
#

@<TRIPOS>MOLECULE
CT1002167954|ligand_prepared|mol2|1|dock10
    29    30     1
SMALL
NO_CHARGES


@<TRIPOS>ATOM
      1 C1          25.0617  -9.7804   1.3960 C.3            1 RES1               0.0000
      2 C2          24.7078 -11.0821   0.6483 C.ar           1 RES1               0.0000
      3 C3          23.7686  -8.9760   1.4914 C.2            1 RES1               0.0000
      4 C4          25.6314 -10.2047   2.7451 C.2            1 RES1               0.0000
      5 C5          26.1254  -8.9171   0.6785 C.3            1 RES1               0.0000
      6 C6          24.6957 -11.1193  -0.7428 C.ar           1 RES1               0.0000
      7 C7          24.3944 -12.2523   1.3346 C.ar           1 RES1               0.0000
      8 N8          23.1525  -8.9120   2.7065 N.am           1 RES1               0.0000
      9 O9          23.2760  -8.4389   0.5070 O.2            1 RES1               0.0000
     10 N10         24.9229  -9.8799   3.8721 N.am           1 RES1               0.0000
     11 O11         26.6791 -10.8320   2.8412 O.2            1 RES1               0.0000
     12 C12         26.7451  -7.8469   1.5632 C.3            1 RES1               0.0000
     13 C13         24.3845 -12.2848  -1.4232 C.ar           1 RES1               0.0000
     14 C14         24.0833 -13.4167   0.6522 C.ar           1 RES1               0.0000
     15 C15         23.6939  -9.2797   3.9120 C.2            1 RES1               0.0000
     16 C16         24.0786 -13.4343  -0.7263 C.ar           1 RES1               0.0000
     17 O17         23.0948  -9.0695   4.9627 O.2            1 RES1               0.0000
     18 H18         26.9221  -9.5740   0.3081 H              1 RES1               0.0000
     19 H19         25.6603  -8.4323  -0.1888 H              1 RES1               0.0000
     20 H20         24.9315 -10.2239  -1.3083 H              1 RES1               0.0000
     21 H21         24.3908 -12.2615   2.4193 H              1 RES1               0.0000
     22 H22         22.2013  -8.5581   2.7199 H              1 RES1               0.0000
     23 H23         25.3514 -10.1064   4.7640 H              1 RES1               0.0000
     24 H24         27.4843  -7.2703   1.0110 H              1 RES1               0.0000
     25 H25         25.9843  -7.1606   1.9291 H              1 RES1               0.0000
     26 H26         27.2386  -8.2955   2.4230 H              1 RES1               0.0000
     27 H27         24.3809 -12.2931  -2.5082 H              1 RES1               0.0000
     28 H28         23.8425 -14.3189   1.2048 H              1 RES1               0.0000
     29 H29         23.8352 -14.3473  -1.2596 H              1 RES1               0.0000
@<TRIPOS>BOND
    1    1    2 1     
    2    1    3 1     
    3    1    4 1     
    4    1    5 1     
    5    2    6 ar    
    6    2    7 ar    
    7    3    8 1     
    8    3    9 2     
    9    4   10 1     
   10    4   11 2     
   11    5   12 1     
   12    5   18 1     
   13    5   19 1     
   14    6   13 ar    
   15    6   20 1     
   16    7   14 ar    
   17    7   21 1     
   18    8   15 1     
   19    8   22 1     
   20   10   15 1     
   21   10   23 1     
   22   12   24 1     
   23   12   25 1     
   24   12   26 1     
   25   13   16 ar    
   26   13   27 1     
   27   14   16 ar    
   28   14   28 1     
   29   15   17 2     
   30   16   29 1     
@<TRIPOS>SUBSTRUCTURE
      1 RES1           1
@<TRIPOS>SET
DONOR_HYDROGENS      STATIC     ATOMS    <user>   **** ""
2 22 23
ATOM$RED        STATIC     ATOMS    COLORGROUP SYSTEM
2 22 23
@<TRIPOS>COMMENT
> <Gold.Version>
2022.3.0

> <Gold.Id.Protein>
unknown|3oxt_clean|pdb

> <Gold.Protein.RotatedTorsions>
[ 3607 3598 3597 3595 ] final -131.85 input   60.01 | X-H torsion
[ 3527 3518 3517 3515 ] final  139.51 input   60.00 | X-H torsion
[ 3788 3779 3778 3776 ] final    1.89 input   59.99 | X-H torsion
[ 3080 3073 3071 3068 ] final  -13.31 input   60.03 | X-H torsion
[ 5059 5050 5049 5047 ] final   79.35 input   60.00 | X-H torsion
[ 2545 2534 2533 2532 ] final  166.82 input   59.97 | X-H torsion
[  568  565  563  560 ] final  -13.80 input   59.99 | X-H torsion
[ 1886 1881 1880 1877 ] final  -57.25 input   59.97 | X-H torsion
[ 3128 3121 3120 3118 ] final   68.09 input   60.01 | X-H torsion
[  590  585  584  581 ] final  -79.64 input   60.02 | X-H torsion

> <Gold.Protein.ActiveResidues>
 LEU49   GLY50   THR51   GLY52   SER53   PHE54   LEU82   LYS83   GLN84   HIS87  
 GLY126  GLU127  MET128  PHE129  SER130  HIS131  LEU132  ARG133  ARG134  ILE135 
 GLY136  ARG137  ARG165  ASP166  LEU167  LYS168  PRO169  GLU170  ASN171  LEU173 
 ASP184  GLY186  PHE187  TPO197  LEU198  CYS199  GLY200  THR201  PRO202  GLU203 
 TYR204  LEU205  ILE209  ILE210  VAL226  LEU227  TYR229  GLU230  ALA233  GLY234 
 TYR235  PRO236  PRO237  PHE238  PHE239  ALA240  ASP241  GLN242  PRO243  ILE244 
 GLN245  ILE246  TYR247  LYS249  ARG256  PHE257  PRO258  SER259  ASN326  PHE327 
 ASP328  ASP329  TYR330 

> <Gold.Protein.RotatedAtoms>
   21.4482  -12.3963    6.1819 H   0  0  0  0  0  0  0  0  0  0  0  0  # atno 568  bound_to 565 
   17.8522  -10.9925   -1.3123 H   0  0  0  0  0  0  0  0  0  0  0  0  # atno 590  bound_to 585 
   26.3185   -5.0277   12.3714 H   0  0  0  0  0  0  0  0  0  0  0  0  # atno 1886 bound_to 1881
   20.0813   -4.8592    0.2522 H   0  0  0  0  0  0  0  0  0  0  0  0  # atno 2545 bound_to 2534
   19.6754   -4.1620    1.7006 H   0  0  0  0  0  0  0  0  0  0  0  0  # atno 2546 bound_to 2534
   19.4364   -3.3332    0.2849 H   0  0  0  0  0  0  0  0  0  0  0  0  # atno 2547 bound_to 2534
   18.0762   -2.8361   -1.3134 H   0  0  0  0  0  0  0  0  0  0  0  0  # atno 3080 bound_to 3073
   22.4837    3.4708    3.8063 H   0  0  0  0  0  0  0  0  0  0  0  0  # atno 3128 bound_to 3121
   17.1186   14.2963    7.7011 H   0  0  0  0  0  0  0  0  0  0  0  0  # atno 3527 bound_to 3518
   17.5151   13.6174   12.2097 H   0  0  0  0  0  0  0  0  0  0  0  0  # atno 3607 bound_to 3598
   10.6114   -0.4822   -2.5183 H   0  0  0  0  0  0  0  0  0  0  0  0  # atno 3788 bound_to 3779
   24.3031  -10.0450    8.3590 H   0  0  0  0  0  0  0  0  0  0  0  0  # atno 5059 bound_to 5050
   15.9420   13.3984   12.5636 LP  0  0  0  0  0  0  0  0  0  0  0  0  # atno 5367 bound_to 3598
   16.3989   13.7281   11.0309 LP  0  0  0  0  0  0  0  0  0  0  0  0  # atno 5368 bound_to 3598
   16.8897   12.8169    8.3403 LP  0  0  0  0  0  0  0  0  0  0  0  0  # atno 5371 bound_to 3518
   16.1401   13.2337    6.9507 LP  0  0  0  0  0  0  0  0  0  0  0  0  # atno 5372 bound_to 3518
    9.5245   -1.0525   -3.5864 LP  0  0  0  0  0  0  0  0  0  0  0  0  # atno 5429 bound_to 3779
    9.1978   -1.0878   -1.9868 LP  0  0  0  0  0  0  0  0  0  0  0  0  # atno 5430 bound_to 3779
   18.6788   -2.7087    0.1927 LP  0  0  0  0  0  0  0  0  0  0  0  0  # atno 5433 bound_to 3073
   19.4056   -1.9359   -1.0488 LP  0  0  0  0  0  0  0  0  0  0  0  0  # atno 5434 bound_to 3073
   24.5170   -9.5914    9.9065 LP  0  0  0  0  0  0  0  0  0  0  0  0  # atno 5443 bound_to 5050
   23.0091   -9.7669    9.3048 LP  0  0  0  0  0  0  0  0  0  0  0  0  # atno 5444 bound_to 5050
   20.8525  -13.5614    7.1494 LP  0  0  0  0  0  0  0  0  0  0  0  0  # atno 5447 bound_to 565 
   20.0778  -13.1694    5.7664 LP  0  0  0  0  0  0  0  0  0  0  0  0  # atno 5448 bound_to 565 
   27.8294   -5.6105   12.2120 LP  0  0  0  0  0  0  0  0  0  0  0  0  # atno 5453 bound_to 1881
   27.2071   -4.6235   11.0695 LP  0  0  0  0  0  0  0  0  0  0  0  0  # atno 5454 bound_to 1881
   21.4953    4.7194    4.1422 LP  0  0  0  0  0  0  0  0  0  0  0  0  # atno 5481 bound_to 3121
   22.8296    4.9531    3.2303 LP  0  0  0  0  0  0  0  0  0  0  0  0  # atno 5482 bound_to 3121
   16.9496  -11.4070   -2.6018 LP  0  0  0  0  0  0  0  0  0  0  0  0  # atno 5489 bound_to 585 
   18.2214  -12.3315   -2.1607 LP  0  0  0  0  0  0  0  0  0  0  0  0  # atno 5490 bound_to 585 

> <Gold.Score>
     Fitness  S(hb_ext) S(vdw_ext)  S(hb_int)    S(int)      intcor
     33.82       0.00      25.23       0.00      -0.87      -0.76

> <Gold.Goldscore.Fitness>
33.8240

> <Gold.Goldscore.Internal.Vdw>
-0.8985

> <Gold.Goldscore.Internal.Torsion>
-0.7268

> <Gold.Goldscore.External.Vdw>
25.2297

> <Gold.Goldscore.Internal.HBond>
0.0000

> <Gold.Goldscore.External.HBond>
0.0000

> <Gold.Goldscore.Internal.Correction>
-0.7585

> <Gold.Goldscore.Internal.Vdw.Weighted>
-0.8985

> <Gold.Goldscore.Internal.Torsion.Weighted>
-0.7268

> <Gold.Goldscore.External.Vdw.Weighted>
34.6908

> <Gold.Goldscore.Internal.HBond.Weighted>
0.0000

> <Gold.Goldscore.External.HBond.Weighted>
0.0000

> <Gold.Goldscore.Internal.Correction.Weighted>
-0.7585

> <Gold.Rescore>
     Score     S(PLP)   S(hbond)     S(cho)   S(metal)  DE(clash)   DE(tors)     intcor
     31.94     -34.15       0.00       0.00       0.00       1.42       0.39       ----

> <Gold.PLP.Fitness>
31.9420

> <Gold.PLP.PLP>
-34.1529

> <Gold.PLP.part.hbond>
-0.9671

> <Gold.PLP.part.metal>
0.0000

> <Gold.PLP.part.buried>
-5.2258

> <Gold.PLP.part.nonpolar>
-29.1110

> <Gold.PLP.part.repulsive>
0.5426

> <Gold.PLP.ligand.clash>
1.4249

> <Gold.PLP.ligand.torsion>
0.3930

> <Gold.PLP.Chemscore.Hbond>
0.0000

> <Gold.PLP.Chemscore.CHOScore>
0.0000

> <Gold.PLP.Chemscore.Metal>
0.0000

> <Gold.PLP.Chemscore.Internal.Correction>
   9.000000E+99

