#       Name:                CT1002167954
#       Creating user name   hitesit
#       Creation time:       Sun Apr 16 20:16:18 2023


#       File generated by GOLD software.
#

@<TRIPOS>MOLECULE
CT1002167954|ligand_prepared|mol2|1|dock6
    29    30     1
SMALL
NO_CHARGES


@<TRIPOS>ATOM
      1 C1          19.3835  -7.3622  -2.9881 C.3            1 RES1               0.0000
      2 C2          18.2140  -6.4506  -2.5639 C.ar           1 RES1               0.0000
      3 C3          19.1083  -7.7676  -4.4331 C.2            1 RES1               0.0000
      4 C4          20.6540  -6.5397  -2.8039 C.2            1 RES1               0.0000
      5 C5          19.5169  -8.6451  -2.1349 C.3            1 RES1               0.0000
      6 C6          18.4109  -5.0855  -2.3781 C.ar           1 RES1               0.0000
      7 C7          16.9342  -6.9587  -2.3576 C.ar           1 RES1               0.0000
      8 N8          19.8675  -7.1891  -5.4072 N.am           1 RES1               0.0000
      9 O9          18.2124  -8.5532  -4.7169 O.2            1 RES1               0.0000
     10 N10         21.3731  -6.2097  -3.9227 N.am           1 RES1               0.0000
     11 O11         21.0299  -6.1603  -1.7016 O.2            1 RES1               0.0000
     12 C12         20.6082  -9.5893  -2.6141 C.3            1 RES1               0.0000
     13 C13         17.3658  -4.2579  -2.0026 C.ar           1 RES1               0.0000
     14 C14         15.8905  -6.1293  -1.9818 C.ar           1 RES1               0.0000
     15 C15         21.0210  -6.4710  -5.2188 C.2            1 RES1               0.0000
     16 C16         16.1049  -4.7790  -1.8046 C.ar           1 RES1               0.0000
     17 O17         21.6924  -6.0941  -6.1750 O.2            1 RES1               0.0000
     18 H18         19.7284  -8.3586  -1.0973 H              1 RES1               0.0000
     19 H19         18.5584  -9.1784  -2.1468 H              1 RES1               0.0000
     20 H20         19.3968  -4.6577  -2.5269 H              1 RES1               0.0000
     21 H21         16.7424  -8.0181  -2.4901 H              1 RES1               0.0000
     22 H22         19.5481  -7.3007  -6.3642 H              1 RES1               0.0000
     23 H23         22.2525  -5.7245  -3.7757 H              1 RES1               0.0000
     24 H24         20.6593 -10.4727  -1.9810 H              1 RES1               0.0000
     25 H25         20.4164  -9.9144  -3.6345 H              1 RES1               0.0000
     26 H26         21.5795  -9.0995  -2.5913 H              1 RES1               0.0000
     27 H27         17.5401  -3.1961  -1.8631 H              1 RES1               0.0000
     28 H28         14.8999  -6.5439  -1.8265 H              1 RES1               0.0000
     29 H29         15.2863  -4.1304  -1.5108 H              1 RES1               0.0000
@<TRIPOS>BOND
    1    1    2 1     
    2    1    3 1     
    3    1    4 1     
    4    1    5 1     
    5    2    6 ar    
    6    2    7 ar    
    7    3    8 1     
    8    3    9 2     
    9    4   10 1     
   10    4   11 2     
   11    5   12 1     
   12    5   18 1     
   13    5   19 1     
   14    6   13 ar    
   15    6   20 1     
   16    7   14 ar    
   17    7   21 1     
   18    8   15 1     
   19    8   22 1     
   20   10   15 1     
   21   10   23 1     
   22   12   24 1     
   23   12   25 1     
   24   12   26 1     
   25   13   16 ar    
   26   13   27 1     
   27   14   16 ar    
   28   14   28 1     
   29   15   17 2     
   30   16   29 1     
@<TRIPOS>SUBSTRUCTURE
      1 RES1           1
@<TRIPOS>SET
DONOR_HYDROGENS      STATIC     ATOMS    <user>   **** ""
2 22 23
ATOM$RED        STATIC     ATOMS    COLORGROUP SYSTEM
2 22 23
@<TRIPOS>COMMENT
> <Gold.Version>
2022.3.0

> <Gold.Id.Protein>
unknown|3oxt_clean|pdb

> <Gold.Protein.RotatedTorsions>
[ 3607 3598 3597 3595 ] final   70.79 input   60.01 | X-H torsion
[ 3527 3518 3517 3515 ] final -161.94 input   60.00 | X-H torsion
[ 3788 3779 3778 3776 ] final -100.01 input   59.99 | X-H torsion
[ 3080 3073 3071 3068 ] final -136.47 input   60.03 | X-H torsion
[ 5059 5050 5049 5047 ] final -101.55 input   60.00 | X-H torsion
[ 2545 2534 2533 2532 ] final   27.55 input   59.97 | X-H torsion
[  568  565  563  560 ] final   40.70 input   59.99 | X-H torsion
[ 1886 1881 1880 1877 ] final  108.40 input   59.97 | X-H torsion
[ 3128 3121 3120 3118 ] final  132.97 input   60.01 | X-H torsion
[  590  585  584  581 ] final  -11.17 input   60.02 | X-H torsion

> <Gold.Protein.ActiveResidues>
 LEU49   GLY50   THR51   GLY52   SER53   PHE54   LEU82   LYS83   GLN84   HIS87  
 GLY126  GLU127  MET128  PHE129  SER130  HIS131  LEU132  ARG133  ARG134  ILE135 
 GLY136  ARG137  ARG165  ASP166  LEU167  LYS168  PRO169  GLU170  ASN171  LEU173 
 ASP184  GLY186  PHE187  TPO197  LEU198  CYS199  GLY200  THR201  PRO202  GLU203 
 TYR204  LEU205  ILE209  ILE210  VAL226  LEU227  TYR229  GLU230  ALA233  GLY234 
 TYR235  PRO236  PRO237  PHE238  PHE239  ALA240  ASP241  GLN242  PRO243  ILE244 
 GLN245  ILE246  TYR247  LYS249  ARG256  PHE257  PRO258  SER259  ASN326  PHE327 
 ASP328  ASP329  TYR330 

> <Gold.Protein.RotatedAtoms>
   20.8128  -12.4841    5.6128 H   0  0  0  0  0  0  0  0  0  0  0  0  # atno 568  bound_to 565 
   18.4178  -11.8556   -1.5266 H   0  0  0  0  0  0  0  0  0  0  0  0  # atno 590  bound_to 585 
   27.8023   -5.0016   11.2540 H   0  0  0  0  0  0  0  0  0  0  0  0  # atno 1886 bound_to 1881
   19.3751   -3.2440    0.5868 H   0  0  0  0  0  0  0  0  0  0  0  0  # atno 2545 bound_to 2534
   20.0165   -4.6599    0.0100 H   0  0  0  0  0  0  0  0  0  0  0  0  # atno 2546 bound_to 2534
   19.8013   -4.4498    1.6403 H   0  0  0  0  0  0  0  0  0  0  0  0  # atno 2547 bound_to 2534
   18.7198   -2.6763    0.1937 H   0  0  0  0  0  0  0  0  0  0  0  0  # atno 3080 bound_to 3073
   23.0531    4.1147    3.2864 H   0  0  0  0  0  0  0  0  0  0  0  0  # atno 3128 bound_to 3121
   16.5604   14.0957    7.0030 H   0  0  0  0  0  0  0  0  0  0  0  0  # atno 3527 bound_to 3518
   15.6948   13.4722   12.0200 H   0  0  0  0  0  0  0  0  0  0  0  0  # atno 3607 bound_to 3598
    9.7908   -0.9321   -3.6309 H   0  0  0  0  0  0  0  0  0  0  0  0  # atno 3788 bound_to 3779
   23.5715   -9.5628   10.0121 H   0  0  0  0  0  0  0  0  0  0  0  0  # atno 5059 bound_to 5050
   16.9975   13.7759   11.0933 LP  0  0  0  0  0  0  0  0  0  0  0  0  # atno 5367 bound_to 3598
   17.1765   13.4969   12.6923 LP  0  0  0  0  0  0  0  0  0  0  0  0  # atno 5368 bound_to 3598
   17.2889   13.6466    8.3876 LP  0  0  0  0  0  0  0  0  0  0  0  0  # atno 5371 bound_to 3518
   16.3026   12.6059    7.6060 LP  0  0  0  0  0  0  0  0  0  0  0  0  # atno 5372 bound_to 3518
    9.0303   -1.1797   -2.2138 LP  0  0  0  0  0  0  0  0  0  0  0  0  # atno 5429 bound_to 3779
   10.5184   -0.5076   -2.2388 LP  0  0  0  0  0  0  0  0  0  0  0  0  # atno 5430 bound_to 3779
   19.3853   -1.9410   -1.0964 LP  0  0  0  0  0  0  0  0  0  0  0  0  # atno 5433 bound_to 3073
   18.0509   -2.8646   -1.2776 LP  0  0  0  0  0  0  0  0  0  0  0  0  # atno 5434 bound_to 3073
   23.3828  -10.0132    8.4604 LP  0  0  0  0  0  0  0  0  0  0  0  0  # atno 5443 bound_to 5050
   24.8807   -9.8311    9.0846 LP  0  0  0  0  0  0  0  0  0  0  0  0  # atno 5444 bound_to 5050
   21.4735  -12.9765    7.0162 LP  0  0  0  0  0  0  0  0  0  0  0  0  # atno 5447 bound_to 565 
   20.0966  -13.6658    6.4724 LP  0  0  0  0  0  0  0  0  0  0  0  0  # atno 5448 bound_to 565 
   26.2970   -4.6396   11.7548 LP  0  0  0  0  0  0  0  0  0  0  0  0  # atno 5453 bound_to 1881
   27.2453   -5.6208   12.6519 LP  0  0  0  0  0  0  0  0  0  0  0  0  # atno 5454 bound_to 1881
   21.7617    3.7455    4.2054 LP  0  0  0  0  0  0  0  0  0  0  0  0  # atno 5481 bound_to 3121
   21.9897    5.2785    3.6908 LP  0  0  0  0  0  0  0  0  0  0  0  0  # atno 5482 bound_to 3121
   17.2121  -10.7916   -1.7784 LP  0  0  0  0  0  0  0  0  0  0  0  0  # atno 5489 bound_to 585 
   17.3895  -12.0781   -2.7684 LP  0  0  0  0  0  0  0  0  0  0  0  0  # atno 5490 bound_to 585 

> <Gold.Score>
     Fitness  S(hb_ext) S(vdw_ext)  S(hb_int)    S(int)      intcor
     28.79       1.24      22.07       0.00      -2.79      -0.76

> <Gold.Goldscore.Fitness>
28.7895

> <Gold.Goldscore.Internal.Vdw>
-3.1529

> <Gold.Goldscore.Internal.Torsion>
-0.3958

> <Gold.Goldscore.External.Vdw>
22.0670

> <Gold.Goldscore.Internal.HBond>
0.0000

> <Gold.Goldscore.External.HBond>
1.2375

> <Gold.Goldscore.Internal.Correction>
-0.7585

> <Gold.Goldscore.Hbonds>
donor molecule, donor type, donor heavy atom, donor atom, acceptor molecule, acceptor atom, score
      P1  H  2534  2546       L1    11  0.06
      P1  H  2583  2589       L1    11  0.39
      L1  H    10    23       P1  2502  0.01

> <Gold.Goldscore.Internal.Vdw.Weighted>
-3.1529

> <Gold.Goldscore.Internal.Torsion.Weighted>
-0.3958

> <Gold.Goldscore.External.Vdw.Weighted>
30.3422

> <Gold.Goldscore.Internal.HBond.Weighted>
0.0000

> <Gold.Goldscore.External.HBond.Weighted>
1.2375

> <Gold.Goldscore.Internal.Correction.Weighted>
-0.7585

> <Gold.Rescore>
     Score     S(PLP)   S(hbond)     S(cho)   S(metal)  DE(clash)   DE(tors)     intcor
     27.40     -24.50       1.73       0.00       0.00       2.08       0.10       ----

> <Gold.PLP.Fitness>
27.4017

> <Gold.PLP.PLP>
-24.5030

> <Gold.PLP.part.hbond>
-3.6480

> <Gold.PLP.part.metal>
0.0000

> <Gold.PLP.part.buried>
-5.3431

> <Gold.PLP.part.nonpolar>
-16.6982

> <Gold.PLP.part.repulsive>
0.4617

> <Gold.PLP.ligand.clash>
2.0824

> <Gold.PLP.ligand.torsion>
0.1014

> <Gold.PLP.Chemscore.Hbond>
1.7280

> <Gold.PLP.Chemscore.CHOScore>
0.0000

> <Gold.PLP.Chemscore.Metal>
0.0000

> <Gold.Chemscore.Hbonds>
donor molecule, donor type, donor heavy atom, donor atom, acceptor molecule, acceptor atom, score
      L1  H    10    23       P1  2502  0.21
      P1  H  2534  2546       L1    11  0.02

> <Gold.PLP.Chemscore.Internal.Correction>
   9.000000E+99

