#       Name:                CT1002167954
#       Creating user name   hitesit
#       Creation time:       Sun Apr 16 20:16:12 2023


#       File generated by GOLD software.
#

@<TRIPOS>MOLECULE
CT1002167954|ligand_prepared|mol2|1|dock2
    29    30     1
SMALL
NO_CHARGES


@<TRIPOS>ATOM
      1 C1          20.6782  -9.8060  -2.2557 C.3            1 RES1               0.0000
      2 C2          21.7261 -10.8748  -1.8837 C.ar           1 RES1               0.0000
      3 C3          19.8404  -9.5728  -1.0019 C.2            1 RES1               0.0000
      4 C4          21.4622  -8.5822  -2.7167 C.2            1 RES1               0.0000
      5 C5          19.7346 -10.2297  -3.4053 C.3            1 RES1               0.0000
      6 C6          22.9354 -10.5086  -1.3002 C.ar           1 RES1               0.0000
      7 C7          21.4972 -12.2285  -2.1151 C.ar           1 RES1               0.0000
      8 N8          20.0416  -8.4123  -0.3144 N.am           1 RES1               0.0000
      9 O9          19.0437 -10.4120  -0.6006 O.2            1 RES1               0.0000
     10 N10         21.3833  -7.4452  -1.9559 N.am           1 RES1               0.0000
     11 O11         22.1606  -8.5974  -3.7227 O.2            1 RES1               0.0000
     12 C12         18.8629  -9.1001  -3.9309 C.3            1 RES1               0.0000
     13 C13         23.8803 -11.4615  -0.9577 C.ar           1 RES1               0.0000
     14 C14         22.4437 -13.1798  -1.7719 C.ar           1 RES1               0.0000
     15 C15         20.7331  -7.3142  -0.7591 C.2            1 RES1               0.0000
     16 C16         23.6350 -12.7976  -1.1928 C.ar           1 RES1               0.0000
     17 O17         20.7531  -6.2747  -0.1063 O.2            1 RES1               0.0000
     18 H18         20.3393 -10.6230  -4.2317 H              1 RES1               0.0000
     19 H19         19.0860 -11.0397  -3.0494 H              1 RES1               0.0000
     20 H20         23.1471  -9.4618  -1.1099 H              1 RES1               0.0000
     21 H21         20.5675 -12.5523  -2.5705 H              1 RES1               0.0000
     22 H22         19.6409  -8.3557   0.6165 H              1 RES1               0.0000
     23 H23         21.8527  -6.6200  -2.3151 H              1 RES1               0.0000
     24 H24         18.2204  -9.4511  -4.7357 H              1 RES1               0.0000
     25 H25         18.2296  -8.7018  -3.1409 H              1 RES1               0.0000
     26 H26         19.4755  -8.2876  -4.3163 H              1 RES1               0.0000
     27 H27         24.8169 -11.1554  -0.5034 H              1 RES1               0.0000
     28 H28         22.2466 -14.2302  -1.9594 H              1 RES1               0.0000
     29 H29         24.3753 -13.5439  -0.9240 H              1 RES1               0.0000
@<TRIPOS>BOND
    1    1    2 1     
    2    1    3 1     
    3    1    4 1     
    4    1    5 1     
    5    2    6 ar    
    6    2    7 ar    
    7    3    8 1     
    8    3    9 2     
    9    4   10 1     
   10    4   11 2     
   11    5   12 1     
   12    5   18 1     
   13    5   19 1     
   14    6   13 ar    
   15    6   20 1     
   16    7   14 ar    
   17    7   21 1     
   18    8   15 1     
   19    8   22 1     
   20   10   15 1     
   21   10   23 1     
   22   12   24 1     
   23   12   25 1     
   24   12   26 1     
   25   13   16 ar    
   26   13   27 1     
   27   14   16 ar    
   28   14   28 1     
   29   15   17 2     
   30   16   29 1     
@<TRIPOS>SUBSTRUCTURE
      1 RES1           1
@<TRIPOS>SET
DONOR_HYDROGENS      STATIC     ATOMS    <user>   **** ""
2 22 23
ATOM$RED        STATIC     ATOMS    COLORGROUP SYSTEM
2 22 23
@<TRIPOS>COMMENT
> <Gold.Version>
2022.3.0

> <Gold.Id.Protein>
unknown|3oxt_clean|pdb

> <Gold.Protein.RotatedTorsions>
[ 3607 3598 3597 3595 ] final -119.96 input   60.01 | X-H torsion
[ 3527 3518 3517 3515 ] final  170.11 input   60.00 | X-H torsion
[ 3788 3779 3778 3776 ] final -165.74 input   59.99 | X-H torsion
[ 3080 3073 3071 3068 ] final -134.98 input   60.03 | X-H torsion
[ 5059 5050 5049 5047 ] final -135.26 input   60.00 | X-H torsion
[ 2545 2534 2533 2532 ] final  -62.18 input   59.97 | X-H torsion
[  568  565  563  560 ] final  -68.67 input   59.99 | X-H torsion
[ 1886 1881 1880 1877 ] final   50.47 input   59.97 | X-H torsion
[ 3128 3121 3120 3118 ] final   50.86 input   60.01 | X-H torsion
[  590  585  584  581 ] final  -72.93 input   60.02 | X-H torsion

> <Gold.Protein.ActiveResidues>
 LEU49   GLY50   THR51   GLY52   SER53   PHE54   LEU82   LYS83   GLN84   HIS87  
 GLY126  GLU127  MET128  PHE129  SER130  HIS131  LEU132  ARG133  ARG134  ILE135 
 GLY136  ARG137  ARG165  ASP166  LEU167  LYS168  PRO169  GLU170  ASN171  LEU173 
 ASP184  GLY186  PHE187  TPO197  LEU198  CYS199  GLY200  THR201  PRO202  GLU203 
 TYR204  LEU205  ILE209  ILE210  VAL226  LEU227  TYR229  GLU230  ALA233  GLY234 
 TYR235  PRO236  PRO237  PHE238  PHE239  ALA240  ASP241  GLN242  PRO243  ILE244 
 GLN245  ILE246  TYR247  LYS249  ARG256  PHE257  PRO258  SER259  ASN326  PHE327 
 ASP328  ASP329  TYR330 

> <Gold.Protein.RotatedAtoms>
   21.5344  -12.8544    6.9081 H   0  0  0  0  0  0  0  0  0  0  0  0  # atno 568  bound_to 565 
   17.9362  -11.0585   -1.2876 H   0  0  0  0  0  0  0  0  0  0  0  0  # atno 590  bound_to 585 
   27.0202   -4.5643   11.1148 H   0  0  0  0  0  0  0  0  0  0  0  0  # atno 1886 bound_to 1881
   19.6051   -3.9931    1.6862 H   0  0  0  0  0  0  0  0  0  0  0  0  # atno 2545 bound_to 2534
   19.4863   -3.4237    0.1336 H   0  0  0  0  0  0  0  0  0  0  0  0  # atno 2546 bound_to 2534
   20.1014   -4.9367    0.4178 H   0  0  0  0  0  0  0  0  0  0  0  0  # atno 2547 bound_to 2534
   18.6999   -2.6900    0.1906 H   0  0  0  0  0  0  0  0  0  0  0  0  # atno 3080 bound_to 3073
   22.2474    3.4719    3.9576 H   0  0  0  0  0  0  0  0  0  0  0  0  # atno 3128 bound_to 3121
   16.8439   14.3002    7.2900 H   0  0  0  0  0  0  0  0  0  0  0  0  # atno 3527 bound_to 3518
   17.5499   13.6555   12.0226 H   0  0  0  0  0  0  0  0  0  0  0  0  # atno 3607 bound_to 3598
    9.0063   -1.2477   -3.0677 H   0  0  0  0  0  0  0  0  0  0  0  0  # atno 3788 bound_to 3779
   23.1578   -9.6611    9.6750 H   0  0  0  0  0  0  0  0  0  0  0  0  # atno 5059 bound_to 5050
   16.0902   13.3895   12.6907 LP  0  0  0  0  0  0  0  0  0  0  0  0  # atno 5367 bound_to 3598
   16.2156   13.6986   11.0922 LP  0  0  0  0  0  0  0  0  0  0  0  0  # atno 5368 bound_to 3598
   17.1532   13.2194    8.4672 LP  0  0  0  0  0  0  0  0  0  0  0  0  # atno 5371 bound_to 3518
   16.1529   12.8273    7.2375 LP  0  0  0  0  0  0  0  0  0  0  0  0  # atno 5372 bound_to 3518
    9.8543   -0.7748   -1.7621 LP  0  0  0  0  0  0  0  0  0  0  0  0  # atno 5429 bound_to 3779
   10.4845   -0.5947   -3.2577 LP  0  0  0  0  0  0  0  0  0  0  0  0  # atno 5430 bound_to 3779
   19.3952   -1.9384   -1.0740 LP  0  0  0  0  0  0  0  0  0  0  0  0  # atno 5433 bound_to 3073
   18.0611   -2.8534   -1.2970 LP  0  0  0  0  0  0  0  0  0  0  0  0  # atno 5434 bound_to 3073
   23.8978  -10.0648    8.2837 LP  0  0  0  0  0  0  0  0  0  0  0  0  # atno 5443 bound_to 5050
   24.7827   -9.6805    9.6011 LP  0  0  0  0  0  0  0  0  0  0  0  0  # atno 5444 bound_to 5050
   20.1791  -13.7082    6.6205 LP  0  0  0  0  0  0  0  0  0  0  0  0  # atno 5447 bound_to 565 
   20.6646  -12.5614    5.5642 LP  0  0  0  0  0  0  0  0  0  0  0  0  # atno 5448 bound_to 565 
   26.4068   -5.1520   12.5027 LP  0  0  0  0  0  0  0  0  0  0  0  0  # atno 5453 bound_to 1881
   27.9231   -5.5486   12.0442 LP  0  0  0  0  0  0  0  0  0  0  0  0  # atno 5454 bound_to 1881
   21.5889    4.9586    4.0247 LP  0  0  0  0  0  0  0  0  0  0  0  0  # atno 5481 bound_to 3121
   22.9740    4.7128    3.1955 LP  0  0  0  0  0  0  0  0  0  0  0  0  # atno 5482 bound_to 3121
   16.9299  -11.3174   -2.5403 LP  0  0  0  0  0  0  0  0  0  0  0  0  # atno 5489 bound_to 585 
   18.1566  -12.3547   -2.2470 LP  0  0  0  0  0  0  0  0  0  0  0  0  # atno 5490 bound_to 585 

> <Gold.Score>
     Fitness  S(hb_ext) S(vdw_ext)  S(hb_int)    S(int)      intcor
     45.44      12.87      23.92       0.00      -0.31      -0.76

> <Gold.Goldscore.Fitness>
45.4370

> <Gold.Goldscore.Internal.Vdw>
-0.5547

> <Gold.Goldscore.Internal.Torsion>
-0.5177

> <Gold.Goldscore.External.Vdw>
23.9160

> <Gold.Goldscore.Internal.HBond>
0.0000

> <Gold.Goldscore.External.HBond>
12.8664

> <Gold.Goldscore.Internal.Correction>
-0.7585

> <Gold.Goldscore.Hbonds>
donor molecule, donor type, donor heavy atom, donor atom, acceptor molecule, acceptor atom, score
      P1  H  2534  2547       L1    17  0.76
      P1  H   580   586       L1     9  0.87
      P1  H   585   590       L1     9  0.63
      L1  H    10    23       P1  2502  0.88

> <Gold.Goldscore.Internal.Vdw.Weighted>
-0.5547

> <Gold.Goldscore.Internal.Torsion.Weighted>
-0.5177

> <Gold.Goldscore.External.Vdw.Weighted>
32.8845

> <Gold.Goldscore.Internal.HBond.Weighted>
0.0000

> <Gold.Goldscore.External.HBond.Weighted>
12.8664

> <Gold.Goldscore.Internal.Correction.Weighted>
-0.7585

> <Gold.Rescore>
     Score     S(PLP)   S(hbond)     S(cho)   S(metal)  DE(clash)   DE(tors)     intcor
     46.77     -37.90       3.83       0.00       0.00       0.95       0.84       ----

> <Gold.PLP.Fitness>
46.7736

> <Gold.PLP.PLP>
-37.9001

> <Gold.PLP.part.hbond>
-5.0000

> <Gold.PLP.part.metal>
0.0000

> <Gold.PLP.part.buried>
-0.2686

> <Gold.PLP.part.nonpolar>
-33.0661

> <Gold.PLP.part.repulsive>
0.5387

> <Gold.PLP.ligand.clash>
0.9472

> <Gold.PLP.ligand.torsion>
0.8377

> <Gold.PLP.Chemscore.Hbond>
3.8320

> <Gold.PLP.Chemscore.CHOScore>
0.0000

> <Gold.PLP.Chemscore.Metal>
0.0000

> <Gold.Chemscore.Hbonds>
donor molecule, donor type, donor heavy atom, donor atom, acceptor molecule, acceptor atom, score
      L1  H    10    23       P1  2502  0.67
      P1  H  2534  2547       L1    17  0.94
      P1  H   580   586       L1     9  0.88
      P1  H   585   590       L1     9  0.63

> <Gold.PLP.Chemscore.Internal.Correction>
   9.000000E+99

