#       Name:                CT1002167954
#       Creating user name   hitesit
#       Creation time:       Sun Apr 16 20:16:21 2023


#       File generated by GOLD software.
#

@<TRIPOS>MOLECULE
CT1002167954|ligand_prepared|mol2|1|dock8
    29    30     1
SMALL
NO_CHARGES


@<TRIPOS>ATOM
      1 C1          25.3975  -9.4750   2.6173 C.3            1 RES1               0.0000
      2 C2          24.8978 -10.5418   1.6219 C.ar           1 RES1               0.0000
      3 C3          25.6179  -8.2017   1.8059 C.2            1 RES1               0.0000
      4 C4          24.3186  -9.3517   3.6876 C.2            1 RES1               0.0000
      5 C5          26.7250  -9.8471   3.3178 C.3            1 RES1               0.0000
      6 C6          25.0204 -11.8968   1.9146 C.ar           1 RES1               0.0000
      7 C7          24.3109 -10.1870   0.4102 C.ar           1 RES1               0.0000
      8 N8          24.7130  -7.1924   1.9557 N.am           1 RES1               0.0000
      9 O9          26.5494  -8.0999   1.0171 O.2            1 RES1               0.0000
     10 N10         23.6371  -8.1664   3.7788 N.am           1 RES1               0.0000
     11 O11         24.0411 -10.2760   4.4419 O.2            1 RES1               0.0000
     12 C12         27.3752  -8.6871   4.0554 C.3            1 RES1               0.0000
     13 C13         24.5698 -12.8622   1.0295 C.ar           1 RES1               0.0000
     14 C14         23.8612 -11.1540  -0.4737 C.ar           1 RES1               0.0000
     15 C15         23.7643  -7.0918   2.9413 C.2            1 RES1               0.0000
     16 C16         23.9896 -12.4915  -0.1649 C.ar           1 RES1               0.0000
     17 O17         23.0768  -6.0809   3.0540 O.2            1 RES1               0.0000
     18 H18         26.5323 -10.6565   4.0328 H              1 RES1               0.0000
     19 H19         27.4277 -10.2250   2.5650 H              1 RES1               0.0000
     20 H20         25.4766 -12.2076   2.8486 H              1 RES1               0.0000
     21 H21         24.2004  -9.1408   0.1457 H              1 RES1               0.0000
     22 H22         24.7447  -6.4432   1.2716 H              1 RES1               0.0000
     23 H23         22.9736  -8.0767   4.5417 H              1 RES1               0.0000
     24 H24         28.3028  -9.0023   4.5286 H              1 RES1               0.0000
     25 H25         27.6038  -7.8737   3.3699 H              1 RES1               0.0000
     26 H26         26.7137  -8.3026   4.8290 H              1 RES1               0.0000
     27 H27         24.6745 -13.9135   1.2766 H              1 RES1               0.0000
     28 H28         23.4057 -10.8577  -1.4128 H              1 RES1               0.0000
     29 H29         23.6363 -13.2479  -0.8579 H              1 RES1               0.0000
@<TRIPOS>BOND
    1    1    2 1     
    2    1    3 1     
    3    1    4 1     
    4    1    5 1     
    5    2    6 ar    
    6    2    7 ar    
    7    3    8 1     
    8    3    9 2     
    9    4   10 1     
   10    4   11 2     
   11    5   12 1     
   12    5   18 1     
   13    5   19 1     
   14    6   13 ar    
   15    6   20 1     
   16    7   14 ar    
   17    7   21 1     
   18    8   15 1     
   19    8   22 1     
   20   10   15 1     
   21   10   23 1     
   22   12   24 1     
   23   12   25 1     
   24   12   26 1     
   25   13   16 ar    
   26   13   27 1     
   27   14   16 ar    
   28   14   28 1     
   29   15   17 2     
   30   16   29 1     
@<TRIPOS>SUBSTRUCTURE
      1 RES1           1
@<TRIPOS>SET
DONOR_HYDROGENS      STATIC     ATOMS    <user>   **** ""
2 22 23
ATOM$RED        STATIC     ATOMS    COLORGROUP SYSTEM
2 22 23
@<TRIPOS>COMMENT
> <Gold.Version>
2022.3.0

> <Gold.Id.Protein>
unknown|3oxt_clean|pdb

> <Gold.Protein.RotatedTorsions>
[ 3607 3598 3597 3595 ] final   52.13 input   60.01 | X-H torsion
[ 3527 3518 3517 3515 ] final  -20.92 input   60.00 | X-H torsion
[ 3788 3779 3778 3776 ] final  174.46 input   59.99 | X-H torsion
[ 3080 3073 3071 3068 ] final -141.68 input   60.03 | X-H torsion
[ 5059 5050 5049 5047 ] final    8.05 input   60.00 | X-H torsion
[ 2545 2534 2533 2532 ] final  106.12 input   59.97 | X-H torsion
[  568  565  563  560 ] final   -4.90 input   59.99 | X-H torsion
[ 1886 1881 1880 1877 ] final   34.66 input   59.97 | X-H torsion
[ 3128 3121 3120 3118 ] final   48.93 input   60.01 | X-H torsion
[  590  585  584  581 ] final   14.89 input   60.02 | X-H torsion

> <Gold.Protein.ActiveResidues>
 LEU49   GLY50   THR51   GLY52   SER53   PHE54   LEU82   LYS83   GLN84   HIS87  
 GLY126  GLU127  MET128  PHE129  SER130  HIS131  LEU132  ARG133  ARG134  ILE135 
 GLY136  ARG137  ARG165  ASP166  LEU167  LYS168  PRO169  GLU170  ASN171  LEU173 
 ASP184  GLY186  PHE187  TPO197  LEU198  CYS199  GLY200  THR201  PRO202  GLU203 
 TYR204  LEU205  ILE209  ILE210  VAL226  LEU227  TYR229  GLU230  ALA233  GLY234 
 TYR235  PRO236  PRO237  PHE238  PHE239  ALA240  ASP241  GLN242  PRO243  ILE244 
 GLN245  ILE246  TYR247  LYS249  ARG256  PHE257  PRO258  SER259  ASN326  PHE327 
 ASP328  ASP329  TYR330 

> <Gold.Protein.RotatedAtoms>
   21.3717  -12.3693    6.0614 H   0  0  0  0  0  0  0  0  0  0  0  0  # atno 568  bound_to 565 
   18.3869  -12.1513   -1.8263 H   0  0  0  0  0  0  0  0  0  0  0  0  # atno 590  bound_to 585 
   26.7871   -4.5221   11.2156 H   0  0  0  0  0  0  0  0  0  0  0  0  # atno 1886 bound_to 1881
   19.7819   -4.0632   -0.2082 H   0  0  0  0  0  0  0  0  0  0  0  0  # atno 2545 bound_to 2534
   20.0289   -4.9084    1.1966 H   0  0  0  0  0  0  0  0  0  0  0  0  # atno 2546 bound_to 2534
   19.3823   -3.3828    1.2488 H   0  0  0  0  0  0  0  0  0  0  0  0  # atno 2547 bound_to 2534
   18.7893   -2.6274    0.1993 H   0  0  0  0  0  0  0  0  0  0  0  0  # atno 3080 bound_to 3073
   22.2207    3.4771    3.9734 H   0  0  0  0  0  0  0  0  0  0  0  0  # atno 3128 bound_to 3121
   16.4852   12.5727    7.8944 H   0  0  0  0  0  0  0  0  0  0  0  0  # atno 3527 bound_to 3518
   15.7107   13.5290   11.7222 H   0  0  0  0  0  0  0  0  0  0  0  0  # atno 3607 bound_to 3598
    8.9296   -1.2604   -2.7553 H   0  0  0  0  0  0  0  0  0  0  0  0  # atno 3788 bound_to 3779
   24.8774   -9.7854    9.2489 H   0  0  0  0  0  0  0  0  0  0  0  0  # atno 5059 bound_to 5050
   17.2527   13.7699   11.2616 LP  0  0  0  0  0  0  0  0  0  0  0  0  # atno 5367 bound_to 3598
   16.9053   13.4456   12.8239 LP  0  0  0  0  0  0  0  0  0  0  0  0  # atno 5368 bound_to 3598
   16.3636   13.8419    6.8825 LP  0  0  0  0  0  0  0  0  0  0  0  0  # atno 5371 bound_to 3518
   17.3035   13.9430    8.2140 LP  0  0  0  0  0  0  0  0  0  0  0  0  # atno 5372 bound_to 3518
   10.1400   -0.6519   -1.8540 LP  0  0  0  0  0  0  0  0  0  0  0  0  # atno 5429 bound_to 3779
   10.2761   -0.7048   -3.4805 LP  0  0  0  0  0  0  0  0  0  0  0  0  # atno 5430 bound_to 3779
   19.3474   -1.9530   -1.1723 LP  0  0  0  0  0  0  0  0  0  0  0  0  # atno 5433 bound_to 3073
   18.0188   -2.9018   -1.2074 LP  0  0  0  0  0  0  0  0  0  0  0  0  # atno 5434 bound_to 3073
   23.4185   -9.5819    9.9392 LP  0  0  0  0  0  0  0  0  0  0  0  0  # atno 5443 bound_to 5050
   23.5287  -10.0381    8.3751 LP  0  0  0  0  0  0  0  0  0  0  0  0  # atno 5444 bound_to 5050
   20.9744  -13.4855    7.1771 LP  0  0  0  0  0  0  0  0  0  0  0  0  # atno 5447 bound_to 565 
   20.0330  -13.2724    5.8599 LP  0  0  0  0  0  0  0  0  0  0  0  0  # atno 5448 bound_to 565 
   26.5758   -5.3046   12.6265 LP  0  0  0  0  0  0  0  0  0  0  0  0  # atno 5453 bound_to 1881
   27.9888   -5.4385   11.8189 LP  0  0  0  0  0  0  0  0  0  0  0  0  # atno 5454 bound_to 1881
   21.6034    4.9825    4.0097 LP  0  0  0  0  0  0  0  0  0  0  0  0  # atno 5481 bound_to 3121
   22.9864    4.6836    3.1945 LP  0  0  0  0  0  0  0  0  0  0  0  0  # atno 5482 bound_to 3121
   17.5216  -10.8150   -1.4880 LP  0  0  0  0  0  0  0  0  0  0  0  0  # atno 5489 bound_to 585 
   17.1112  -11.7571   -2.7571 LP  0  0  0  0  0  0  0  0  0  0  0  0  # atno 5490 bound_to 585 

> <Gold.Score>
     Fitness  S(hb_ext) S(vdw_ext)  S(hb_int)    S(int)      intcor
     30.12       0.76      22.09       0.00      -1.02      -0.76

> <Gold.Goldscore.Fitness>
30.1176

> <Gold.Goldscore.Internal.Vdw>
-1.1529

> <Gold.Goldscore.Internal.Torsion>
-0.6280

> <Gold.Goldscore.External.Vdw>
22.0930

> <Gold.Goldscore.Internal.HBond>
0.0000

> <Gold.Goldscore.External.HBond>
0.7622

> <Gold.Goldscore.Internal.Correction>
-0.7585

> <Gold.Goldscore.Hbonds>
donor molecule, donor type, donor heavy atom, donor atom, acceptor molecule, acceptor atom, score
      L1  H     8    22       P1  2584  0.38

> <Gold.Goldscore.Internal.Vdw.Weighted>
-1.1529

> <Gold.Goldscore.Internal.Torsion.Weighted>
-0.6280

> <Gold.Goldscore.External.Vdw.Weighted>
30.3779

> <Gold.Goldscore.Internal.HBond.Weighted>
0.0000

> <Gold.Goldscore.External.HBond.Weighted>
0.7622

> <Gold.Goldscore.Internal.Correction.Weighted>
-0.7585

> <Gold.Rescore>
     Score     S(PLP)   S(hbond)     S(cho)   S(metal)  DE(clash)   DE(tors)     intcor
     26.82     -25.43       1.04       0.00       0.00       0.63       0.55       ----

> <Gold.PLP.Fitness>
26.8190

> <Gold.PLP.PLP>
-25.4293

> <Gold.PLP.part.hbond>
-1.7301

> <Gold.PLP.part.metal>
0.0000

> <Gold.PLP.part.buried>
0.9748

> <Gold.PLP.part.nonpolar>
-27.6303

> <Gold.PLP.part.repulsive>
1.9044

> <Gold.PLP.ligand.clash>
0.6281

> <Gold.PLP.ligand.torsion>
0.5515

> <Gold.PLP.Chemscore.Hbond>
1.0403

> <Gold.PLP.Chemscore.CHOScore>
0.0000

> <Gold.PLP.Chemscore.Metal>
0.0000

> <Gold.Chemscore.Hbonds>
donor molecule, donor type, donor heavy atom, donor atom, acceptor molecule, acceptor atom, score
      L1  H     8    22       P1  2584  0.36
      P1  H   559   566       L1    11  0.09

> <Gold.PLP.Chemscore.Internal.Correction>
   9.000000E+99

