#       Name:                CT1002167954
#       Creating user name   hitesit
#       Creation time:       Sun Apr 16 20:16:22 2023


#       File generated by GOLD software.
#

@<TRIPOS>MOLECULE
CT1002167954|ligand_prepared|mol2|1|dock9
    29    30     1
SMALL
NO_CHARGES


@<TRIPOS>ATOM
      1 C1          26.4823  -9.5584   2.2202 C.3            1 RES1               0.0000
      2 C2          25.7004 -10.6597   1.4756 C.ar           1 RES1               0.0000
      3 C3          26.5139  -9.9733   3.6882 C.2            1 RES1               0.0000
      4 C4          27.8564  -9.4921   1.5628 C.2            1 RES1               0.0000
      5 C5          25.8365  -8.1569   2.1196 C.3            1 RES1               0.0000
      6 C6          25.4727 -10.5645   0.1060 C.ar           1 RES1               0.0000
      7 C7          25.2037 -11.7762   2.1431 C.ar           1 RES1               0.0000
      8 N8          27.6927 -10.4445   4.1864 N.am           1 RES1               0.0000
      9 O9          25.5095  -9.9250   4.3876 O.2            1 RES1               0.0000
     10 N10         28.9453  -9.8512   2.3133 N.am           1 RES1               0.0000
     11 O11         28.0043  -9.1481   0.3965 O.2            1 RES1               0.0000
     12 C12         26.6088  -7.0718   2.8533 C.3            1 RES1               0.0000
     13 C13         24.7763 -11.5510  -0.5724 C.ar           1 RES1               0.0000
     14 C14         24.5074 -12.7615   1.4628 C.ar           1 RES1               0.0000
     15 C15         28.9226 -10.3537   3.5857 C.2            1 RES1               0.0000
     16 C16         24.2936 -12.6502   0.1053 C.ar           1 RES1               0.0000
     17 O17         29.9401 -10.7057   4.1756 O.2            1 RES1               0.0000
     18 H18         25.7573  -7.8797   1.0612 H              1 RES1               0.0000
     19 H19         24.8204  -8.2060   2.5303 H              1 RES1               0.0000
     20 H20         25.8428  -9.7055  -0.4437 H              1 RES1               0.0000
     21 H21         25.3590 -11.8842   3.2112 H              1 RES1               0.0000
     22 H22         27.6564 -10.9074   5.0891 H              1 RES1               0.0000
     23 H23         29.8572  -9.7327   1.8836 H              1 RES1               0.0000
     24 H24         26.1128  -6.1089   2.7509 H              1 RES1               0.0000
     25 H25         26.6850  -7.3026   3.9139 H              1 RES1               0.0000
     26 H26         27.6164  -6.9782   2.4535 H              1 RES1               0.0000
     27 H27         24.6096 -11.4580  -1.6404 H              1 RES1               0.0000
     28 H28         24.1288 -13.6246   2.0003 H              1 RES1               0.0000
     29 H29         23.7485 -13.4231  -0.4264 H              1 RES1               0.0000
@<TRIPOS>BOND
    1    1    2 1     
    2    1    3 1     
    3    1    4 1     
    4    1    5 1     
    5    2    6 ar    
    6    2    7 ar    
    7    3    8 1     
    8    3    9 2     
    9    4   10 1     
   10    4   11 2     
   11    5   12 1     
   12    5   18 1     
   13    5   19 1     
   14    6   13 ar    
   15    6   20 1     
   16    7   14 ar    
   17    7   21 1     
   18    8   15 1     
   19    8   22 1     
   20   10   15 1     
   21   10   23 1     
   22   12   24 1     
   23   12   25 1     
   24   12   26 1     
   25   13   16 ar    
   26   13   27 1     
   27   14   16 ar    
   28   14   28 1     
   29   15   17 2     
   30   16   29 1     
@<TRIPOS>SUBSTRUCTURE
      1 RES1           1
@<TRIPOS>SET
DONOR_HYDROGENS      STATIC     ATOMS    <user>   **** ""
2 22 23
ATOM$RED        STATIC     ATOMS    COLORGROUP SYSTEM
2 22 23
@<TRIPOS>COMMENT
> <Gold.Version>
2022.3.0

> <Gold.Id.Protein>
unknown|3oxt_clean|pdb

> <Gold.Protein.RotatedTorsions>
[ 3607 3598 3597 3595 ] final  -46.31 input   60.01 | X-H torsion
[ 3527 3518 3517 3515 ] final  -11.65 input   60.00 | X-H torsion
[ 3788 3779 3778 3776 ] final   76.54 input   59.99 | X-H torsion
[ 3080 3073 3071 3068 ] final  -69.44 input   60.03 | X-H torsion
[ 5059 5050 5049 5047 ] final   24.05 input   60.00 | X-H torsion
[ 2545 2534 2533 2532 ] final  -70.48 input   59.97 | X-H torsion
[  568  565  563  560 ] final  -88.28 input   59.99 | X-H torsion
[ 1886 1881 1880 1877 ] final  153.09 input   59.97 | X-H torsion
[ 3128 3121 3120 3118 ] final -163.21 input   60.01 | X-H torsion
[  590  585  584  581 ] final  137.23 input   60.02 | X-H torsion

> <Gold.Protein.ActiveResidues>
 LEU49   GLY50   THR51   GLY52   SER53   PHE54   LEU82   LYS83   GLN84   HIS87  
 GLY126  GLU127  MET128  PHE129  SER130  HIS131  LEU132  ARG133  ARG134  ILE135 
 GLY136  ARG137  ARG165  ASP166  LEU167  LYS168  PRO169  GLU170  ASN171  LEU173 
 ASP184  GLY186  PHE187  TPO197  LEU198  CYS199  GLY200  THR201  PRO202  GLU203 
 TYR204  LEU205  ILE209  ILE210  VAL226  LEU227  TYR229  GLU230  ALA233  GLY234 
 TYR235  PRO236  PRO237  PHE238  PHE239  ALA240  ASP241  GLN242  PRO243  ILE244 
 GLN245  ILE246  TYR247  LYS249  ARG256  PHE257  PRO258  SER259  ASN326  PHE327 
 ASP328  ASP329  TYR330 

> <Gold.Protein.RotatedAtoms>
   21.3980  -13.0860    7.0799 H   0  0  0  0  0  0  0  0  0  0  0  0  # atno 568  bound_to 565 
   17.0935  -11.7257   -2.7423 H   0  0  0  0  0  0  0  0  0  0  0  0  # atno 590  bound_to 585 
   27.9865   -5.4215   11.7984 H   0  0  0  0  0  0  0  0  0  0  0  0  # atno 1886 bound_to 1881
   19.6577   -4.1206    1.7000 H   0  0  0  0  0  0  0  0  0  0  0  0  # atno 2545 bound_to 2534
   19.4475   -3.3523    0.2459 H   0  0  0  0  0  0  0  0  0  0  0  0  # atno 2546 bound_to 2534
   20.0876   -4.8808    0.2918 H   0  0  0  0  0  0  0  0  0  0  0  0  # atno 2547 bound_to 2534
   18.0142   -3.0521   -0.4618 H   0  0  0  0  0  0  0  0  0  0  0  0  # atno 3080 bound_to 3073
   22.7325    5.0510    3.2670 H   0  0  0  0  0  0  0  0  0  0  0  0  # atno 3128 bound_to 3121
   16.5752   12.5936    8.0146 H   0  0  0  0  0  0  0  0  0  0  0  0  # atno 3527 bound_to 3518
   16.9515   13.7711   11.0804 H   0  0  0  0  0  0  0  0  0  0  0  0  # atno 3607 bound_to 3598
    9.8188   -0.7881   -1.7653 H   0  0  0  0  0  0  0  0  0  0  0  0  # atno 3788 bound_to 3779
   24.8586   -9.8581    8.9996 H   0  0  0  0  0  0  0  0  0  0  0  0  # atno 5059 bound_to 5050
   17.2139   13.5058   12.6643 LP  0  0  0  0  0  0  0  0  0  0  0  0  # atno 5367 bound_to 3598
   15.6944   13.4660   12.0675 LP  0  0  0  0  0  0  0  0  0  0  0  0  # atno 5368 bound_to 3598
   16.2917   13.7088    6.8633 LP  0  0  0  0  0  0  0  0  0  0  0  0  # atno 5371 bound_to 3518
   17.2849   14.0552    8.1124 LP  0  0  0  0  0  0  0  0  0  0  0  0  # atno 5372 bound_to 3518
   10.5036   -0.5839   -3.2272 LP  0  0  0  0  0  0  0  0  0  0  0  0  # atno 5429 bound_to 3779
    9.0170   -1.2484   -3.1043 LP  0  0  0  0  0  0  0  0  0  0  0  0  # atno 5430 bound_to 3779
   19.3355   -2.1805   -0.0844 LP  0  0  0  0  0  0  0  0  0  0  0  0  # atno 5433 bound_to 3073
   18.8113   -2.2467   -1.6295 LP  0  0  0  0  0  0  0  0  0  0  0  0  # atno 5434 bound_to 3073
   23.6546   -9.5498   10.0491 LP  0  0  0  0  0  0  0  0  0  0  0  0  # atno 5443 bound_to 5050
   23.3115   -9.9969    8.5164 LP  0  0  0  0  0  0  0  0  0  0  0  0  # atno 5444 bound_to 5050
   20.0455  -13.6133    6.3443 LP  0  0  0  0  0  0  0  0  0  0  0  0  # atno 5447 bound_to 565 
   20.9354  -12.4231    5.6674 LP  0  0  0  0  0  0  0  0  0  0  0  0  # atno 5448 bound_to 565 
   26.7615   -4.5184   11.2225 LP  0  0  0  0  0  0  0  0  0  0  0  0  # atno 5453 bound_to 1881
   26.5952   -5.3191   12.6359 LP  0  0  0  0  0  0  0  0  0  0  0  0  # atno 5454 bound_to 1881
   22.6001    3.4958    3.7277 LP  0  0  0  0  0  0  0  0  0  0  0  0  # atno 5481 bound_to 3121
   21.4742    4.5853    4.1880 LP  0  0  0  0  0  0  0  0  0  0  0  0  # atno 5482 bound_to 3121
   18.3827  -12.1756   -1.8565 LP  0  0  0  0  0  0  0  0  0  0  0  0  # atno 5489 bound_to 585 
   17.5519  -10.8249   -1.4665 LP  0  0  0  0  0  0  0  0  0  0  0  0  # atno 5490 bound_to 585 

> <Gold.Score>
     Fitness  S(hb_ext) S(vdw_ext)  S(hb_int)    S(int)      intcor
     31.94       0.00      25.31       0.00      -2.86      -0.76

> <Gold.Goldscore.Fitness>
31.9401

> <Gold.Goldscore.Internal.Vdw>
-3.2549

> <Gold.Goldscore.Internal.Torsion>
-0.3672

> <Gold.Goldscore.External.Vdw>
25.3118

> <Gold.Goldscore.Internal.HBond>
0.0000

> <Gold.Goldscore.External.HBond>
0.0000

> <Gold.Goldscore.Internal.Correction>
-0.7585

> <Gold.Goldscore.Internal.Vdw.Weighted>
-3.2549

> <Gold.Goldscore.Internal.Torsion.Weighted>
-0.3672

> <Gold.Goldscore.External.Vdw.Weighted>
34.8037

> <Gold.Goldscore.Internal.HBond.Weighted>
0.0000

> <Gold.Goldscore.External.HBond.Weighted>
0.0000

> <Gold.Goldscore.Internal.Correction.Weighted>
-0.7585

> <Gold.Rescore>
     Score     S(PLP)   S(hbond)     S(cho)   S(metal)  DE(clash)   DE(tors)     intcor
     27.18     -28.75       0.00       0.00       0.00       1.20       0.18       ----

> <Gold.PLP.Fitness>
27.1797

> <Gold.PLP.PLP>
-28.7475

> <Gold.PLP.part.hbond>
0.0000

> <Gold.PLP.part.metal>
0.0000

> <Gold.PLP.part.buried>
-0.1957

> <Gold.PLP.part.nonpolar>
-28.7976

> <Gold.PLP.part.repulsive>
0.2977

> <Gold.PLP.ligand.clash>
1.2036

> <Gold.PLP.ligand.torsion>
0.1821

> <Gold.PLP.Chemscore.Hbond>
0.0000

> <Gold.PLP.Chemscore.CHOScore>
0.0000

> <Gold.PLP.Chemscore.Metal>
0.0000

> <Gold.PLP.Chemscore.Internal.Correction>
   9.000000E+99

