#       Name:                CT1002167954
#       Creating user name   hitesit
#       Creation time:       Sun Apr 16 20:16:11 2023


#       File generated by GOLD software.
#

@<TRIPOS>MOLECULE
CT1002167954|ligand_prepared|mol2|1|dock1
    29    30     1
SMALL
NO_CHARGES


@<TRIPOS>ATOM
      1 C1          20.6443  -9.5788  -2.5513 C.3            1 RES1               0.0000
      2 C2          21.6700 -10.6581  -2.1492 C.ar           1 RES1               0.0000
      3 C3          19.8011  -9.3052  -1.3093 C.2            1 RES1               0.0000
      4 C4          21.4535  -8.3787  -3.0306 C.2            1 RES1               0.0000
      5 C5          19.7021 -10.0091  -3.6996 C.3            1 RES1               0.0000
      6 C6          21.3607 -12.0096  -2.2699 C.ar           1 RES1               0.0000
      7 C7          22.9283 -10.3184  -1.6593 C.ar           1 RES1               0.0000
      8 N8          20.0176  -8.1346  -0.6439 N.am           1 RES1               0.0000
      9 O9          18.9864 -10.1218  -0.8975 O.2            1 RES1               0.0000
     10 N10         21.3891  -7.2252  -2.2938 N.am           1 RES1               0.0000
     11 O11         22.1593  -8.4268  -4.0305 O.2            1 RES1               0.0000
     12 C12         18.8816  -8.8680  -4.2798 C.3            1 RES1               0.0000
     13 C13         22.2772 -12.9861  -1.9165 C.ar           1 RES1               0.0000
     14 C14         23.8432 -11.2965  -1.3063 C.ar           1 RES1               0.0000
     15 C15         20.7320  -7.0582  -1.1052 C.2            1 RES1               0.0000
     16 C16         23.5190 -12.6304  -1.4350 C.ar           1 RES1               0.0000
     17 O17         20.7656  -6.0061  -0.4735 O.2            1 RES1               0.0000
     18 H18         20.3035 -10.4549  -4.5015 H              1 RES1               0.0000
     19 H19         19.0182 -10.7807  -3.3249 H              1 RES1               0.0000
     20 H20         20.3875 -12.3086  -2.6446 H              1 RES1               0.0000
     21 H21         23.2047  -9.2753  -1.5486 H              1 RES1               0.0000
     22 H22         19.6109  -8.0519   0.2824 H              1 RES1               0.0000
     23 H23         21.8759  -6.4159  -2.6658 H              1 RES1               0.0000
     24 H24         18.2380  -9.2243  -5.0814 H              1 RES1               0.0000
     25 H25         18.2524  -8.4175  -3.5150 H              1 RES1               0.0000
     26 H26         19.5300  -8.0936  -4.6846 H              1 RES1               0.0000
     27 H27         22.0166 -14.0344  -2.0184 H              1 RES1               0.0000
     28 H28         24.8191 -11.0120  -0.9272 H              1 RES1               0.0000
     29 H29         24.2369 -13.3956  -1.1586 H              1 RES1               0.0000
@<TRIPOS>BOND
    1    1    2 1     
    2    1    3 1     
    3    1    4 1     
    4    1    5 1     
    5    2    6 ar    
    6    2    7 ar    
    7    3    8 1     
    8    3    9 2     
    9    4   10 1     
   10    4   11 2     
   11    5   12 1     
   12    5   18 1     
   13    5   19 1     
   14    6   13 ar    
   15    6   20 1     
   16    7   14 ar    
   17    7   21 1     
   18    8   15 1     
   19    8   22 1     
   20   10   15 1     
   21   10   23 1     
   22   12   24 1     
   23   12   25 1     
   24   12   26 1     
   25   13   16 ar    
   26   13   27 1     
   27   14   16 ar    
   28   14   28 1     
   29   15   17 2     
   30   16   29 1     
@<TRIPOS>SUBSTRUCTURE
      1 RES1           1
@<TRIPOS>SET
DONOR_HYDROGENS      STATIC     ATOMS    <user>   **** ""
2 22 23
ATOM$RED        STATIC     ATOMS    COLORGROUP SYSTEM
2 22 23
@<TRIPOS>COMMENT
> <Gold.Version>
2022.3.0

> <Gold.Id.Protein>
unknown|3oxt_clean|pdb

> <Gold.Protein.RotatedTorsions>
[ 3607 3598 3597 3595 ] final -172.88 input   60.01 | X-H torsion
[ 3527 3518 3517 3515 ] final -132.40 input   60.00 | X-H torsion
[ 3788 3779 3778 3776 ] final  -18.63 input   59.99 | X-H torsion
[ 3080 3073 3071 3068 ] final  161.56 input   60.03 | X-H torsion
[ 5059 5050 5049 5047 ] final    3.00 input   60.00 | X-H torsion
[ 2545 2534 2533 2532 ] final   46.98 input   59.97 | X-H torsion
[  568  565  563  560 ] final   34.75 input   59.99 | X-H torsion
[ 1886 1881 1880 1877 ] final  170.42 input   59.97 | X-H torsion
[ 3128 3121 3120 3118 ] final  -87.06 input   60.01 | X-H torsion
[  590  585  584  581 ] final  -73.20 input   60.02 | X-H torsion

> <Gold.Protein.ActiveResidues>
 LEU49   GLY50   THR51   GLY52   SER53   PHE54   LEU82   LYS83   GLN84   HIS87  
 GLY126  GLU127  MET128  PHE129  SER130  HIS131  LEU132  ARG133  ARG134  ILE135 
 GLY136  ARG137  ARG165  ASP166  LEU167  LYS168  PRO169  GLU170  ASN171  LEU173 
 ASP184  GLY186  PHE187  TPO197  LEU198  CYS199  GLY200  THR201  PRO202  GLU203 
 TYR204  LEU205  ILE209  ILE210  VAL226  LEU227  TYR229  GLU230  ALA233  GLY234 
 TYR235  PRO236  PRO237  PHE238  PHE239  ALA240  ASP241  GLN242  PRO243  ILE244 
 GLN245  ILE246  TYR247  LYS249  ARG256  PHE257  PRO258  SER259  ASN326  PHE327 
 ASP328  ASP329  TYR330 

> <Gold.Protein.RotatedAtoms>
   20.8946  -12.4461    5.6492 H   0  0  0  0  0  0  0  0  0  0  0  0  # atno 568  bound_to 565 
   17.9328  -11.0557   -1.2884 H   0  0  0  0  0  0  0  0  0  0  0  0  # atno 590  bound_to 585 
   27.9186   -5.5430   12.0439 H   0  0  0  0  0  0  0  0  0  0  0  0  # atno 1886 bound_to 1881
   19.4366   -3.3340    0.2828 H   0  0  0  0  0  0  0  0  0  0  0  0  # atno 2545 bound_to 2534
   20.0821   -4.8608    0.2544 H   0  0  0  0  0  0  0  0  0  0  0  0  # atno 2546 bound_to 2534
   19.6742   -4.1591    1.6999 H   0  0  0  0  0  0  0  0  0  0  0  0  # atno 2547 bound_to 2534
   19.3939   -2.1118   -0.2012 H   0  0  0  0  0  0  0  0  0  0  0  0  # atno 3080 bound_to 3073
   21.7536    5.1463    3.8720 H   0  0  0  0  0  0  0  0  0  0  0  0  # atno 3128 bound_to 3121
   16.3019   13.7173    6.8677 H   0  0  0  0  0  0  0  0  0  0  0  0  # atno 3527 bound_to 3518
   17.1236   13.4841   12.7190 H   0  0  0  0  0  0  0  0  0  0  0  0  # atno 3607 bound_to 3598
   10.6243   -0.4998   -2.8509 H   0  0  0  0  0  0  0  0  0  0  0  0  # atno 3788 bound_to 3779
   24.8682   -9.7624    9.3275 H   0  0  0  0  0  0  0  0  0  0  0  0  # atno 5059 bound_to 5050
   15.6833   13.4845   11.9618 LP  0  0  0  0  0  0  0  0  0  0  0  0  # atno 5367 bound_to 3598
   17.0518   13.7763   11.1198 LP  0  0  0  0  0  0  0  0  0  0  0  0  # atno 5368 bound_to 3598
   17.2869   14.0467    8.1210 LP  0  0  0  0  0  0  0  0  0  0  0  0  # atno 5371 bound_to 3518
   16.5647   12.5865    8.0087 LP  0  0  0  0  0  0  0  0  0  0  0  0  # atno 5372 bound_to 3518
    9.2532   -1.1638   -3.4227 LP  0  0  0  0  0  0  0  0  0  0  0  0  # atno 5429 bound_to 3779
    9.4561   -0.9588   -1.8154 LP  0  0  0  0  0  0  0  0  0  0  0  0  # atno 5430 bound_to 3779
   18.6906   -2.3289   -1.6523 LP  0  0  0  0  0  0  0  0  0  0  0  0  # atno 5433 bound_to 3073
   18.0667   -3.0451   -0.3240 LP  0  0  0  0  0  0  0  0  0  0  0  0  # atno 5434 bound_to 3073
   23.3516   -9.5957    9.8918 LP  0  0  0  0  0  0  0  0  0  0  0  0  # atno 5443 bound_to 5050
   23.6048  -10.0474    8.3432 LP  0  0  0  0  0  0  0  0  0  0  0  0  # atno 5444 bound_to 5050
   21.4270  -13.0479    7.0644 LP  0  0  0  0  0  0  0  0  0  0  0  0  # atno 5447 bound_to 565 
   20.0607  -13.6326    6.3876 LP  0  0  0  0  0  0  0  0  0  0  0  0  # atno 5448 bound_to 565 
   27.0180   -4.5626   11.1082 LP  0  0  0  0  0  0  0  0  0  0  0  0  # atno 5453 bound_to 1881
   26.4072   -5.1525   12.5031 LP  0  0  0  0  0  0  0  0  0  0  0  0  # atno 5454 bound_to 1881
   23.0570    4.4313    3.2099 LP  0  0  0  0  0  0  0  0  0  0  0  0  # atno 5481 bound_to 3121
   22.0032    3.5538    4.0965 LP  0  0  0  0  0  0  0  0  0  0  0  0  # atno 5482 bound_to 3121
   16.9305  -11.3210   -2.5430 LP  0  0  0  0  0  0  0  0  0  0  0  0  # atno 5489 bound_to 585 
   18.1593  -12.3539   -2.2436 LP  0  0  0  0  0  0  0  0  0  0  0  0  # atno 5490 bound_to 585 

> <Gold.Score>
     Fitness  S(hb_ext) S(vdw_ext)  S(hb_int)    S(int)      intcor
     44.61      12.39      23.92       0.00      -0.67      -0.76

> <Gold.Goldscore.Fitness>
44.6112

> <Gold.Goldscore.Internal.Vdw>
-0.8621

> <Gold.Goldscore.Internal.Torsion>
-0.5644

> <Gold.Goldscore.External.Vdw>
23.9170

> <Gold.Goldscore.Internal.HBond>
0.0000

> <Gold.Goldscore.External.HBond>
12.3935

> <Gold.Goldscore.Internal.Correction>
-0.7585

> <Gold.Goldscore.Hbonds>
donor molecule, donor type, donor heavy atom, donor atom, acceptor molecule, acceptor atom, score
      P1  H  2534  2546       L1    17  0.64
      P1  H  2583  2589       L1    17  0.02
      P1  H   580   586       L1     9  0.86
      P1  H   585   590       L1     9  0.65
      L1  H    10    23       P1  2502  0.91

> <Gold.Goldscore.Internal.Vdw.Weighted>
-0.8621

> <Gold.Goldscore.Internal.Torsion.Weighted>
-0.5644

> <Gold.Goldscore.External.Vdw.Weighted>
32.8858

> <Gold.Goldscore.Internal.HBond.Weighted>
0.0000

> <Gold.Goldscore.External.HBond.Weighted>
12.3935

> <Gold.Goldscore.Internal.Correction.Weighted>
-0.7585

> <Gold.Rescore>
     Score     S(PLP)   S(hbond)     S(cho)   S(metal)  DE(clash)   DE(tors)     intcor
     48.42     -38.53       3.91       0.00       0.00       0.81       0.52       ----

> <Gold.PLP.Fitness>
48.4163

> <Gold.PLP.PLP>
-38.5280

> <Gold.PLP.part.hbond>
-5.0000

> <Gold.PLP.part.metal>
0.0000

> <Gold.PLP.part.buried>
-1.1857

> <Gold.PLP.part.nonpolar>
-32.6054

> <Gold.PLP.part.repulsive>
0.5159

> <Gold.PLP.ligand.clash>
0.8132

> <Gold.PLP.ligand.torsion>
0.5172

> <Gold.PLP.Chemscore.Hbond>
3.9120

> <Gold.PLP.Chemscore.CHOScore>
0.0000

> <Gold.PLP.Chemscore.Metal>
0.0000

> <Gold.Chemscore.Hbonds>
donor molecule, donor type, donor heavy atom, donor atom, acceptor molecule, acceptor atom, score
      L1  H    10    23       P1  2502  1.00
      P1  H  2534  2546       L1    17  0.80
      P1  H   580   586       L1     9  1.00
      P1  H   585   590       L1     9  0.65

> <Gold.PLP.Chemscore.Internal.Correction>
   9.000000E+99

