#       Name:                CT1002167954
#       Creating user name   hitesit
#       Creation time:       Sun Apr 16 20:16:17 2023


#       File generated by GOLD software.
#

@<TRIPOS>MOLECULE
CT1002167954|ligand_prepared|mol2|1|dock5
    29    30     1
SMALL
NO_CHARGES


@<TRIPOS>ATOM
      1 C1          25.5496  -9.5177   2.0221 C.3            1 RES1               0.0000
      2 C2          25.0161 -10.7434   1.2527 C.ar           1 RES1               0.0000
      3 C3          24.3589  -8.9343   2.7771 C.2            1 RES1               0.0000
      4 C4          26.6661 -10.0328   2.9237 C.2            1 RES1               0.0000
      5 C5          26.1408  -8.4169   1.1110 C.3            1 RES1               0.0000
      6 C6          24.6656 -11.9076   1.9299 C.ar           1 RES1               0.0000
      7 C7          24.8667 -10.7241  -0.1314 C.ar           1 RES1               0.0000
      8 N8          24.3095  -9.1283   4.1261 N.am           1 RES1               0.0000
      9 O9          23.4569  -8.3471   2.1923 O.2            1 RES1               0.0000
     10 N10         26.4757  -9.9730   4.2794 N.am           1 RES1               0.0000
     11 O11         27.7020 -10.5052   2.4720 O.2            1 RES1               0.0000
     12 C12         26.8472  -7.3056   1.8713 C.3            1 RES1               0.0000
     13 C13         24.1805 -13.0115   1.2484 C.ar           1 RES1               0.0000
     14 C14         24.3817 -11.8292  -0.8110 C.ar           1 RES1               0.0000
     15 C15         25.3355  -9.5724   4.9209 C.2            1 RES1               0.0000
     16 C16         24.0378 -12.9730  -0.1223 C.ar           1 RES1               0.0000
     17 O17         25.2207  -9.5983   6.1429 O.2            1 RES1               0.0000
     18 H18         26.8539  -8.8784   0.4168 H              1 RES1               0.0000
     19 H19         25.3302  -7.9778   0.5163 H              1 RES1               0.0000
     20 H20         24.7734 -11.9574   3.0083 H              1 RES1               0.0000
     21 H21         25.1319  -9.8355  -0.6941 H              1 RES1               0.0000
     22 H22         23.4281  -8.9243   4.5865 H              1 RES1               0.0000
     23 H23         27.2565 -10.2529   4.8646 H              1 RES1               0.0000
     24 H24         27.2431  -6.5599   1.1851 H              1 RES1               0.0000
     25 H25         26.1607  -6.8080   2.5532 H              1 RES1               0.0000
     26 H26         27.6753  -7.7032   2.4544 H              1 RES1               0.0000
     27 H27         23.9126 -13.9097   1.7950 H              1 RES1               0.0000
     28 H28         24.2716 -11.7947  -1.8899 H              1 RES1               0.0000
     29 H29         23.6574 -13.8377  -0.6558 H              1 RES1               0.0000
@<TRIPOS>BOND
    1    1    2 1     
    2    1    3 1     
    3    1    4 1     
    4    1    5 1     
    5    2    6 ar    
    6    2    7 ar    
    7    3    8 1     
    8    3    9 2     
    9    4   10 1     
   10    4   11 2     
   11    5   12 1     
   12    5   18 1     
   13    5   19 1     
   14    6   13 ar    
   15    6   20 1     
   16    7   14 ar    
   17    7   21 1     
   18    8   15 1     
   19    8   22 1     
   20   10   15 1     
   21   10   23 1     
   22   12   24 1     
   23   12   25 1     
   24   12   26 1     
   25   13   16 ar    
   26   13   27 1     
   27   14   16 ar    
   28   14   28 1     
   29   15   17 2     
   30   16   29 1     
@<TRIPOS>SUBSTRUCTURE
      1 RES1           1
@<TRIPOS>SET
DONOR_HYDROGENS      STATIC     ATOMS    <user>   **** ""
2 22 23
ATOM$RED        STATIC     ATOMS    COLORGROUP SYSTEM
2 22 23
@<TRIPOS>COMMENT
> <Gold.Version>
2022.3.0

> <Gold.Id.Protein>
unknown|3oxt_clean|pdb

> <Gold.Protein.RotatedTorsions>
[ 3607 3598 3597 3595 ] final   62.93 input   60.01 | X-H torsion
[ 3527 3518 3517 3515 ] final  156.50 input   60.00 | X-H torsion
[ 3788 3779 3778 3776 ] final  -65.71 input   59.99 | X-H torsion
[ 3080 3073 3071 3068 ] final  144.42 input   60.03 | X-H torsion
[ 5059 5050 5049 5047 ] final   86.07 input   60.00 | X-H torsion
[ 2545 2534 2533 2532 ] final  132.44 input   59.97 | X-H torsion
[  568  565  563  560 ] final  -97.05 input   59.99 | X-H torsion
[ 1886 1881 1880 1877 ] final  160.50 input   59.97 | X-H torsion
[ 3128 3121 3120 3118 ] final  139.09 input   60.01 | X-H torsion
[  590  585  584  581 ] final   84.65 input   60.02 | X-H torsion

> <Gold.Protein.ActiveResidues>
 LEU49   GLY50   THR51   GLY52   SER53   PHE54   LEU82   LYS83   GLN84   HIS87  
 GLY126  GLU127  MET128  PHE129  SER130  HIS131  LEU132  ARG133  ARG134  ILE135 
 GLY136  ARG137  ARG165  ASP166  LEU167  LYS168  PRO169  GLU170  ASN171  LEU173 
 ASP184  GLY186  PHE187  TPO197  LEU198  CYS199  GLY200  THR201  PRO202  GLU203 
 TYR204  LEU205  ILE209  ILE210  VAL226  LEU227  TYR229  GLU230  ALA233  GLY234 
 TYR235  PRO236  PRO237  PHE238  PHE239  ALA240  ASP241  GLN242  PRO243  ILE244 
 GLN245  ILE246  TYR247  LYS249  ARG256  PHE257  PRO258  SER259  ASN326  PHE327 
 ASP328  ASP329  TYR330 

> <Gold.Protein.RotatedAtoms>
   21.3132  -13.1895    7.1306 H   0  0  0  0  0  0  0  0  0  0  0  0  # atno 568  bound_to 565 
   17.6996  -12.2824   -2.6375 H   0  0  0  0  0  0  0  0  0  0  0  0  # atno 590  bound_to 585 
   27.9670   -5.4779   11.9037 H   0  0  0  0  0  0  0  0  0  0  0  0  # atno 1886 bound_to 1881
   19.9421   -4.4593   -0.1229 H   0  0  0  0  0  0  0  0  0  0  0  0  # atno 2545 bound_to 2534
   19.8956   -4.6522    1.5231 H   0  0  0  0  0  0  0  0  0  0  0  0  # atno 2546 bound_to 2534
   19.3554   -3.2429    0.8372 H   0  0  0  0  0  0  0  0  0  0  0  0  # atno 2547 bound_to 2534
   19.4693   -2.0078   -0.4488 H   0  0  0  0  0  0  0  0  0  0  0  0  # atno 3080 bound_to 3073
   23.0626    4.2099    3.2574 H   0  0  0  0  0  0  0  0  0  0  0  0  # atno 3128 bound_to 3121
   16.9755   14.3292    7.4665 H   0  0  0  0  0  0  0  0  0  0  0  0  # atno 3527 bound_to 3518
   15.6895   13.4951   11.8937 H   0  0  0  0  0  0  0  0  0  0  0  0  # atno 3607 bound_to 3598
   10.2695   -0.7045   -3.4765 H   0  0  0  0  0  0  0  0  0  0  0  0  # atno 3788 bound_to 3779
   24.1995  -10.0551    8.3243 H   0  0  0  0  0  0  0  0  0  0  0  0  # atno 5059 bound_to 5050
   17.1116   13.7758   11.1543 LP  0  0  0  0  0  0  0  0  0  0  0  0  # atno 5367 bound_to 3598
   17.0678   13.4739   12.7585 LP  0  0  0  0  0  0  0  0  0  0  0  0  # atno 5368 bound_to 3598
   17.0473   13.0249    8.4377 LP  0  0  0  0  0  0  0  0  0  0  0  0  # atno 5371 bound_to 3518
   16.1265   12.9925    7.0894 LP  0  0  0  0  0  0  0  0  0  0  0  0  # atno 5372 bound_to 3518
    8.9244   -1.2656   -2.7529 LP  0  0  0  0  0  0  0  0  0  0  0  0  # atno 5429 bound_to 3779
   10.1422   -0.6510   -1.8552 LP  0  0  0  0  0  0  0  0  0  0  0  0  # atno 5430 bound_to 3779
   18.4650   -2.4952   -1.6326 LP  0  0  0  0  0  0  0  0  0  0  0  0  # atno 5433 bound_to 3073
   18.2164   -2.9836   -0.0944 LP  0  0  0  0  0  0  0  0  0  0  0  0  # atno 5434 bound_to 3073
   24.6007   -9.6116    9.8372 LP  0  0  0  0  0  0  0  0  0  0  0  0  # atno 5443 bound_to 5050
   23.0298   -9.7365    9.4090 LP  0  0  0  0  0  0  0  0  0  0  0  0  # atno 5444 bound_to 5050
   20.0133  -13.5484    6.2198 LP  0  0  0  0  0  0  0  0  0  0  0  0  # atno 5447 bound_to 565 
   21.0530  -12.3838    5.7409 LP  0  0  0  0  0  0  0  0  0  0  0  0  # atno 5448 bound_to 565 
   26.8685   -4.5311   11.1655 LP  0  0  0  0  0  0  0  0  0  0  0  0  # atno 5453 bound_to 1881
   26.5079   -5.2496   12.5869 LP  0  0  0  0  0  0  0  0  0  0  0  0  # atno 5454 bound_to 1881
   21.8304    3.6774    4.1776 LP  0  0  0  0  0  0  0  0  0  0  0  0  # atno 5481 bound_to 3121
   21.9114    5.2507    3.7477 LP  0  0  0  0  0  0  0  0  0  0  0  0  # atno 5482 bound_to 3121
   18.3165  -11.5272   -1.3344 LP  0  0  0  0  0  0  0  0  0  0  0  0  # atno 5489 bound_to 585 
   17.0080  -10.9129   -2.0941 LP  0  0  0  0  0  0  0  0  0  0  0  0  # atno 5490 bound_to 585 

> <Gold.Score>
     Fitness  S(hb_ext) S(vdw_ext)  S(hb_int)    S(int)      intcor
     35.51       1.99      24.43       0.00      -0.08      -0.76

> <Gold.Goldscore.Fitness>
35.5084

> <Gold.Goldscore.Internal.Vdw>
-0.3569

> <Gold.Goldscore.Internal.Torsion>
-0.4777

> <Gold.Goldscore.External.Vdw>
24.4322

> <Gold.Goldscore.Internal.HBond>
0.0000

> <Gold.Goldscore.External.HBond>
1.9903

> <Gold.Goldscore.Internal.Correction>
-0.7585

> <Gold.Goldscore.Hbonds>
donor molecule, donor type, donor heavy atom, donor atom, acceptor molecule, acceptor atom, score
      P1  H  5050  5059       L1    17  1.00

> <Gold.Goldscore.Internal.Vdw.Weighted>
-0.3569

> <Gold.Goldscore.Internal.Torsion.Weighted>
-0.4777

> <Gold.Goldscore.External.Vdw.Weighted>
33.5942

> <Gold.Goldscore.Internal.HBond.Weighted>
0.0000

> <Gold.Goldscore.External.HBond.Weighted>
1.9903

> <Gold.Goldscore.Internal.Correction.Weighted>
-0.7585

> <Gold.Rescore>
     Score     S(PLP)   S(hbond)     S(cho)   S(metal)  DE(clash)   DE(tors)     intcor
     35.17     -34.89       1.00       0.00       0.00       0.02       1.35       ----

> <Gold.PLP.Fitness>
35.1656

> <Gold.PLP.PLP>
-34.8894

> <Gold.PLP.part.hbond>
-2.7137

> <Gold.PLP.part.metal>
0.0000

> <Gold.PLP.part.buried>
-4.7259

> <Gold.PLP.part.nonpolar>
-29.5403

> <Gold.PLP.part.repulsive>
0.5861

> <Gold.PLP.ligand.clash>
0.0199

> <Gold.PLP.ligand.torsion>
1.3520

> <Gold.PLP.Chemscore.Hbond>
1.0000

> <Gold.PLP.Chemscore.CHOScore>
0.0000

> <Gold.PLP.Chemscore.Metal>
0.0000

> <Gold.Chemscore.Hbonds>
donor molecule, donor type, donor heavy atom, donor atom, acceptor molecule, acceptor atom, score
      P1  H  5050  5059       L1    17  0.11

> <Gold.PLP.Chemscore.Internal.Correction>
   9.000000E+99

