#       Name:                CT1002167954
#       Creating user name   hitesit
#       Creation time:       Sun Apr 16 20:23:36 2023


#       File generated by GOLD software.
#

@<TRIPOS>MOLECULE
CT1002167954|ligand_prepared|mol2|1|dock8
    29    30     1
SMALL
NO_CHARGES


@<TRIPOS>ATOM
      1 C1         190.3838 -11.8382  49.7773 C.3            1 RES1               0.0000
      2 C2         189.8608 -10.5071  50.3547 C.ar           1 RES1               0.0000
      3 C3         189.4992 -12.1616  48.5768 C.2            1 RES1               0.0000
      4 C4         191.8488 -11.6043  49.4256 C.2            1 RES1               0.0000
      5 C5         190.3142 -13.0207  50.7715 C.3            1 RES1               0.0000
      6 C6         190.0852 -10.1760  51.6876 C.ar           1 RES1               0.0000
      7 C7         189.1558  -9.6006  49.5674 C.ar           1 RES1               0.0000
      8 N8         190.0347 -11.9933  47.3339 N.am           1 RES1               0.0000
      9 O9         188.3368 -12.5208  48.7180 O.2            1 RES1               0.0000
     10 N10        192.2074 -11.6525  48.1039 N.am           1 RES1               0.0000
     11 O11        192.6928 -11.3621  50.2795 O.2            1 RES1               0.0000
     12 C12        190.6514 -14.3662  50.1485 C.3            1 RES1               0.0000
     13 C13        189.6242  -8.9806  52.2138 C.ar           1 RES1               0.0000
     14 C14        188.6954  -8.4058  50.0957 C.ar           1 RES1               0.0000
     15 C15        191.3613 -11.8060  47.0395 C.2            1 RES1               0.0000
     16 C16        188.9295  -8.0946  51.4182 C.ar           1 RES1               0.0000
     17 O17        191.7521 -11.7842  45.8760 O.2            1 RES1               0.0000
     18 H18        191.0106 -12.8294  51.5971 H              1 RES1               0.0000
     19 H19        189.3019 -13.0699  51.1913 H              1 RES1               0.0000
     20 H20        190.6279 -10.8618  52.3296 H              1 RES1               0.0000
     21 H21        188.9590  -9.8248  48.5245 H              1 RES1               0.0000
     22 H22        189.3890 -12.0081  46.5508 H              1 RES1               0.0000
     23 H23        193.1968 -11.5661  47.8940 H              1 RES1               0.0000
     24 H24        190.5875 -15.1609  50.8888 H              1 RES1               0.0000
     25 H25        189.9625 -14.6003  49.3396 H              1 RES1               0.0000
     26 H26        191.6611 -14.3612  49.7430 H              1 RES1               0.0000
     27 H27        189.8098  -8.7410  53.2556 H              1 RES1               0.0000
     28 H28        188.1486  -7.7117  49.4660 H              1 RES1               0.0000
     29 H29        188.5688  -7.1581  51.8305 H              1 RES1               0.0000
@<TRIPOS>BOND
    1    1    2 1     
    2    1    3 1     
    3    1    4 1     
    4    1    5 1     
    5    2    6 ar    
    6    2    7 ar    
    7    3    8 1     
    8    3    9 2     
    9    4   10 1     
   10    4   11 2     
   11    5   12 1     
   12    5   18 1     
   13    5   19 1     
   14    6   13 ar    
   15    6   20 1     
   16    7   14 ar    
   17    7   21 1     
   18    8   15 1     
   19    8   22 1     
   20   10   15 1     
   21   10   23 1     
   22   12   24 1     
   23   12   25 1     
   24   12   26 1     
   25   13   16 ar    
   26   13   27 1     
   27   14   16 ar    
   28   14   28 1     
   29   15   17 2     
   30   16   29 1     
@<TRIPOS>SUBSTRUCTURE
      1 RES1           1
@<TRIPOS>SET
DONOR_HYDROGENS      STATIC     ATOMS    <user>   **** ""
2 22 23
ATOM$RED        STATIC     ATOMS    COLORGROUP SYSTEM
2 22 23
@<TRIPOS>COMMENT
> <Gold.Version>
2022.3.0

> <Gold.Id.Protein>
unknown|4v3u_clean|pdb

> <Gold.Protein.RotatedTorsions>
[ 6601 6555 6556 6557 ] final -175.80 input  119.23 | X-H torsion
[ 8042 8007 8008 8009 ] final  104.69 input   55.11 | X-H torsion
[ 8121 8084 8085 8086 ] final    4.25 input   97.66 | X-H torsion
[ 8180 8150 8151 8152 ] final -113.12 input   74.82 | X-H torsion
[ 8257 8218 8219 8220 ] final  -80.54 input   76.36 | X-H torsion
[ 9569 9518 9517 9515 ] final  -84.52 input   59.97 | X-H torsion
[ 6689 6635 6636 6637 ] final  -26.92 input  125.14 | X-H torsion
[ 8319 8295 8296 8297 ] final   -6.72 input   97.98 | X-H torsion
[ 10213 10167 10168 10169 ] final -151.73 input   38.66 | X-H torsion
[ 7960 7920 7921 7922 ] final -104.00 input   85.79 | X-H torsion
[ 6837 6784 6785 6786 ] final   42.98 input  126.65 | X-H torsion
[ 7896 7873 7874 7875 ] final  170.41 input  103.19 | X-H torsion
[ 7900 7878 7877 7874 ] final  142.88 input   60.02 | X-H torsion
[ 27201 6558 6557 6556 ] final  -12.76 input    0.00 | X-H torsion
[ 27203 7876 7875 7874 ] final    5.53 input   -0.00 | X-H torsion
[ 27206 8010 8009 8008 ] final -144.13 input    0.00 | X-H torsion
[ 27209 8087 8086 8085 ] final   -9.81 input    0.00 | X-H torsion
[ 27212 8153 8152 8151 ] final   48.81 input   -0.00 | X-H torsion
[ 27219 10084 10083 10082 ] final   67.29 input    0.00 | X-H torsion
[ 27222 10170 10169 10168 ] final   35.69 input    0.00 | X-H torsion
[ 27225 7923 7922 7921 ] final  175.46 input   -0.00 | X-H torsion
[ 27227 6365 6364 6363 ] final  137.24 input    0.00 | X-H torsion
[ 27230 7788 7787 7786 ] final   -3.92 input    0.00 | X-H torsion
[ 27232 7715 7714 7713 ] final   30.68 input    0.00 | X-H torsion

> <Gold.Protein.ActiveResidues>
 THR404  ILE407  TYR408  ALA410  LYS411  TRP414  GLN425  TRP426  SER427  LYS428 
 LEU429  GLN430  VAL431  PHE432  ASP433  TYR453  SER462  ALA463  ILE464 

> <Gold.Protein.RotatedAtoms>
  195.2243   -9.4254   37.6196 H   0  0  0  0  0  0  0  0  0  0  0  0  # atno 6601 bound_to 6555
  197.4222   -8.5091   39.9855 H   0  0  0  0  0  0  0  0  0  0  0  0  # atno 6689 bound_to 6635
  197.5085   -5.1892   42.0902 H   0  0  0  0  0  0  0  0  0  0  0  0  # atno 6837 bound_to 6784
  198.1752   -6.6773   50.2465 H   0  0  0  0  0  0  0  0  0  0  0  0  # atno 7896 bound_to 7873
  198.6535  -10.2801   51.5922 H   0  0  0  0  0  0  0  0  0  0  0  0  # atno 7900 bound_to 7878
  195.6840   -9.1647   49.6941 H   0  0  0  0  0  0  0  0  0  0  0  0  # atno 7960 bound_to 7920
  193.8752   -8.3861   48.0718 H   0  0  0  0  0  0  0  0  0  0  0  0  # atno 8042 bound_to 8007
  190.4305   -7.6537   45.9564 H   0  0  0  0  0  0  0  0  0  0  0  0  # atno 8121 bound_to 8084
  189.5986   -8.7251   43.6520 H   0  0  0  0  0  0  0  0  0  0  0  0  # atno 8180 bound_to 8150
  188.9243   -8.8703   40.1936 H   0  0  0  0  0  0  0  0  0  0  0  0  # atno 8257 bound_to 8218
  186.8558   -9.1032   37.0574 H   0  0  0  0  0  0  0  0  0  0  0  0  # atno 8319 bound_to 8295
  185.6996  -11.5877   48.8610 H   0  0  0  0  0  0  0  0  0  0  0  0  # atno 9569 bound_to 9518
  187.9611   -4.3596   44.3653 H   0  0  0  0  0  0  0  0  0  0  0  0  # atno 10213 bound_to 10167
  196.8316   -8.7672   37.8331 LP  0  0  0  0  0  0  0  0  0  0  0  0  # atno 27200 bound_to 6555
  195.9989   -7.4197   41.4366 LP  0  0  0  0  0  0  0  0  0  0  0  0  # atno 27201 bound_to 6558
  197.6561   -7.6147   41.9010 LP  0  0  0  0  0  0  0  0  0  0  0  0  # atno 27202 bound_to 6558
  196.4085  -10.4147   48.0390 LP  0  0  0  0  0  0  0  0  0  0  0  0  # atno 27203 bound_to 7876
  194.7642  -10.4635   48.5811 LP  0  0  0  0  0  0  0  0  0  0  0  0  # atno 27204 bound_to 7876
  192.4385   -8.9256   48.9116 LP  0  0  0  0  0  0  0  0  0  0  0  0  # atno 27205 bound_to 8007
  191.8517   -9.6250   44.6965 LP  0  0  0  0  0  0  0  0  0  0  0  0  # atno 27206 bound_to 8010
  192.9336   -9.7867   46.0394 LP  0  0  0  0  0  0  0  0  0  0  0  0  # atno 27207 bound_to 8010
  190.2495   -8.9320   47.1346 LP  0  0  0  0  0  0  0  0  0  0  0  0  # atno 27208 bound_to 8084
  188.3780   -7.1108   44.5537 LP  0  0  0  0  0  0  0  0  0  0  0  0  # atno 27209 bound_to 8087
  189.0241   -6.9771   42.9522 LP  0  0  0  0  0  0  0  0  0  0  0  0  # atno 27210 bound_to 8087
  190.1125  -10.2471   42.9637 LP  0  0  0  0  0  0  0  0  0  0  0  0  # atno 27211 bound_to 8150
  188.9289  -11.0880   41.0260 LP  0  0  0  0  0  0  0  0  0  0  0  0  # atno 27212 bound_to 8153
  188.8471  -10.6935   39.3415 LP  0  0  0  0  0  0  0  0  0  0  0  0  # atno 27213 bound_to 8153
  187.9018   -7.5299   40.6497 LP  0  0  0  0  0  0  0  0  0  0  0  0  # atno 27214 bound_to 8218
  186.6043  -10.8974   47.6977 LP  0  0  0  0  0  0  0  0  0  0  0  0  # atno 27215 bound_to 9518
  185.9870  -12.3929   47.4763 LP  0  0  0  0  0  0  0  0  0  0  0  0  # atno 27216 bound_to 9518
  198.2369  -10.0181   39.6440 LP  0  0  0  0  0  0  0  0  0  0  0  0  # atno 27217 bound_to 6635
  188.4765   -9.5217   37.5728 LP  0  0  0  0  0  0  0  0  0  0  0  0  # atno 27218 bound_to 8295
  187.1743   -7.5352   48.2588 LP  0  0  0  0  0  0  0  0  0  0  0  0  # atno 27219 bound_to 10084
  188.6618   -7.3486   47.3914 LP  0  0  0  0  0  0  0  0  0  0  0  0  # atno 27220 bound_to 10084
  188.0677   -5.7434   43.3003 LP  0  0  0  0  0  0  0  0  0  0  0  0  # atno 27221 bound_to 10167
  187.9055   -6.3766   41.6347 LP  0  0  0  0  0  0  0  0  0  0  0  0  # atno 27222 bound_to 10170
  188.0814   -6.0726   39.9386 LP  0  0  0  0  0  0  0  0  0  0  0  0  # atno 27223 bound_to 10170
  195.2723   -7.8715   50.8003 LP  0  0  0  0  0  0  0  0  0  0  0  0  # atno 27224 bound_to 7920
  191.3344   -6.9340   49.4599 LP  0  0  0  0  0  0  0  0  0  0  0  0  # atno 27225 bound_to 7923
  191.7648   -7.5584   51.0171 LP  0  0  0  0  0  0  0  0  0  0  0  0  # atno 27226 bound_to 7923
  199.6164  -10.8803   38.3598 LP  0  0  0  0  0  0  0  0  0  0  0  0  # atno 27227 bound_to 6365
  198.0305  -11.4040   38.8188 LP  0  0  0  0  0  0  0  0  0  0  0  0  # atno 27228 bound_to 6365
  195.8479   -5.1882   42.6404 LP  0  0  0  0  0  0  0  0  0  0  0  0  # atno 27229 bound_to 6784
  195.7181   -5.3867   48.0167 LP  0  0  0  0  0  0  0  0  0  0  0  0  # atno 27230 bound_to 7788
  196.1740   -7.0543   47.9106 LP  0  0  0  0  0  0  0  0  0  0  0  0  # atno 27231 bound_to 7788
  193.8980   -6.2480   51.6615 LP  0  0  0  0  0  0  0  0  0  0  0  0  # atno 27232 bound_to 7715
  195.2834   -6.6752   50.7138 LP  0  0  0  0  0  0  0  0  0  0  0  0  # atno 27233 bound_to 7715
  196.4396   -6.7444   50.3879 LP  0  0  0  0  0  0  0  0  0  0  0  0  # atno 27234 bound_to 7873
  197.5568   -9.0787   51.6386 LP  0  0  0  0  0  0  0  0  0  0  0  0  # atno 27235 bound_to 7878
  199.1507   -8.7307   51.5700 LP  0  0  0  0  0  0  0  0  0  0  0  0  # atno 27236 bound_to 7878

> <Gold.Score>
     Fitness  S(hb_ext) S(vdw_ext)  S(hb_int)    S(int)      intcor
     33.79       6.00      21.00       0.00      -1.09      -0.76

> <Gold.Goldscore.Fitness>
33.7945

> <Gold.Goldscore.Internal.Vdw>
-1.3770

> <Gold.Goldscore.Internal.Torsion>
-0.4686

> <Gold.Goldscore.External.Vdw>
21.0048

> <Gold.Goldscore.Internal.HBond>
0.0000

> <Gold.Goldscore.External.HBond>
6.0000

> <Gold.Goldscore.Internal.Correction>
-0.7585

> <Gold.Goldscore.Hbonds>
donor molecule, donor type, donor heavy atom, donor atom, acceptor molecule, acceptor atom, score
      L1  H     8    22       P1  8092  1.00

> <Gold.Goldscore.Internal.Vdw.Weighted>
-1.3770

> <Gold.Goldscore.Internal.Torsion.Weighted>
-0.4686

> <Gold.Goldscore.External.Vdw.Weighted>
28.8816

> <Gold.Goldscore.Internal.HBond.Weighted>
0.0000

> <Gold.Goldscore.External.HBond.Weighted>
6.0000

> <Gold.Goldscore.Internal.Correction.Weighted>
-0.7585

> <Gold.Rescore>
     Score     S(PLP)   S(hbond)     S(cho)   S(metal)  DE(clash)   DE(tors)     intcor
     33.09     -31.64       0.99       0.00       0.00       1.03       0.25       ----

> <Gold.PLP.Fitness>
33.0925

> <Gold.PLP.PLP>
-31.6433

> <Gold.PLP.part.hbond>
-1.1897

> <Gold.PLP.part.metal>
0.0000

> <Gold.PLP.part.buried>
-5.0364

> <Gold.PLP.part.nonpolar>
-25.8654

> <Gold.PLP.part.repulsive>
0.5116

> <Gold.PLP.ligand.clash>
1.0291

> <Gold.PLP.ligand.torsion>
0.2477

> <Gold.PLP.Chemscore.Hbond>
0.9913

> <Gold.PLP.Chemscore.CHOScore>
0.0000

> <Gold.PLP.Chemscore.Metal>
0.0000

> <Gold.Chemscore.Hbonds>
donor molecule, donor type, donor heavy atom, donor atom, acceptor molecule, acceptor atom, score
      L1  H     8    22       P1  8092  1.00

> <Gold.PLP.Chemscore.Internal.Correction>
   9.000000E+99

