#       Name:                CT1002167954
#       Creating user name   hitesit
#       Creation time:       Sun Apr 16 20:23:35 2023


#       File generated by GOLD software.
#

@<TRIPOS>MOLECULE
CT1002167954|ligand_prepared|mol2|1|dock5
    29    30     1
SMALL
NO_CHARGES


@<TRIPOS>ATOM
      1 C1         192.3741 -13.8941  46.4843 C.3            1 RES1               0.0000
      2 C2         192.5544 -13.1410  47.8181 C.ar           1 RES1               0.0000
      3 C3         190.8828 -13.8484  46.1646 C.2            1 RES1               0.0000
      4 C4         193.2511 -13.1740  45.4659 C.2            1 RES1               0.0000
      5 C5         192.8200 -15.3740  46.5371 C.3            1 RES1               0.0000
      6 C6         193.7612 -13.2014  48.5085 C.ar           1 RES1               0.0000
      7 C7         191.5257 -12.3809  48.3684 C.ar           1 RES1               0.0000
      8 N8         190.4758 -13.0120  45.1673 N.am           1 RES1               0.0000
      9 O9         190.0717 -14.5065  46.8043 O.2            1 RES1               0.0000
     10 N10        192.6320 -12.5314  44.4259 N.am           1 RES1               0.0000
     11 O11        194.4716 -13.1433  45.5639 O.2            1 RES1               0.0000
     12 C12        192.4638 -16.1666  45.2893 C.3            1 RES1               0.0000
     13 C13        193.9345 -12.5242  49.7042 C.ar           1 RES1               0.0000
     14 C14        191.7010 -11.7046  49.5644 C.ar           1 RES1               0.0000
     15 C15        191.2826 -12.3918  44.2474 C.2            1 RES1               0.0000
     16 C16        192.9048 -11.7751  50.2327 C.ar           1 RES1               0.0000
     17 O17        190.8017 -11.7525  43.3162 O.2            1 RES1               0.0000
     18 H18        193.9069 -15.4104  46.6803 H              1 RES1               0.0000
     19 H19        192.3512 -15.8532  47.4055 H              1 RES1               0.0000
     20 H20        194.5820 -13.7879  48.1094 H              1 RES1               0.0000
     21 H21        190.5697 -12.3120  47.8606 H              1 RES1               0.0000
     22 H22        189.4794 -12.8308  45.0991 H              1 RES1               0.0000
     23 H23        193.2328 -12.1191  43.7193 H              1 RES1               0.0000
     24 H24        192.7990 -17.1978  45.3786 H              1 RES1               0.0000
     25 H25        191.3875 -16.1726  45.1303 H              1 RES1               0.0000
     26 H26        192.9340 -15.7324  44.4094 H              1 RES1               0.0000
     27 H27        194.8834 -12.5840  50.2270 H              1 RES1               0.0000
     28 H28        190.8877 -11.1168  49.9769 H              1 RES1               0.0000
     29 H29        193.0410 -11.2444  51.1692 H              1 RES1               0.0000
@<TRIPOS>BOND
    1    1    2 1     
    2    1    3 1     
    3    1    4 1     
    4    1    5 1     
    5    2    6 ar    
    6    2    7 ar    
    7    3    8 1     
    8    3    9 2     
    9    4   10 1     
   10    4   11 2     
   11    5   12 1     
   12    5   18 1     
   13    5   19 1     
   14    6   13 ar    
   15    6   20 1     
   16    7   14 ar    
   17    7   21 1     
   18    8   15 1     
   19    8   22 1     
   20   10   15 1     
   21   10   23 1     
   22   12   24 1     
   23   12   25 1     
   24   12   26 1     
   25   13   16 ar    
   26   13   27 1     
   27   14   16 ar    
   28   14   28 1     
   29   15   17 2     
   30   16   29 1     
@<TRIPOS>SUBSTRUCTURE
      1 RES1           1
@<TRIPOS>SET
DONOR_HYDROGENS      STATIC     ATOMS    <user>   **** ""
2 22 23
ATOM$RED        STATIC     ATOMS    COLORGROUP SYSTEM
2 22 23
@<TRIPOS>COMMENT
> <Gold.Version>
2022.3.0

> <Gold.Id.Protein>
unknown|4v3u_clean|pdb

> <Gold.Protein.RotatedTorsions>
[ 6601 6555 6556 6557 ] final   18.67 input  119.23 | X-H torsion
[ 8042 8007 8008 8009 ] final  104.97 input   55.11 | X-H torsion
[ 8121 8084 8085 8086 ] final -132.28 input   97.66 | X-H torsion
[ 8180 8150 8151 8152 ] final   93.22 input   74.82 | X-H torsion
[ 8257 8218 8219 8220 ] final   59.70 input   76.36 | X-H torsion
[ 9569 9518 9517 9515 ] final  -17.04 input   59.97 | X-H torsion
[ 6689 6635 6636 6637 ] final  -38.08 input  125.14 | X-H torsion
[ 8319 8295 8296 8297 ] final  -24.74 input   97.98 | X-H torsion
[ 10213 10167 10168 10169 ] final    1.74 input   38.66 | X-H torsion
[ 7960 7920 7921 7922 ] final -128.28 input   85.79 | X-H torsion
[ 6837 6784 6785 6786 ] final   86.96 input  126.65 | X-H torsion
[ 7896 7873 7874 7875 ] final  -59.03 input  103.19 | X-H torsion
[ 7900 7878 7877 7874 ] final   11.63 input   60.02 | X-H torsion
[ 27201 6558 6557 6556 ] final -157.41 input    0.00 | X-H torsion
[ 27203 7876 7875 7874 ] final -148.03 input   -0.00 | X-H torsion
[ 27206 8010 8009 8008 ] final  -52.26 input    0.00 | X-H torsion
[ 27209 8087 8086 8085 ] final -145.47 input    0.00 | X-H torsion
[ 27212 8153 8152 8151 ] final   18.08 input   -0.00 | X-H torsion
[ 27219 10084 10083 10082 ] final -136.93 input    0.00 | X-H torsion
[ 27222 10170 10169 10168 ] final  145.81 input    0.00 | X-H torsion
[ 27225 7923 7922 7921 ] final   71.79 input   -0.00 | X-H torsion
[ 27227 6365 6364 6363 ] final  136.32 input    0.00 | X-H torsion
[ 27230 7788 7787 7786 ] final  149.12 input    0.00 | X-H torsion
[ 27232 7715 7714 7713 ] final    6.31 input    0.00 | X-H torsion

> <Gold.Protein.ActiveResidues>
 THR404  ILE407  TYR408  ALA410  LYS411  TRP414  GLN425  TRP426  SER427  LYS428 
 LEU429  GLN430  VAL431  PHE432  ASP433  TYR453  SER462  ALA463  ILE464 

> <Gold.Protein.RotatedAtoms>
  196.9139   -8.9740   37.8410 H   0  0  0  0  0  0  0  0  0  0  0  0  # atno 6601 bound_to 6555
  197.3822   -8.5840   40.1354 H   0  0  0  0  0  0  0  0  0  0  0  0  # atno 6689 bound_to 6635
  197.2624   -5.8045   42.1398 H   0  0  0  0  0  0  0  0  0  0  0  0  # atno 6837 bound_to 6784
  196.6793   -6.3999   49.7918 H   0  0  0  0  0  0  0  0  0  0  0  0  # atno 7896 bound_to 7873
  197.6354   -8.9122   51.6327 H   0  0  0  0  0  0  0  0  0  0  0  0  # atno 7900 bound_to 7878
  195.7547   -9.3205   50.0273 H   0  0  0  0  0  0  0  0  0  0  0  0  # atno 7960 bound_to 7920
  193.8755   -8.3827   48.0744 H   0  0  0  0  0  0  0  0  0  0  0  0  # atno 8042 bound_to 8007
  190.7947   -9.0184   46.7959 H   0  0  0  0  0  0  0  0  0  0  0  0  # atno 8121 bound_to 8084
  190.4660  -10.0892   43.0591 H   0  0  0  0  0  0  0  0  0  0  0  0  # atno 8180 bound_to 8150
  188.2628   -7.3489   40.2141 H   0  0  0  0  0  0  0  0  0  0  0  0  # atno 8257 bound_to 8218
  186.9415   -8.8510   37.1412 H   0  0  0  0  0  0  0  0  0  0  0  0  # atno 8319 bound_to 8295
  185.6164  -12.4030   48.2206 H   0  0  0  0  0  0  0  0  0  0  0  0  # atno 9569 bound_to 9518
  187.6737   -5.6663   43.2709 H   0  0  0  0  0  0  0  0  0  0  0  0  # atno 10213 bound_to 10167
  195.1936   -9.2047   37.6184 LP  0  0  0  0  0  0  0  0  0  0  0  0  # atno 27200 bound_to 6555
  197.6344   -7.2280   41.5453 LP  0  0  0  0  0  0  0  0  0  0  0  0  # atno 27201 bound_to 6558
  196.0206   -7.8064   41.7923 LP  0  0  0  0  0  0  0  0  0  0  0  0  # atno 27202 bound_to 6558
  194.7523  -10.2081   48.2788 LP  0  0  0  0  0  0  0  0  0  0  0  0  # atno 27203 bound_to 7876
  196.4204  -10.6702   48.3413 LP  0  0  0  0  0  0  0  0  0  0  0  0  # atno 27204 bound_to 7876
  192.4383   -8.9289   48.9091 LP  0  0  0  0  0  0  0  0  0  0  0  0  # atno 27205 bound_to 8007
  192.8785   -9.0438   45.0927 LP  0  0  0  0  0  0  0  0  0  0  0  0  # atno 27206 bound_to 8010
  191.9069  -10.3679   45.6431 LP  0  0  0  0  0  0  0  0  0  0  0  0  # atno 27207 bound_to 8010
  189.8940   -7.5998   46.3150 LP  0  0  0  0  0  0  0  0  0  0  0  0  # atno 27208 bound_to 8084
  188.4208   -7.2287   42.9546 LP  0  0  0  0  0  0  0  0  0  0  0  0  # atno 27209 bound_to 8087
  188.9813   -6.8593   44.5513 LP  0  0  0  0  0  0  0  0  0  0  0  0  # atno 27210 bound_to 8087
  189.2654   -8.9150   43.5427 LP  0  0  0  0  0  0  0  0  0  0  0  0  # atno 27211 bound_to 8150
  189.3650  -11.0685   40.8844 LP  0  0  0  0  0  0  0  0  0  0  0  0  # atno 27212 bound_to 8153
  188.4110  -10.7130   39.4831 LP  0  0  0  0  0  0  0  0  0  0  0  0  # atno 27213 bound_to 8153
  188.5500   -9.0207   40.6296 LP  0  0  0  0  0  0  0  0  0  0  0  0  # atno 27214 bound_to 8218
  186.1373  -10.9179   48.6349 LP  0  0  0  0  0  0  0  0  0  0  0  0  # atno 27215 bound_to 9518
  186.5376  -11.5514   47.1840 LP  0  0  0  0  0  0  0  0  0  0  0  0  # atno 27216 bound_to 9518
  198.2758   -9.9451   39.4981 LP  0  0  0  0  0  0  0  0  0  0  0  0  # atno 27217 bound_to 6635
  188.3938   -9.7650   37.4920 LP  0  0  0  0  0  0  0  0  0  0  0  0  # atno 27218 bound_to 8295
  188.4156   -7.3324   47.1248 LP  0  0  0  0  0  0  0  0  0  0  0  0  # atno 27219 bound_to 10084
  187.4205   -7.5514   48.5254 LP  0  0  0  0  0  0  0  0  0  0  0  0  # atno 27220 bound_to 10084
  188.3465   -4.4757   44.3620 LP  0  0  0  0  0  0  0  0  0  0  0  0  # atno 27221 bound_to 10167
  187.2227   -6.2696   40.3944 LP  0  0  0  0  0  0  0  0  0  0  0  0  # atno 27222 bound_to 10170
  188.7642   -6.1795   41.1789 LP  0  0  0  0  0  0  0  0  0  0  0  0  # atno 27223 bound_to 10170
  195.2040   -7.7209   50.4784 LP  0  0  0  0  0  0  0  0  0  0  0  0  # atno 27224 bound_to 7920
  192.1932   -6.7273   50.4963 LP  0  0  0  0  0  0  0  0  0  0  0  0  # atno 27225 bound_to 7923
  190.9059   -7.7651   49.9807 LP  0  0  0  0  0  0  0  0  0  0  0  0  # atno 27226 bound_to 7923
  199.6216  -10.8923   38.3647 LP  0  0  0  0  0  0  0  0  0  0  0  0  # atno 27227 bound_to 6365
  198.0252  -11.3920   38.8139 LP  0  0  0  0  0  0  0  0  0  0  0  0  # atno 27228 bound_to 6365
  196.0868   -4.5907   42.5923 LP  0  0  0  0  0  0  0  0  0  0  0  0  # atno 27229 bound_to 6784
  196.4797   -6.8616   47.7305 LP  0  0  0  0  0  0  0  0  0  0  0  0  # atno 27230 bound_to 7788
  195.4125   -5.5795   48.1969 LP  0  0  0  0  0  0  0  0  0  0  0  0  # atno 27231 bound_to 7788
  194.0305   -6.5357   51.8438 LP  0  0  0  0  0  0  0  0  0  0  0  0  # atno 27232 bound_to 7715
  195.1510   -6.3874   50.5314 LP  0  0  0  0  0  0  0  0  0  0  0  0  # atno 27233 bound_to 7715
  197.9260   -7.0200   50.8398 LP  0  0  0  0  0  0  0  0  0  0  0  0  # atno 27234 bound_to 7873
  199.2611   -8.8789   51.5656 LP  0  0  0  0  0  0  0  0  0  0  0  0  # atno 27235 bound_to 7878
  198.4717  -10.3079   51.6023 LP  0  0  0  0  0  0  0  0  0  0  0  0  # atno 27236 bound_to 7878

> <Gold.Score>
     Fitness  S(hb_ext) S(vdw_ext)  S(hb_int)    S(int)      intcor
     26.69      10.14      13.14       0.00      -1.50      -0.76

> <Gold.Goldscore.Fitness>
26.6949

> <Gold.Goldscore.Internal.Vdw>
-1.7846

> <Gold.Goldscore.Internal.Torsion>
-0.4763

> <Gold.Goldscore.External.Vdw>
13.1357

> <Gold.Goldscore.Internal.HBond>
0.0000

> <Gold.Goldscore.External.HBond>
10.1357

> <Gold.Goldscore.Internal.Correction>
-0.7585

> <Gold.Goldscore.Hbonds>
donor molecule, donor type, donor heavy atom, donor atom, acceptor molecule, acceptor atom, score
      P1  H  6792  6848       L1    11  0.47
      P1  H  8150  8180       L1    17  0.70
      L1  H     8    22       P1  8092  0.99

> <Gold.Goldscore.Internal.Vdw.Weighted>
-1.7846

> <Gold.Goldscore.Internal.Torsion.Weighted>
-0.4763

> <Gold.Goldscore.External.Vdw.Weighted>
18.0616

> <Gold.Goldscore.Internal.HBond.Weighted>
0.0000

> <Gold.Goldscore.External.HBond.Weighted>
10.1357

> <Gold.Goldscore.Internal.Correction.Weighted>
-0.7585

> <Gold.Rescore>
     Score     S(PLP)   S(hbond)     S(cho)   S(metal)  DE(clash)   DE(tors)     intcor
     28.25     -20.79       3.00       0.00       0.00       1.08       0.23       ----

> <Gold.PLP.Fitness>
28.2541

> <Gold.PLP.PLP>
-20.7864

> <Gold.PLP.part.hbond>
-3.0000

> <Gold.PLP.part.metal>
0.0000

> <Gold.PLP.part.buried>
-5.8313

> <Gold.PLP.part.nonpolar>
-12.6906

> <Gold.PLP.part.repulsive>
0.4560

> <Gold.PLP.ligand.clash>
1.0816

> <Gold.PLP.ligand.torsion>
0.2253

> <Gold.PLP.Chemscore.Hbond>
3.0000

> <Gold.PLP.Chemscore.CHOScore>
0.0000

> <Gold.PLP.Chemscore.Metal>
0.0000

> <Gold.Chemscore.Hbonds>
donor molecule, donor type, donor heavy atom, donor atom, acceptor molecule, acceptor atom, score
      L1  H     8    22       P1  8092  1.00
      P1  H  6792  6848       L1    11  0.84
      P1  H  8150  8180       L1    17  1.00

> <Gold.PLP.Chemscore.Internal.Correction>
   9.000000E+99

