@<TRIPOS>MOLECULE
A:3GF403
    52    56     1     0     1
SMALL
NO_CHARGES
****
Generated from the CSD

@<TRIPOS>ATOM
     1 C1      43.4210  61.8040  21.8130   C.ar      1 3GF403   0.0000
     2 C2      44.2160  60.8550  22.4360   C.ar      1 3GF403   0.0000
     3 C3      44.6980  61.1090  23.7050   C.ar      1 3GF403   0.0000
     4 C4      44.3890  62.2930  24.3720   C.ar      1 3GF403   0.0000
     5 C5      43.5850  63.2640  23.7770   C.ar      1 3GF403   0.0000
     6 C6      43.0880  63.0620  22.5040   C.ar      1 3GF403   0.0000
     7 C7      42.2930  64.0150  21.8800   C.ar      1 3GF403   0.0000
     8 C8      41.8560  63.7860  20.5760   C.ar      1 3GF403   0.0000
     9 C9      42.1350  62.5670  19.9430   C.ar      1 3GF403   0.0000
    10 C10     42.9310  61.5950  20.5450   C.ar      1 3GF403   0.0000
    11 C11     40.9260  64.7400  19.9260   C.ar      1 3GF403   0.0000
    12 N12     40.0340  65.2740  20.7890   N.ar      1 3GF403   0.0000
    13 N13     39.0240  66.1400  20.3750   N.ar      1 3GF403   0.0000
    14 C14     38.8870  66.4650  19.0760   C.ar      1 3GF403   0.0000
    15 C15     39.7740  65.9030  18.1620   C.ar      1 3GF403   0.0000
    16 C16     40.7790  65.0130  18.5610   C.ar      1 3GF403   0.0000
    17 C17     41.6840  64.5390  17.4720   C.ar      1 3GF403   0.0000
    18 N18     37.8430  67.3380  18.6910   N.pl3     1 3GF403   0.0000
    19 C19     43.0650  64.4640  17.6730   C.ar      1 3GF403   0.0000
    20 C20     43.8790  64.0590  16.6280   C.ar      1 3GF403   0.0000
    21 N21     43.3510  63.7800  15.4290   N.ar      1 3GF403   0.0000
    22 C22     42.0340  63.8600  15.1950   C.ar      1 3GF403   0.0000
    23 C23     41.1720  64.2500  16.2130   C.ar      1 3GF403   0.0000
    24 C24     36.8950  67.8310  19.6940   C.3       1 3GF403   0.0000
    25 C25     35.5050  67.3520  19.2630   C.3       1 3GF403   0.0000
    26 N26     35.1940  67.7080  17.8570   N.3       1 3GF403   0.0000
    27 C27     36.2370  67.2170  16.9260   C.3       1 3GF403   0.0000
    28 C28     37.6230  67.7430  17.3010   C.3       1 3GF403   0.0000
    29 C29     34.9660  69.1640  17.7130   C.3       1 3GF403   0.0000
    30 H1      40.1022  64.3286  16.0252   H         1 3GF403   0.0000
    31 H2      41.6398  63.6198  14.2087   H         1 3GF403   0.0000
    32 H3      43.4959  64.7209  18.6396   H         1 3GF403   0.0000
    33 H4      36.9215  68.9190  19.7319   H         1 3GF403   0.0000
    34 H5      37.1432  67.4275  20.6746   H         1 3GF403   0.0000
    35 H6      35.9945  67.5490  15.9176   H         1 3GF403   0.0000
    36 H7      36.2526  66.1285  16.9559   H         1 3GF403   0.0000
    37 H8      34.7605  67.8101  19.9124   H         1 3GF403   0.0000
    38 H9      35.4606  66.2689  19.3674   H         1 3GF403   0.0000
    39 H10     44.7817  62.4623  25.3735   H         1 3GF403   0.0000
    40 H11     44.9531  63.9670  16.7819   H         1 3GF403   0.0000
    41 H12     35.8611  69.7036  18.0188   H         1 3GF403   0.0000
    42 H13     34.7404  69.3950  16.6730   H         1 3GF403   0.0000
    43 H14     34.1288  69.4642  18.3414   H         1 3GF403   0.0000
    44 H15     39.6839  66.1625  17.1082   H         1 3GF403   0.0000
    45 H16     45.3315  60.3702  24.1937   H         1 3GF403   0.0000
    46 H17     43.1643  60.6734  20.0137   H         1 3GF403   0.0000
    47 H18     42.0147  64.9290  22.4025   H         1 3GF403   0.0000
    48 H19     43.3490  64.1808  24.3152   H         1 3GF403   0.0000
    49 H20     44.4576  59.9208  21.9312   H         1 3GF403   0.0000
    50 H21     41.7188  62.3747  18.9552   H         1 3GF403   0.0000
    51 H22     38.3820  67.3054  16.6542   H         1 3GF403   0.0000
    52 H23     37.6529  68.8280  17.2133   H         1 3GF403   0.0000
@<TRIPOS>BOND
     1     1     2   ar
     2     2     3   ar
     3     3     4   ar
     4     4     5   ar
     5     1     6   ar
     6     5     6   ar
     7     6     7   ar
     8     7     8   ar
     9     8     9   ar
    10     1    10   ar
    11     9    10   ar
    12     8    11    1
    13    11    12   ar
    14    12    13   ar
    15    13    14   ar
    16    14    15   ar
    17    11    16   ar
    18    15    16   ar
    19    16    17    1
    20    14    18    1
    21    17    19   ar
    22    19    20   ar
    23    20    21   ar
    24    21    22   ar
    25    17    23   ar
    26    22    23   ar
    27    18    24    1
    28    24    25    1
    29    25    26    1
    30    26    27    1
    31    18    28    1
    32    27    28    1
    33    26    29    1
    34    23    30    1
    35    22    31    1
    36    19    32    1
    37    24    33    1
    38    24    34    1
    39    27    35    1
    40    27    36    1
    41    25    37    1
    42    25    38    1
    43     4    39    1
    44    20    40    1
    45    29    41    1
    46    29    42    1
    47    29    43    1
    48    15    44    1
    49     3    45    1
    50    10    46    1
    51     7    47    1
    52     5    48    1
    53     2    49    1
    54     9    50    1
    55    28    51    1
    56    28    52    1
@<TRIPOS>SUBSTRUCTURE
     1 3GF403      1 GROUP             0 A     3GF     0  
@<TRIPOS>SET
CCDC_LIGAND STATIC ATOMS
52 1 2 3 4 5 6 7 8 9 \
10 11 12 13 14 15 16 17 18 19 \
20 21 22 23 24 25 26 27 28 29 \
30 31 32 33 34 35 36 37 38 39 \
40 41 42 43 44 45 46 47 48 49 \
50 51 52 
