#       Name:                CT1002167954
#       Creating user name   hitesit
#       Creation time:       Sun Apr 16 20:17:42 2023


#       File generated by GOLD software.
#

@<TRIPOS>MOLECULE
CT1002167954|ligand_prepared|mol2|1|dock3
    29    30     1
SMALL
NO_CHARGES


@<TRIPOS>ATOM
      1 C1         111.1165 242.7770 326.6022 C.3            1 RES1               0.0000
      2 C2         111.0309 244.1631 325.9314 C.ar           1 RES1               0.0000
      3 C3         109.7900 242.0796 326.3154 C.2            1 RES1               0.0000
      4 C4         112.3292 242.0822 325.9927 C.2            1 RES1               0.0000
      5 C5         111.3194 242.8357 328.1342 C.3            1 RES1               0.0000
      6 C6         111.2187 244.2991 324.5592 C.ar           1 RES1               0.0000
      7 C7         110.7629 245.3126 326.6699 C.ar           1 RES1               0.0000
      8 N8         109.7908 241.0751 325.3929 N.am           1 RES1               0.0000
      9 O9         108.7517 242.4320 326.8611 O.2            1 RES1               0.0000
     10 N10        112.1126 240.9664 325.2274 N.am           1 RES1               0.0000
     11 O11        113.4689 242.5007 326.1546 O.2            1 RES1               0.0000
     12 C12        111.6606 241.4922 328.7594 C.3            1 RES1               0.0000
     13 C13        111.1384 245.5389 323.9469 C.ar           1 RES1               0.0000
     14 C14        110.6832 246.5515 326.0556 C.ar           1 RES1               0.0000
     15 C15        110.8959 240.4492 324.8746 C.2            1 RES1               0.0000
     16 C16        110.8702 246.6657 324.6945 C.ar           1 RES1               0.0000
     17 O17        110.7808 239.4742 324.1375 O.2            1 RES1               0.0000
     18 H18        112.1271 243.5439 328.3565 H              1 RES1               0.0000
     19 H19        110.4014 243.2177 328.5976 H              1 RES1               0.0000
     20 H20        111.4330 243.4239 323.9549 H              1 RES1               0.0000
     21 H21        110.6133 245.2469 327.7422 H              1 RES1               0.0000
     22 H22        108.8860 240.7601 325.0575 H              1 RES1               0.0000
     23 H23        112.9344 240.4758 324.8894 H              1 RES1               0.0000
     24 H24        111.7924 241.5896 329.8349 H              1 RES1               0.0000
     25 H25        110.8668 240.7702 328.5793 H              1 RES1               0.0000
     26 H26        112.5822 241.0944 328.3397 H              1 RES1               0.0000
     27 H27        111.2877 245.6236 322.8755 H              1 RES1               0.0000
     28 H28        110.4726 247.4358 326.6480 H              1 RES1               0.0000
     29 H29        110.8070 247.6367 324.2145 H              1 RES1               0.0000
@<TRIPOS>BOND
    1    1    2 1     
    2    1    3 1     
    3    1    4 1     
    4    1    5 1     
    5    2    6 ar    
    6    2    7 ar    
    7    3    8 1     
    8    3    9 2     
    9    4   10 1     
   10    4   11 2     
   11    5   12 1     
   12    5   18 1     
   13    5   19 1     
   14    6   13 ar    
   15    6   20 1     
   16    7   14 ar    
   17    7   21 1     
   18    8   15 1     
   19    8   22 1     
   20   10   15 1     
   21   10   23 1     
   22   12   24 1     
   23   12   25 1     
   24   12   26 1     
   25   13   16 ar    
   26   13   27 1     
   27   14   16 ar    
   28   14   28 1     
   29   15   17 2     
   30   16   29 1     
@<TRIPOS>SUBSTRUCTURE
      1 RES1           1
@<TRIPOS>SET
DONOR_HYDROGENS      STATIC     ATOMS    <user>   **** ""
2 22 23
ATOM$RED        STATIC     ATOMS    COLORGROUP SYSTEM
2 22 23
@<TRIPOS>COMMENT
> <Gold.Version>
2022.3.0

> <Gold.Id.Protein>
unknown|4uch_clean|pdb

> <Gold.Protein.RotatedTorsions>
[ 1279 1268 1269 1270 ] final -131.77 input   42.93 | X-H torsion
[ 12873 12852 12853 12854 ] final -157.81 input  102.46 | X-H torsion
[ 12881 12863 12862 12860 ] final  -41.12 input   59.97 | X-H torsion
[ 12908 12891 12892 12893 ] final  -37.68 input   33.49 | X-H torsion
[ 12964 12952 12953 12954 ] final  127.73 input  127.22 | X-H torsion
[ 13444 13426 13425 13421 ] final  -64.61 input   59.98 | X-H torsion
[ 1240 1232 1233 1234 ] final -169.38 input  119.89 | X-H torsion
[ 5550 5545 5544 5541 ] final  123.49 input   60.01 | X-H torsion
[ 3552 3542 3543 3544 ] final  123.96 input   78.91 | X-H torsion
[ 3579 3563 3564 3565 ] final   60.60 input  104.01 | X-H torsion
[ 3601 3592 3593 3594 ] final -128.31 input   81.17 | X-H torsion
[ 8428 8423 8424 8425 ] final -165.37 input   41.93 | X-H torsion
[ 8452 8445 8446 8447 ] final   41.90 input   98.48 | X-H torsion
[ 8978 8972 8973 8974 ] final   11.65 input   32.89 | X-H torsion
[ 8996 8992 8993 8994 ] final  122.97 input   45.98 | X-H torsion
[ 9030 9016 9017 9018 ] final   93.21 input   38.77 | X-H torsion
[ 9076 9062 9063 9064 ] final  161.50 input   99.93 | X-H torsion
[ 9117 9100 9101 9102 ] final  144.65 input   97.82 | X-H torsion
[ 8482 8476 8477 8478 ] final  102.71 input   55.16 | X-H torsion
[ 9084 9073 9072 9070 ] final   52.12 input   60.02 | X-H torsion
[ 8948 8937 8938 8939 ] final  154.69 input   49.52 | X-H torsion
[ 8982 8977 8976 8973 ] final  -55.59 input   60.00 | X-H torsion
[ 4895 4885 4884 4881 ] final  -28.30 input   59.99 | X-H torsion
[ 5574 5565 5566 5567 ] final  158.48 input   50.85 | X-H torsion
[ 5606 5598 5599 5600 ] final  176.79 input  117.92 | X-H torsion
[ 8328 8319 8318 8316 ] final   57.79 input   59.98 | X-H torsion
[ 5644 5636 5637 5638 ] final   38.45 input   69.86 | X-H torsion
[ 13449 13428 13427 13425 ] final   17.18 input   60.01 | X-H torsion
[ 8513 8500 8501 8502 ] final -113.91 input   75.08 | X-H torsion
[ 4911 4901 4902 4903 ] final  130.34 input   29.84 | X-H torsion
[ 13460 1235 1234 1233 ] final  -48.65 input    0.00 | X-H torsion
[ 13464 8503 8502 8501 ] final  162.50 input    0.00 | X-H torsion
[ 13466 12822 12821 12820 ] final  100.87 input   -0.00 | X-H torsion
[ 13469 12855 12854 12853 ] final -179.54 input   -0.00 | X-H torsion
[ 13474 12894 12893 12892 ] final   76.39 input    0.00 | X-H torsion
[ 13493 5543 5542 5541 ] final   18.80 input    0.00 | X-H torsion
[ 13497 3502 3501 3500 ] final  150.88 input   -0.00 | X-H torsion
[ 13500 3545 3544 3543 ] final   -8.34 input    0.00 | X-H torsion
[ 13505 8400 8399 8398 ] final  -41.86 input   -0.00 | X-H torsion
[ 13509 8448 8447 8446 ] final   -4.01 input    0.00 | X-H torsion
[ 13511 8940 8939 8938 ] final  -23.76 input    0.00 | X-H torsion
[ 13514 8975 8974 8973 ] final  133.89 input   -0.00 | X-H torsion
[ 13517 8995 8994 8993 ] final  135.11 input    0.00 | X-H torsion
[ 13520 9019 9018 9017 ] final -118.13 input   -0.00 | X-H torsion
[ 13528 8426 8425 8424 ] final -129.26 input    0.00 | X-H torsion
[ 13530 8363 8362 8361 ] final  157.72 input    0.00 | X-H torsion
[ 13542 5639 5638 5637 ] final  -49.16 input    0.00 | X-H torsion
[ 13548 9180 9179 9178 ] final  143.40 input   -0.00 | X-H torsion

> <Gold.Protein.ActiveResidues>
 TRP311  MET341  HIS342  TRP414  ALA417  ARG419  CYS420  VAL421  GLY422  ARG423 
 SER462  ALA463  SER482  GLN483  LEU484  ILE485  ARG486  TRP566  TYR567  LEU569 
 PRO570  ALA571  VAL572  SER573  ASN574  MET575  PHE589  SER590  GLY591  TRP592 
 TYR593  MET594  GLU597  ILE598  ARG601  ASP602  ARG608  TRP683  PHE696  GLU710 
 TYR711  GLN712  PRO713  ASP714  HEM750  H4B760 

> <Gold.Protein.RotatedAtoms>
  107.0809  252.7527  335.5977 H   0  0  0  0  0  0  0  0  0  0  0  0  # atno 1240 bound_to 1232
  107.1798  254.3897  332.4284 H   0  0  0  0  0  0  0  0  0  0  0  0  # atno 1279 bound_to 1268
  118.9829  252.3288  327.8032 H   0  0  0  0  0  0  0  0  0  0  0  0  # atno 3552 bound_to 3542
  121.1418  248.3391  327.8577 H   0  0  0  0  0  0  0  0  0  0  0  0  # atno 3579 bound_to 3563
  123.7128  247.8811  327.7140 H   0  0  0  0  0  0  0  0  0  0  0  0  # atno 3601 bound_to 3592
  124.2602  245.8902  317.7483 H   0  0  0  0  0  0  0  0  0  0  0  0  # atno 4895 bound_to 4885
  122.3158  246.5904  314.0238 H   0  0  0  0  0  0  0  0  0  0  0  0  # atno 4911 bound_to 4901
  106.8059  244.1258  321.3742 H   0  0  0  0  0  0  0  0  0  0  0  0  # atno 5550 bound_to 5545
  108.1845  244.3609  319.1625 H   0  0  0  0  0  0  0  0  0  0  0  0  # atno 5574 bound_to 5565
  110.7832  244.2064  315.6503 H   0  0  0  0  0  0  0  0  0  0  0  0  # atno 5606 bound_to 5598
  111.2987  241.0810  315.8830 H   0  0  0  0  0  0  0  0  0  0  0  0  # atno 5644 bound_to 5636
  111.3991  238.2218  321.8093 H   0  0  0  0  0  0  0  0  0  0  0  0  # atno 8328 bound_to 8319
  115.9397  242.6235  318.1082 H   0  0  0  0  0  0  0  0  0  0  0  0  # atno 8428 bound_to 8423
  114.5752  246.6203  317.7299 H   0  0  0  0  0  0  0  0  0  0  0  0  # atno 8452 bound_to 8445
  110.7118  246.8097  317.6927 H   0  0  0  0  0  0  0  0  0  0  0  0  # atno 8482 bound_to 8476
  109.0620  249.3130  316.9270 H   0  0  0  0  0  0  0  0  0  0  0  0  # atno 8513 bound_to 8500
  114.8686  250.0758  315.2921 H   0  0  0  0  0  0  0  0  0  0  0  0  # atno 8948 bound_to 8937
  118.9072  247.8460  316.0797 H   0  0  0  0  0  0  0  0  0  0  0  0  # atno 8978 bound_to 8972
  119.0881  245.8288  314.1961 H   0  0  0  0  0  0  0  0  0  0  0  0  # atno 8982 bound_to 8977
  119.4575  245.5221  318.7244 H   0  0  0  0  0  0  0  0  0  0  0  0  # atno 8996 bound_to 8992
  122.9040  243.4243  320.1956 H   0  0  0  0  0  0  0  0  0  0  0  0  # atno 9030 bound_to 9016
  120.8437  239.7821  321.3046 H   0  0  0  0  0  0  0  0  0  0  0  0  # atno 9076 bound_to 9062
  114.1810  239.9526  322.2273 H   0  0  0  0  0  0  0  0  0  0  0  0  # atno 9084 bound_to 9073
  121.2048  241.3213  325.4237 H   0  0  0  0  0  0  0  0  0  0  0  0  # atno 9117 bound_to 9100
  109.8793  256.1379  323.9530 H   0  0  0  0  0  0  0  0  0  0  0  0  # atno 12873 bound_to 12852
  110.2670  251.0138  328.0170 H   0  0  0  0  0  0  0  0  0  0  0  0  # atno 12881 bound_to 12863
  105.6861  255.1411  322.9977 H   0  0  0  0  0  0  0  0  0  0  0  0  # atno 12908 bound_to 12891
  100.6064  252.4283  321.8386 H   0  0  0  0  0  0  0  0  0  0  0  0  # atno 12964 bound_to 12952
  108.6831  245.8727  335.6563 H   0  0  0  0  0  0  0  0  0  0  0  0  # atno 13444 bound_to 13426
  109.4837  250.1556  335.6542 H   0  0  0  0  0  0  0  0  0  0  0  0  # atno 13449 bound_to 13428
  109.2331  254.1185  331.9481 LP  0  0  0  0  0  0  0  0  0  0  0  0  # atno 13460 bound_to 1235
  108.0980  254.2957  330.6519 LP  0  0  0  0  0  0  0  0  0  0  0  0  # atno 13461 bound_to 1235
  105.5557  254.6730  333.0212 LP  0  0  0  0  0  0  0  0  0  0  0  0  # atno 13462 bound_to 1268
  107.3581  253.2759  319.7653 LP  0  0  0  0  0  0  0  0  0  0  0  0  # atno 13464 bound_to 8503
  106.1849  252.3005  318.9454 LP  0  0  0  0  0  0  0  0  0  0  0  0  # atno 13465 bound_to 8503
  110.2369  255.2253  321.6775 LP  0  0  0  0  0  0  0  0  0  0  0  0  # atno 13466 bound_to 12822
  109.4142  256.5353  320.8984 LP  0  0  0  0  0  0  0  0  0  0  0  0  # atno 13467 bound_to 12822
  108.8537  257.5321  323.7311 LP  0  0  0  0  0  0  0  0  0  0  0  0  # atno 13468 bound_to 12852
  105.9660  258.0940  322.2216 LP  0  0  0  0  0  0  0  0  0  0  0  0  # atno 13469 bound_to 12855
  107.3693  258.1611  323.2346 LP  0  0  0  0  0  0  0  0  0  0  0  0  # atno 13470 bound_to 12855
  110.6838  252.3173  328.8973 LP  0  0  0  0  0  0  0  0  0  0  0  0  # atno 13471 bound_to 12863
  111.5436  251.9174  327.5678 LP  0  0  0  0  0  0  0  0  0  0  0  0  # atno 13472 bound_to 12863
  106.7687  255.7240  321.7560 LP  0  0  0  0  0  0  0  0  0  0  0  0  # atno 13473 bound_to 12891
  103.7506  253.9839  322.9335 LP  0  0  0  0  0  0  0  0  0  0  0  0  # atno 13474 bound_to 12894
  103.6120  253.3828  321.3151 LP  0  0  0  0  0  0  0  0  0  0  0  0  # atno 13475 bound_to 12894
  101.0670  253.4172  320.4724 LP  0  0  0  0  0  0  0  0  0  0  0  0  # atno 13476 bound_to 12952
  107.8474  246.5650  336.8686 LP  0  0  0  0  0  0  0  0  0  0  0  0  # atno 13490 bound_to 13426
  109.4360  246.2346  337.0525 LP  0  0  0  0  0  0  0  0  0  0  0  0  # atno 13491 bound_to 13426
  106.6080  254.3194  334.9767 LP  0  0  0  0  0  0  0  0  0  0  0  0  # atno 13492 bound_to 1232
  108.9269  246.9987  319.4928 LP  0  0  0  0  0  0  0  0  0  0  0  0  # atno 13493 bound_to 5543
  109.9867  246.0259  318.5282 LP  0  0  0  0  0  0  0  0  0  0  0  0  # atno 13494 bound_to 5543
  106.6552  243.7461  319.7987 LP  0  0  0  0  0  0  0  0  0  0  0  0  # atno 13495 bound_to 5545
  105.3255  243.9152  320.7314 LP  0  0  0  0  0  0  0  0  0  0  0  0  # atno 13496 bound_to 5545
  118.3096  249.2772  328.8079 LP  0  0  0  0  0  0  0  0  0  0  0  0  # atno 13497 bound_to 3502
  117.8565  249.7868  330.4001 LP  0  0  0  0  0  0  0  0  0  0  0  0  # atno 13498 bound_to 3502
  119.2259  251.3955  329.2582 LP  0  0  0  0  0  0  0  0  0  0  0  0  # atno 13499 bound_to 3542
  122.0941  251.9279  327.5455 LP  0  0  0  0  0  0  0  0  0  0  0  0  # atno 13500 bound_to 3545
  123.1332  250.9228  328.4995 LP  0  0  0  0  0  0  0  0  0  0  0  0  # atno 13501 bound_to 3545
  121.2086  249.8522  328.7378 LP  0  0  0  0  0  0  0  0  0  0  0  0  # atno 13502 bound_to 3563
  122.9324  248.9517  326.5748 LP  0  0  0  0  0  0  0  0  0  0  0  0  # atno 13503 bound_to 3592
  117.8732  243.6226  319.2027 LP  0  0  0  0  0  0  0  0  0  0  0  0  # atno 13505 bound_to 8400
  117.3926  244.0268  317.5885 LP  0  0  0  0  0  0  0  0  0  0  0  0  # atno 13506 bound_to 8400
  114.2968  242.8066  318.6664 LP  0  0  0  0  0  0  0  0  0  0  0  0  # atno 13507 bound_to 8423
  113.9657  245.2427  318.6165 LP  0  0  0  0  0  0  0  0  0  0  0  0  # atno 13508 bound_to 8445
  113.9705  248.6614  317.3138 LP  0  0  0  0  0  0  0  0  0  0  0  0  # atno 13509 bound_to 8448
  112.6521  249.1110  316.2845 LP  0  0  0  0  0  0  0  0  0  0  0  0  # atno 13510 bound_to 8448
  115.2785  247.6588  317.3462 LP  0  0  0  0  0  0  0  0  0  0  0  0  # atno 13511 bound_to 8940
  116.0713  246.1350  317.1242 LP  0  0  0  0  0  0  0  0  0  0  0  0  # atno 13512 bound_to 8940
  117.2104  247.4335  316.0313 LP  0  0  0  0  0  0  0  0  0  0  0  0  # atno 13513 bound_to 8972
  121.4024  247.0065  317.3065 LP  0  0  0  0  0  0  0  0  0  0  0  0  # atno 13514 bound_to 8975
  120.8403  246.5903  315.7220 LP  0  0  0  0  0  0  0  0  0  0  0  0  # atno 13515 bound_to 8975
  119.8544  244.5297  317.3413 LP  0  0  0  0  0  0  0  0  0  0  0  0  # atno 13516 bound_to 8992
  122.1517  241.7853  317.7356 LP  0  0  0  0  0  0  0  0  0  0  0  0  # atno 13517 bound_to 8995
  120.6630  242.5932  317.3734 LP  0  0  0  0  0  0  0  0  0  0  0  0  # atno 13518 bound_to 8995
  121.2259  243.2846  319.7331 LP  0  0  0  0  0  0  0  0  0  0  0  0  # atno 13519 bound_to 9016
  122.0959  242.2459  323.4297 LP  0  0  0  0  0  0  0  0  0  0  0  0  # atno 13520 bound_to 9019
  120.9023  242.9631  322.3997 LP  0  0  0  0  0  0  0  0  0  0  0  0  # atno 13521 bound_to 9019
  122.2327  240.4350  322.1395 LP  0  0  0  0  0  0  0  0  0  0  0  0  # atno 13522 bound_to 9062
  120.9150  239.6323  325.0825 LP  0  0  0  0  0  0  0  0  0  0  0  0  # atno 13523 bound_to 9100
  111.9106  245.3015  316.9385 LP  0  0  0  0  0  0  0  0  0  0  0  0  # atno 13528 bound_to 8426
  112.2926  243.7366  317.5749 LP  0  0  0  0  0  0  0  0  0  0  0  0  # atno 13529 bound_to 8426
  114.8651  240.0234  317.8621 LP  0  0  0  0  0  0  0  0  0  0  0  0  # atno 13530 bound_to 8363
  115.2402  239.4503  316.2713 LP  0  0  0  0  0  0  0  0  0  0  0  0  # atno 13531 bound_to 8363
  111.5753  248.2799  318.0689 LP  0  0  0  0  0  0  0  0  0  0  0  0  # atno 13532 bound_to 8476
  113.8849  238.5761  323.0431 LP  0  0  0  0  0  0  0  0  0  0  0  0  # atno 13533 bound_to 9073
  114.1883  238.5289  321.4393 LP  0  0  0  0  0  0  0  0  0  0  0  0  # atno 13534 bound_to 9073
  114.6925  248.3357  315.2788 LP  0  0  0  0  0  0  0  0  0  0  0  0  # atno 13535 bound_to 8937
  118.8966  244.2492  313.8547 LP  0  0  0  0  0  0  0  0  0  0  0  0  # atno 13536 bound_to 8977
  120.0599  244.7271  314.8963 LP  0  0  0  0  0  0  0  0  0  0  0  0  # atno 13537 bound_to 8977
  124.6078  247.2865  318.5077 LP  0  0  0  0  0  0  0  0  0  0  0  0  # atno 13538 bound_to 4885
  125.7490  246.5328  317.6154 LP  0  0  0  0  0  0  0  0  0  0  0  0  # atno 13539 bound_to 4885
  107.5818  244.3913  317.5224 LP  0  0  0  0  0  0  0  0  0  0  0  0  # atno 13540 bound_to 5565
  110.3740  242.6399  316.3067 LP  0  0  0  0  0  0  0  0  0  0  0  0  # atno 13541 bound_to 5598
  111.7450  239.0223  317.8648 LP  0  0  0  0  0  0  0  0  0  0  0  0  # atno 13542 bound_to 5639
  110.3015  239.8037  318.4177 LP  0  0  0  0  0  0  0  0  0  0  0  0  # atno 13543 bound_to 5639
  110.5455  238.8308  320.5645 LP  0  0  0  0  0  0  0  0  0  0  0  0  # atno 13544 bound_to 8319
  112.0051  239.4583  320.9415 LP  0  0  0  0  0  0  0  0  0  0  0  0  # atno 13545 bound_to 8319
  113.3450  237.6267  327.8201 LP  0  0  0  0  0  0  0  0  0  0  0  0  # atno 13548 bound_to 9180
  113.6066  238.5329  329.2728 LP  0  0  0  0  0  0  0  0  0  0  0  0  # atno 13549 bound_to 9180
  110.8289  240.9028  314.2073 LP  0  0  0  0  0  0  0  0  0  0  0  0  # atno 13552 bound_to 5636

> <Gold.Score>
     Fitness  S(hb_ext) S(vdw_ext)  S(hb_int)    S(int)      intcor
     30.24       2.25      20.41       0.00      -0.08      -0.78

> <Gold.Goldscore.Fitness>
30.2365

> <Gold.Goldscore.Internal.Vdw>
-0.3144

> <Gold.Goldscore.Internal.Torsion>
-0.5452

> <Gold.Goldscore.External.Vdw>
20.4069

> <Gold.Goldscore.Internal.HBond>
0.0000

> <Gold.Goldscore.External.HBond>
2.2527

> <Gold.Goldscore.Internal.Correction>
-0.7838

> <Gold.Goldscore.Hbonds>
donor molecule, donor type, donor heavy atom, donor atom, acceptor molecule, acceptor atom, score
      P1  H  5572  5580       L1    17  0.02
      P1  H  9513  9525       L1    17  0.37

> <Gold.Goldscore.Internal.Vdw.Weighted>
-0.3144

> <Gold.Goldscore.Internal.Torsion.Weighted>
-0.5452

> <Gold.Goldscore.External.Vdw.Weighted>
28.0595

> <Gold.Goldscore.Internal.HBond.Weighted>
0.0000

> <Gold.Goldscore.External.HBond.Weighted>
2.2527

> <Gold.Goldscore.Internal.Correction.Weighted>
-0.7838

> <Gold.Rescore>
     Score     S(PLP)   S(hbond)     S(cho)   S(metal)  DE(clash)   DE(tors)     intcor
     18.74     -19.34       0.38       0.00       0.00       0.00       0.88       ----

> <Gold.PLP.Fitness>
18.7400

> <Gold.PLP.PLP>
-19.3389

> <Gold.PLP.part.hbond>
-3.4576

> <Gold.PLP.part.metal>
0.0000

> <Gold.PLP.part.buried>
-3.9157

> <Gold.PLP.part.nonpolar>
-15.0047

> <Gold.PLP.part.repulsive>
2.4736

> <Gold.PLP.ligand.clash>
0.0000

> <Gold.PLP.ligand.torsion>
0.8754

> <Gold.PLP.Chemscore.Hbond>
0.3840

> <Gold.PLP.Chemscore.CHOScore>
0.0000

> <Gold.PLP.Chemscore.Metal>
0.0000

> <Gold.PLP.Chemscore.Internal.Correction>
   9.000000E+99

