#       Name:                CT1002167954
#       Creating user name   hitesit
#       Creation time:       Sun Apr 16 20:17:40 2023


#       File generated by GOLD software.
#

@<TRIPOS>MOLECULE
CT1002167954|ligand_prepared|mol2|1|dock2
    29    30     1
SMALL
NO_CHARGES


@<TRIPOS>ATOM
      1 C1         116.8216 245.5565 322.6310 C.3            1 RES1               0.0000
      2 C2         115.4170 244.9482 322.8196 C.ar           1 RES1               0.0000
      3 C3         117.7073 244.9305 323.7043 C.2            1 RES1               0.0000
      4 C4         117.2430 245.2228 321.2042 C.2            1 RES1               0.0000
      5 C5         116.8639 247.0937 322.7945 C.3            1 RES1               0.0000
      6 C6         114.6153 245.3344 323.8896 C.ar           1 RES1               0.0000
      7 C7         114.9090 244.0033 321.9321 C.ar           1 RES1               0.0000
      8 N8         118.6121 243.9903 323.3075 N.am           1 RES1               0.0000
      9 O9         117.5865 245.2284 324.8862 O.2            1 RES1               0.0000
     10 N10        118.3079 244.3782 321.0301 N.am           1 RES1               0.0000
     11 O11        116.6520 245.6705 320.2292 O.2            1 RES1               0.0000
     12 C12        118.1552 247.7275 322.3016 C.3            1 RES1               0.0000
     13 C13        113.3505 244.7979 324.0644 C.ar           1 RES1               0.0000
     14 C14        113.6439 243.4678 322.1088 C.ar           1 RES1               0.0000
     15 C15        118.9922 243.7225 322.0170 C.2            1 RES1               0.0000
     16 C16        112.8637 243.8647 323.1740 C.ar           1 RES1               0.0000
     17 O17        119.9040 242.9358 321.7785 O.2            1 RES1               0.0000
     18 H18        116.0228 247.5308 322.2423 H              1 RES1               0.0000
     19 H19        116.7324 247.3397 323.8555 H              1 RES1               0.0000
     20 H20        114.9824 246.0658 324.6020 H              1 RES1               0.0000
     21 H21        115.5054 243.6755 321.0875 H              1 RES1               0.0000
     22 H22        119.0461 243.4349 324.0379 H              1 RES1               0.0000
     23 H23        118.6194 244.2240 320.0764 H              1 RES1               0.0000
     24 H24        118.1325 248.8065 322.4395 H              1 RES1               0.0000
     25 H25        119.0106 247.3342 322.8470 H              1 RES1               0.0000
     26 H26        118.3053 247.5241 321.2433 H              1 RES1               0.0000
     27 H27        112.7410 245.1125 324.9051 H              1 RES1               0.0000
     28 H28        113.2651 242.7332 321.4059 H              1 RES1               0.0000
     29 H29        111.8727 243.4448 323.3109 H              1 RES1               0.0000
@<TRIPOS>BOND
    1    1    2 1     
    2    1    3 1     
    3    1    4 1     
    4    1    5 1     
    5    2    6 ar    
    6    2    7 ar    
    7    3    8 1     
    8    3    9 2     
    9    4   10 1     
   10    4   11 2     
   11    5   12 1     
   12    5   18 1     
   13    5   19 1     
   14    6   13 ar    
   15    6   20 1     
   16    7   14 ar    
   17    7   21 1     
   18    8   15 1     
   19    8   22 1     
   20   10   15 1     
   21   10   23 1     
   22   12   24 1     
   23   12   25 1     
   24   12   26 1     
   25   13   16 ar    
   26   13   27 1     
   27   14   16 ar    
   28   14   28 1     
   29   15   17 2     
   30   16   29 1     
@<TRIPOS>SUBSTRUCTURE
      1 RES1           1
@<TRIPOS>SET
DONOR_HYDROGENS      STATIC     ATOMS    <user>   **** ""
2 22 23
ATOM$RED        STATIC     ATOMS    COLORGROUP SYSTEM
2 22 23
@<TRIPOS>COMMENT
> <Gold.Version>
2022.3.0

> <Gold.Id.Protein>
unknown|4uch_clean|pdb

> <Gold.Protein.RotatedTorsions>
[ 1279 1268 1269 1270 ] final  -83.56 input   42.93 | X-H torsion
[ 12873 12852 12853 12854 ] final  128.05 input  102.46 | X-H torsion
[ 12881 12863 12862 12860 ] final -142.62 input   59.97 | X-H torsion
[ 12908 12891 12892 12893 ] final   90.80 input   33.49 | X-H torsion
[ 12964 12952 12953 12954 ] final   66.93 input  127.22 | X-H torsion
[ 13444 13426 13425 13421 ] final   -9.30 input   59.98 | X-H torsion
[ 1240 1232 1233 1234 ] final -132.08 input  119.89 | X-H torsion
[ 5550 5545 5544 5541 ] final   47.42 input   60.01 | X-H torsion
[ 3552 3542 3543 3544 ] final   74.74 input   78.91 | X-H torsion
[ 3579 3563 3564 3565 ] final  106.76 input  104.01 | X-H torsion
[ 3601 3592 3593 3594 ] final  113.56 input   81.17 | X-H torsion
[ 8428 8423 8424 8425 ] final -173.04 input   41.93 | X-H torsion
[ 8452 8445 8446 8447 ] final  144.45 input   98.48 | X-H torsion
[ 8978 8972 8973 8974 ] final  144.22 input   32.89 | X-H torsion
[ 8996 8992 8993 8994 ] final -100.67 input   45.98 | X-H torsion
[ 9030 9016 9017 9018 ] final -119.12 input   38.77 | X-H torsion
[ 9076 9062 9063 9064 ] final  145.90 input   99.93 | X-H torsion
[ 9117 9100 9101 9102 ] final  -34.57 input   97.82 | X-H torsion
[ 8482 8476 8477 8478 ] final  -10.00 input   55.16 | X-H torsion
[ 9084 9073 9072 9070 ] final  -92.53 input   60.02 | X-H torsion
[ 8948 8937 8938 8939 ] final  -22.92 input   49.52 | X-H torsion
[ 8982 8977 8976 8973 ] final -178.33 input   60.00 | X-H torsion
[ 4895 4885 4884 4881 ] final -159.10 input   59.99 | X-H torsion
[ 5574 5565 5566 5567 ] final -151.70 input   50.85 | X-H torsion
[ 5606 5598 5599 5600 ] final   37.03 input  117.92 | X-H torsion
[ 8328 8319 8318 8316 ] final  130.87 input   59.98 | X-H torsion
[ 5644 5636 5637 5638 ] final -123.15 input   69.86 | X-H torsion
[ 13449 13428 13427 13425 ] final   21.05 input   60.01 | X-H torsion
[ 8513 8500 8501 8502 ] final   30.10 input   75.08 | X-H torsion
[ 4911 4901 4902 4903 ] final  -71.83 input   29.84 | X-H torsion
[ 13460 1235 1234 1233 ] final   40.41 input    0.00 | X-H torsion
[ 13464 8503 8502 8501 ] final -109.39 input    0.00 | X-H torsion
[ 13466 12822 12821 12820 ] final  -94.53 input   -0.00 | X-H torsion
[ 13469 12855 12854 12853 ] final  166.72 input   -0.00 | X-H torsion
[ 13474 12894 12893 12892 ] final  108.39 input    0.00 | X-H torsion
[ 13493 5543 5542 5541 ] final -179.81 input    0.00 | X-H torsion
[ 13497 3502 3501 3500 ] final  144.30 input   -0.00 | X-H torsion
[ 13500 3545 3544 3543 ] final   -6.69 input    0.00 | X-H torsion
[ 13505 8400 8399 8398 ] final  -52.88 input   -0.00 | X-H torsion
[ 13509 8448 8447 8446 ] final  -31.00 input    0.00 | X-H torsion
[ 13511 8940 8939 8938 ] final   23.88 input    0.00 | X-H torsion
[ 13514 8975 8974 8973 ] final -103.20 input   -0.00 | X-H torsion
[ 13517 8995 8994 8993 ] final  -66.43 input    0.00 | X-H torsion
[ 13520 9019 9018 9017 ] final   86.24 input   -0.00 | X-H torsion
[ 13528 8426 8425 8424 ] final  140.18 input    0.00 | X-H torsion
[ 13530 8363 8362 8361 ] final -131.74 input    0.00 | X-H torsion
[ 13542 5639 5638 5637 ] final  -47.54 input    0.00 | X-H torsion
[ 13548 9180 9179 9178 ] final  104.11 input   -0.00 | X-H torsion

> <Gold.Protein.ActiveResidues>
 TRP311  MET341  HIS342  TRP414  ALA417  ARG419  CYS420  VAL421  GLY422  ARG423 
 SER462  ALA463  SER482  GLN483  LEU484  ILE485  ARG486  TRP566  TYR567  LEU569 
 PRO570  ALA571  VAL572  SER573  ASN574  MET575  PHE589  SER590  GLY591  TRP592 
 TYR593  MET594  GLU597  ILE598  ARG601  ASP602  ARG608  TRP683  PHE696  GLU710 
 TYR711  GLN712  PRO713  ASP714  HEM750  H4B760 

> <Gold.Protein.RotatedAtoms>
  107.5340  253.0966  335.6075 H   0  0  0  0  0  0  0  0  0  0  0  0  # atno 1240 bound_to 1232
  107.1485  254.8165  333.0193 H   0  0  0  0  0  0  0  0  0  0  0  0  # atno 1279 bound_to 1268
  119.6086  252.4720  328.1566 H   0  0  0  0  0  0  0  0  0  0  0  0  # atno 3552 bound_to 3542
  120.8375  248.3041  328.4864 H   0  0  0  0  0  0  0  0  0  0  0  0  # atno 3579 bound_to 3563
  122.6553  248.1006  326.6510 H   0  0  0  0  0  0  0  0  0  0  0  0  # atno 3601 bound_to 3592
  124.7738  247.3395  318.4777 H   0  0  0  0  0  0  0  0  0  0  0  0  # atno 4895 bound_to 4885
  122.5228  248.0501  314.9335 H   0  0  0  0  0  0  0  0  0  0  0  0  # atno 4911 bound_to 4901
  107.1342  243.8835  320.2946 H   0  0  0  0  0  0  0  0  0  0  0  0  # atno 5550 bound_to 5545
  108.2653  245.0119  318.8108 H   0  0  0  0  0  0  0  0  0  0  0  0  # atno 5574 bound_to 5565
  110.9729  242.6808  316.2725 H   0  0  0  0  0  0  0  0  0  0  0  0  # atno 5606 bound_to 5598
  110.5645  240.9358  314.2978 H   0  0  0  0  0  0  0  0  0  0  0  0  # atno 5644 bound_to 5636
  112.1422  239.0006  321.5173 H   0  0  0  0  0  0  0  0  0  0  0  0  # atno 8328 bound_to 8319
  115.8947  242.5573  318.0222 H   0  0  0  0  0  0  0  0  0  0  0  0  # atno 8428 bound_to 8423
  114.6675  246.0067  318.9627 H   0  0  0  0  0  0  0  0  0  0  0  0  # atno 8452 bound_to 8445
  110.6896  248.0893  318.4084 H   0  0  0  0  0  0  0  0  0  0  0  0  # atno 8482 bound_to 8476
  109.7805  249.7126  318.3856 H   0  0  0  0  0  0  0  0  0  0  0  0  # atno 8513 bound_to 8500
  114.6959  248.3111  315.3174 H   0  0  0  0  0  0  0  0  0  0  0  0  # atno 8948 bound_to 8937
  117.5397  247.2835  315.4288 H   0  0  0  0  0  0  0  0  0  0  0  0  # atno 8978 bound_to 8972
  118.9256  244.2242  313.8792 H   0  0  0  0  0  0  0  0  0  0  0  0  # atno 8982 bound_to 8977
  120.0012  245.1512  317.2196 H   0  0  0  0  0  0  0  0  0  0  0  0  # atno 8996 bound_to 8992
  121.4718  243.2005  319.3219 H   0  0  0  0  0  0  0  0  0  0  0  0  # atno 9030 bound_to 9016
  120.9702  239.5789  321.3212 H   0  0  0  0  0  0  0  0  0  0  0  0  # atno 9076 bound_to 9062
  113.9083  238.2774  322.7766 H   0  0  0  0  0  0  0  0  0  0  0  0  # atno 9084 bound_to 9073
  120.9013  239.6147  325.0850 H   0  0  0  0  0  0  0  0  0  0  0  0  # atno 9117 bound_to 9100
  109.3333  256.6542  324.6997 H   0  0  0  0  0  0  0  0  0  0  0  0  # atno 12873 bound_to 12852
  110.4583  252.1198  328.9347 H   0  0  0  0  0  0  0  0  0  0  0  0  # atno 12881 bound_to 12863
  106.4845  255.0318  321.6248 H   0  0  0  0  0  0  0  0  0  0  0  0  # atno 12908 bound_to 12891
   99.9996  252.9420  321.4258 H   0  0  0  0  0  0  0  0  0  0  0  0  # atno 12964 bound_to 12952
  109.4199  245.8684  336.1164 H   0  0  0  0  0  0  0  0  0  0  0  0  # atno 13444 bound_to 13426
  109.4248  250.1782  335.6562 H   0  0  0  0  0  0  0  0  0  0  0  0  # atno 13449 bound_to 13428
  108.6613  253.3463  331.2050 LP  0  0  0  0  0  0  0  0  0  0  0  0  # atno 13460 bound_to 1235
  108.6698  255.0679  331.3950 LP  0  0  0  0  0  0  0  0  0  0  0  0  # atno 13461 bound_to 1235
  105.5858  254.2627  332.4531 LP  0  0  0  0  0  0  0  0  0  0  0  0  # atno 13462 bound_to 1268
  106.8767  253.2957  318.6615 LP  0  0  0  0  0  0  0  0  0  0  0  0  # atno 13464 bound_to 8503
  106.6663  252.2807  320.0492 LP  0  0  0  0  0  0  0  0  0  0  0  0  # atno 13465 bound_to 8503
  109.2266  256.4185  320.9693 LP  0  0  0  0  0  0  0  0  0  0  0  0  # atno 13466 bound_to 12822
  110.4245  255.3420  321.6066 LP  0  0  0  0  0  0  0  0  0  0  0  0  # atno 13467 bound_to 12822
  109.3919  257.0232  322.9951 LP  0  0  0  0  0  0  0  0  0  0  0  0  # atno 13468 bound_to 12852
  106.1064  258.0983  322.0693 LP  0  0  0  0  0  0  0  0  0  0  0  0  # atno 13469 bound_to 12855
  107.2289  258.1569  323.3870 LP  0  0  0  0  0  0  0  0  0  0  0  0  # atno 13470 bound_to 12855
  111.5836  252.1486  327.7597 LP  0  0  0  0  0  0  0  0  0  0  0  0  # atno 13471 bound_to 12863
  110.4512  250.9722  327.7811 LP  0  0  0  0  0  0  0  0  0  0  0  0  # atno 13472 bound_to 12863
  105.9886  255.8308  323.0975 LP  0  0  0  0  0  0  0  0  0  0  0  0  # atno 13473 bound_to 12891
  103.2850  253.9067  322.8613 LP  0  0  0  0  0  0  0  0  0  0  0  0  # atno 13474 bound_to 12894
  104.0775  253.4600  321.3874 LP  0  0  0  0  0  0  0  0  0  0  0  0  # atno 13475 bound_to 12894
  101.6587  252.9164  320.8750 LP  0  0  0  0  0  0  0  0  0  0  0  0  # atno 13476 bound_to 12952
  107.8379  246.2437  336.0546 LP  0  0  0  0  0  0  0  0  0  0  0  0  # atno 13490 bound_to 13426
  108.7031  246.5601  337.4029 LP  0  0  0  0  0  0  0  0  0  0  0  0  # atno 13491 bound_to 13426
  106.1696  253.9867  334.9673 LP  0  0  0  0  0  0  0  0  0  0  0  0  # atno 13492 bound_to 1232
  110.0180  245.8964  318.7745 LP  0  0  0  0  0  0  0  0  0  0  0  0  # atno 13493 bound_to 5543
  108.8955  247.1282  319.2464 LP  0  0  0  0  0  0  0  0  0  0  0  0  # atno 13494 bound_to 5543
  105.5261  243.7671  320.0717 LP  0  0  0  0  0  0  0  0  0  0  0  0  # atno 13495 bound_to 5545
  106.1241  244.1382  321.5453 LP  0  0  0  0  0  0  0  0  0  0  0  0  # atno 13496 bound_to 5545
  118.2144  249.2909  328.7826 LP  0  0  0  0  0  0  0  0  0  0  0  0  # atno 13497 bound_to 3502
  117.9516  249.7731  330.4253 LP  0  0  0  0  0  0  0  0  0  0  0  0  # atno 13498 bound_to 3502
  118.6102  251.2546  328.9104 LP  0  0  0  0  0  0  0  0  0  0  0  0  # atno 13499 bound_to 3542
  122.0847  251.9375  327.5665 LP  0  0  0  0  0  0  0  0  0  0  0  0  # atno 13500 bound_to 3545
  123.1426  250.9132  328.4785 LP  0  0  0  0  0  0  0  0  0  0  0  0  # atno 13501 bound_to 3545
  121.5017  249.8859  328.1320 LP  0  0  0  0  0  0  0  0  0  0  0  0  # atno 13502 bound_to 3563
  123.9666  248.7370  327.6144 LP  0  0  0  0  0  0  0  0  0  0  0  0  # atno 13503 bound_to 3592
  117.7796  243.7530  319.2461 LP  0  0  0  0  0  0  0  0  0  0  0  0  # atno 13505 bound_to 8400
  117.4861  243.8964  317.5451 LP  0  0  0  0  0  0  0  0  0  0  0  0  # atno 13506 bound_to 8400
  114.3411  242.8718  318.7511 LP  0  0  0  0  0  0  0  0  0  0  0  0  # atno 13507 bound_to 8423
  113.8755  245.8416  317.4133 LP  0  0  0  0  0  0  0  0  0  0  0  0  # atno 13508 bound_to 8445
  113.8151  248.9869  317.4963 LP  0  0  0  0  0  0  0  0  0  0  0  0  # atno 13509 bound_to 8448
  112.8075  248.7855  316.1020 LP  0  0  0  0  0  0  0  0  0  0  0  0  # atno 13510 bound_to 8448
  115.0832  247.3206  316.7658 LP  0  0  0  0  0  0  0  0  0  0  0  0  # atno 13511 bound_to 8940
  116.2666  246.4731  317.7046 LP  0  0  0  0  0  0  0  0  0  0  0  0  # atno 13512 bound_to 8940
  118.5504  247.9847  316.6691 LP  0  0  0  0  0  0  0  0  0  0  0  0  # atno 13513 bound_to 8972
  121.4241  246.1188  316.0711 LP  0  0  0  0  0  0  0  0  0  0  0  0  # atno 13514 bound_to 8975
  120.8186  247.4780  316.9575 LP  0  0  0  0  0  0  0  0  0  0  0  0  # atno 13515 bound_to 8975
  119.3237  244.8918  318.8099 LP  0  0  0  0  0  0  0  0  0  0  0  0  # atno 13516 bound_to 8992
  120.5599  242.3660  317.5798 LP  0  0  0  0  0  0  0  0  0  0  0  0  # atno 13517 bound_to 8995
  122.2547  242.0125  317.5292 LP  0  0  0  0  0  0  0  0  0  0  0  0  # atno 13518 bound_to 8995
  122.6322  243.5043  320.5910 LP  0  0  0  0  0  0  0  0  0  0  0  0  # atno 13519 bound_to 9016
  120.6980  242.7605  322.6252 LP  0  0  0  0  0  0  0  0  0  0  0  0  # atno 13520 bound_to 9019
  122.3002  242.4485  323.2042 LP  0  0  0  0  0  0  0  0  0  0  0  0  # atno 13521 bound_to 9019
  122.1090  240.6337  322.1232 LP  0  0  0  0  0  0  0  0  0  0  0  0  # atno 13522 bound_to 9062
  121.2119  241.3024  325.4140 LP  0  0  0  0  0  0  0  0  0  0  0  0  # atno 13523 bound_to 9100
  111.8058  244.7543  318.0359 LP  0  0  0  0  0  0  0  0  0  0  0  0  # atno 13528 bound_to 8426
  112.3973  244.2838  316.4775 LP  0  0  0  0  0  0  0  0  0  0  0  0  # atno 13529 bound_to 8426
  115.0350  240.6027  317.0648 LP  0  0  0  0  0  0  0  0  0  0  0  0  # atno 13530 bound_to 8363
  115.0703  238.8710  317.0686 LP  0  0  0  0  0  0  0  0  0  0  0  0  # atno 13531 bound_to 8363
  111.5972  247.0226  317.3657 LP  0  0  0  0  0  0  0  0  0  0  0  0  # atno 13532 bound_to 8476
  114.2498  238.9069  321.3153 LP  0  0  0  0  0  0  0  0  0  0  0  0  # atno 13533 bound_to 9073
  114.0980  239.8854  322.6138 LP  0  0  0  0  0  0  0  0  0  0  0  0  # atno 13534 bound_to 9073
  114.8604  250.0512  315.2542 LP  0  0  0  0  0  0  0  0  0  0  0  0  # atno 13535 bound_to 8937
  120.0644  244.7713  314.9050 LP  0  0  0  0  0  0  0  0  0  0  0  0  # atno 13536 bound_to 8977
  119.0558  245.8210  314.1651 LP  0  0  0  0  0  0  0  0  0  0  0  0  # atno 13537 bound_to 8977
  125.6955  246.3817  317.5394 LP  0  0  0  0  0  0  0  0  0  0  0  0  # atno 13538 bound_to 4885
  124.1439  245.9775  317.8489 LP  0  0  0  0  0  0  0  0  0  0  0  0  # atno 13539 bound_to 4885
  107.5028  243.7547  317.8664 LP  0  0  0  0  0  0  0  0  0  0  0  0  # atno 13540 bound_to 5565
  110.1885  244.1323  315.6981 LP  0  0  0  0  0  0  0  0  0  0  0  0  # atno 13541 bound_to 5598
  111.7513  239.0429  317.8532 LP  0  0  0  0  0  0  0  0  0  0  0  0  # atno 13542 bound_to 5639
  110.2952  239.7831  318.4293 LP  0  0  0  0  0  0  0  0  0  0  0  0  # atno 13543 bound_to 5639
  110.7570  238.1503  321.4319 LP  0  0  0  0  0  0  0  0  0  0  0  0  # atno 13544 bound_to 8319
  111.0456  239.3550  320.3679 LP  0  0  0  0  0  0  0  0  0  0  0  0  # atno 13545 bound_to 8319
  113.3387  238.1964  327.6993 LP  0  0  0  0  0  0  0  0  0  0  0  0  # atno 13548 bound_to 9180
  113.6129  237.9632  329.3936 LP  0  0  0  0  0  0  0  0  0  0  0  0  # atno 13549 bound_to 9180
  111.5412  241.0436  315.7453 LP  0  0  0  0  0  0  0  0  0  0  0  0  # atno 13552 bound_to 5636

> <Gold.Score>
     Fitness  S(hb_ext) S(vdw_ext)  S(hb_int)    S(int)      intcor
     44.29       3.47      30.83       0.00      -1.57      -0.79

> <Gold.Goldscore.Fitness>
44.2864

> <Gold.Goldscore.Internal.Vdw>
-1.7167

> <Gold.Goldscore.Internal.Torsion>
-0.6361

> <Gold.Goldscore.External.Vdw>
30.8261

> <Gold.Goldscore.Internal.HBond>
0.0000

> <Gold.Goldscore.External.HBond>
3.4662

> <Gold.Goldscore.Internal.Correction>
-0.7872

> <Gold.Goldscore.Hbonds>
donor molecule, donor type, donor heavy atom, donor atom, acceptor molecule, acceptor atom, score
      P1  H  8445  8452       L1    11  0.96
      L1  H     8    22       P1  9185  0.14
      L1  H    10    23       P1  8992  0.12

> <Gold.Goldscore.Internal.Vdw.Weighted>
-1.7167

> <Gold.Goldscore.Internal.Torsion.Weighted>
-0.6361

> <Gold.Goldscore.External.Vdw.Weighted>
42.3858

> <Gold.Goldscore.Internal.HBond.Weighted>
0.0000

> <Gold.Goldscore.External.HBond.Weighted>
3.4662

> <Gold.Goldscore.Internal.Correction.Weighted>
-0.7872

> <Gold.Rescore>
     Score     S(PLP)   S(hbond)     S(cho)   S(metal)  DE(clash)   DE(tors)     intcor
     26.36     -24.76       1.40       0.00       0.00       1.14       0.73       ----

> <Gold.PLP.Fitness>
26.3622

> <Gold.PLP.PLP>
-24.7598

> <Gold.PLP.part.hbond>
-4.3755

> <Gold.PLP.part.metal>
0.0000

> <Gold.PLP.part.buried>
15.1392

> <Gold.PLP.part.nonpolar>
-44.4630

> <Gold.PLP.part.repulsive>
5.0750

> <Gold.PLP.ligand.clash>
1.1406

> <Gold.PLP.ligand.torsion>
0.7268

> <Gold.PLP.Chemscore.Hbond>
1.3988

> <Gold.PLP.Chemscore.CHOScore>
0.0000

> <Gold.PLP.Chemscore.Metal>
0.0000

> <Gold.Chemscore.Hbonds>
donor molecule, donor type, donor heavy atom, donor atom, acceptor molecule, acceptor atom, score
      L1  H     8    22       P1  9185  0.48
      L1  H    10    23       P1  8400  0.28
      P1  H  8445  8452       L1    11  0.31

> <Gold.PLP.Chemscore.Internal.Correction>
   9.000000E+99

