#       Name:                CT1002167954
#       Creating user name   hitesit
#       Creation time:       Sun Apr 16 20:17:48 2023


#       File generated by GOLD software.
#

@<TRIPOS>MOLECULE
CT1002167954|ligand_prepared|mol2|1|dock10
    29    30     1
SMALL
NO_CHARGES


@<TRIPOS>ATOM
      1 C1         111.4103 242.8712 327.8781 C.3            1 RES1               0.0000
      2 C2         111.9462 243.4752 326.5640 C.ar           1 RES1               0.0000
      3 C3         112.4553 241.8612 328.3429 C.2            1 RES1               0.0000
      4 C4         111.2079 244.0416 328.8341 C.2            1 RES1               0.0000
      5 C5         110.0559 242.1409 327.7235 C.3            1 RES1               0.0000
      6 C6         111.0959 244.1578 325.6993 C.ar           1 RES1               0.0000
      7 C7         113.2865 243.3604 326.2048 C.ar           1 RES1               0.0000
      8 N8         113.2357 242.2039 329.4075 N.am           1 RES1               0.0000
      9 O9         112.6188 240.7966 327.7595 O.2            1 RES1               0.0000
     10 N10        111.9954 244.0994 329.9541 N.am           1 RES1               0.0000
     11 O11        110.3851 244.9231 328.6192 O.2            1 RES1               0.0000
     12 C12        109.5641 241.4837 329.0034 C.3            1 RES1               0.0000
     13 C13        111.5688 244.7083 324.5196 C.ar           1 RES1               0.0000
     14 C14        113.7573 243.9114 325.0245 C.ar           1 RES1               0.0000
     15 C15        113.0211 243.2501 330.2684 C.2            1 RES1               0.0000
     16 C16        112.8998 244.5859 324.1817 C.ar           1 RES1               0.0000
     17 O17        113.7202 243.3989 331.2666 O.2            1 RES1               0.0000
     18 H18        109.3023 242.8626 327.3849 H              1 RES1               0.0000
     19 H19        110.1560 241.3718 326.9477 H              1 RES1               0.0000
     20 H20        110.0448 244.2620 325.9473 H              1 RES1               0.0000
     21 H21        113.9791 242.8332 326.8520 H              1 RES1               0.0000
     22 H22        114.0546 241.6293 329.5794 H              1 RES1               0.0000
     23 H23        111.7986 244.8445 330.6147 H              1 RES1               0.0000
     24 H24        108.6107 240.9858 328.8396 H              1 RES1               0.0000
     25 H25        110.2779 240.7417 329.3551 H              1 RES1               0.0000
     26 H26        109.4293 242.2236 329.7897 H              1 RES1               0.0000
     27 H27        110.8895 245.2369 323.8590 H              1 RES1               0.0000
     28 H28        114.8055 243.8122 324.7622 H              1 RES1               0.0000
     29 H29        113.2701 245.0176 323.2577 H              1 RES1               0.0000
@<TRIPOS>BOND
    1    1    2 1     
    2    1    3 1     
    3    1    4 1     
    4    1    5 1     
    5    2    6 ar    
    6    2    7 ar    
    7    3    8 1     
    8    3    9 2     
    9    4   10 1     
   10    4   11 2     
   11    5   12 1     
   12    5   18 1     
   13    5   19 1     
   14    6   13 ar    
   15    6   20 1     
   16    7   14 ar    
   17    7   21 1     
   18    8   15 1     
   19    8   22 1     
   20   10   15 1     
   21   10   23 1     
   22   12   24 1     
   23   12   25 1     
   24   12   26 1     
   25   13   16 ar    
   26   13   27 1     
   27   14   16 ar    
   28   14   28 1     
   29   15   17 2     
   30   16   29 1     
@<TRIPOS>SUBSTRUCTURE
      1 RES1           1
@<TRIPOS>SET
DONOR_HYDROGENS      STATIC     ATOMS    <user>   **** ""
2 22 23
ATOM$RED        STATIC     ATOMS    COLORGROUP SYSTEM
2 22 23
@<TRIPOS>COMMENT
> <Gold.Version>
2022.3.0

> <Gold.Id.Protein>
unknown|4uch_clean|pdb

> <Gold.Protein.RotatedTorsions>
[ 1279 1268 1269 1270 ] final   24.87 input   42.93 | X-H torsion
[ 12873 12852 12853 12854 ] final    1.78 input  102.46 | X-H torsion
[ 12881 12863 12862 12860 ] final  -99.71 input   59.97 | X-H torsion
[ 12908 12891 12892 12893 ] final -143.09 input   33.49 | X-H torsion
[ 12964 12952 12953 12954 ] final  127.85 input  127.22 | X-H torsion
[ 13444 13426 13425 13421 ] final  111.28 input   59.98 | X-H torsion
[ 1240 1232 1233 1234 ] final   -7.53 input  119.89 | X-H torsion
[ 5550 5545 5544 5541 ] final   47.69 input   60.01 | X-H torsion
[ 3552 3542 3543 3544 ] final   52.68 input   78.91 | X-H torsion
[ 3579 3563 3564 3565 ] final -102.45 input  104.01 | X-H torsion
[ 3601 3592 3593 3594 ] final  -22.61 input   81.17 | X-H torsion
[ 8428 8423 8424 8425 ] final   66.13 input   41.93 | X-H torsion
[ 8452 8445 8446 8447 ] final  147.98 input   98.48 | X-H torsion
[ 8978 8972 8973 8974 ] final  -56.19 input   32.89 | X-H torsion
[ 8996 8992 8993 8994 ] final  130.55 input   45.98 | X-H torsion
[ 9030 9016 9017 9018 ] final   50.07 input   38.77 | X-H torsion
[ 9076 9062 9063 9064 ] final   32.39 input   99.93 | X-H torsion
[ 9117 9100 9101 9102 ] final -111.71 input   97.82 | X-H torsion
[ 8482 8476 8477 8478 ] final  108.59 input   55.16 | X-H torsion
[ 9084 9073 9072 9070 ] final  110.67 input   60.02 | X-H torsion
[ 8948 8937 8938 8939 ] final  -68.43 input   49.52 | X-H torsion
[ 8982 8977 8976 8973 ] final  -53.88 input   60.00 | X-H torsion
[ 4895 4885 4884 4881 ] final  120.32 input   59.99 | X-H torsion
[ 5574 5565 5566 5567 ] final  114.16 input   50.85 | X-H torsion
[ 5606 5598 5599 5600 ] final   37.42 input  117.92 | X-H torsion
[ 8328 8319 8318 8316 ] final  -31.69 input   59.98 | X-H torsion
[ 5644 5636 5637 5638 ] final  -88.02 input   69.86 | X-H torsion
[ 13449 13428 13427 13425 ] final    4.79 input   60.01 | X-H torsion
[ 8513 8500 8501 8502 ] final   67.61 input   75.08 | X-H torsion
[ 4911 4901 4902 4903 ] final  -53.63 input   29.84 | X-H torsion
[ 13460 1235 1234 1233 ] final  172.56 input    0.00 | X-H torsion
[ 13464 8503 8502 8501 ] final  137.30 input    0.00 | X-H torsion
[ 13466 12822 12821 12820 ] final -139.79 input   -0.00 | X-H torsion
[ 13469 12855 12854 12853 ] final -141.24 input   -0.00 | X-H torsion
[ 13474 12894 12893 12892 ] final -145.46 input    0.00 | X-H torsion
[ 13493 5543 5542 5541 ] final   61.63 input    0.00 | X-H torsion
[ 13497 3502 3501 3500 ] final -101.97 input   -0.00 | X-H torsion
[ 13500 3545 3544 3543 ] final -170.85 input    0.00 | X-H torsion
[ 13505 8400 8399 8398 ] final  166.63 input   -0.00 | X-H torsion
[ 13509 8448 8447 8446 ] final -100.65 input    0.00 | X-H torsion
[ 13511 8940 8939 8938 ] final   44.17 input    0.00 | X-H torsion
[ 13514 8975 8974 8973 ] final  104.54 input   -0.00 | X-H torsion
[ 13517 8995 8994 8993 ] final  131.00 input    0.00 | X-H torsion
[ 13520 9019 9018 9017 ] final -179.69 input   -0.00 | X-H torsion
[ 13528 8426 8425 8424 ] final -116.24 input    0.00 | X-H torsion
[ 13530 8363 8362 8361 ] final  -37.16 input    0.00 | X-H torsion
[ 13542 5639 5638 5637 ] final  -77.33 input    0.00 | X-H torsion
[ 13548 9180 9179 9178 ] final -104.79 input   -0.00 | X-H torsion

> <Gold.Protein.ActiveResidues>
 TRP311  MET341  HIS342  TRP414  ALA417  ARG419  CYS420  VAL421  GLY422  ARG423 
 SER462  ALA463  SER482  GLN483  LEU484  ILE485  ARG486  TRP566  TYR567  LEU569 
 PRO570  ALA571  VAL572  SER573  ASN574  MET575  PHE589  SER590  GLY591  TRP592 
 TYR593  MET594  GLU597  ILE598  ARG601  ASP602  ARG608  TRP683  PHE696  GLU710 
 TYR711  GLN712  PRO713  ASP714  HEM750  H4B760 

> <Gold.Protein.RotatedAtoms>
  106.8751  254.3929  335.0025 H   0  0  0  0  0  0  0  0  0  0  0  0  # atno 1240 bound_to 1232
  105.7204  254.8904  333.2523 H   0  0  0  0  0  0  0  0  0  0  0  0  # atno 1279 bound_to 1268
  119.7952  252.3931  328.4256 H   0  0  0  0  0  0  0  0  0  0  0  0  # atno 3552 bound_to 3542
  121.3599  249.9487  328.5475 H   0  0  0  0  0  0  0  0  0  0  0  0  # atno 3579 bound_to 3563
  123.7359  249.1971  327.2136 H   0  0  0  0  0  0  0  0  0  0  0  0  # atno 3601 bound_to 3592
  125.7318  246.9236  317.8658 H   0  0  0  0  0  0  0  0  0  0  0  0  # atno 4895 bound_to 4885
  122.2670  248.0294  315.0433 H   0  0  0  0  0  0  0  0  0  0  0  0  # atno 4911 bound_to 4901
  107.1357  243.8845  320.2985 H   0  0  0  0  0  0  0  0  0  0  0  0  # atno 5550 bound_to 5545
  107.9257  243.7747  318.9788 H   0  0  0  0  0  0  0  0  0  0  0  0  # atno 5574 bound_to 5565
  110.9782  242.6833  316.2713 H   0  0  0  0  0  0  0  0  0  0  0  0  # atno 5606 bound_to 5598
  110.2358  241.0435  314.7071 H   0  0  0  0  0  0  0  0  0  0  0  0  # atno 5644 bound_to 5636
  110.4810  238.4691  320.8957 H   0  0  0  0  0  0  0  0  0  0  0  0  # atno 8328 bound_to 8319
  114.3778  242.3748  318.0486 H   0  0  0  0  0  0  0  0  0  0  0  0  # atno 8428 bound_to 8423
  114.6415  245.9614  318.9789 H   0  0  0  0  0  0  0  0  0  0  0  0  # atno 8452 bound_to 8445
  110.7837  246.7855  317.6437 H   0  0  0  0  0  0  0  0  0  0  0  0  # atno 8482 bound_to 8476
  109.5447  249.2539  318.6188 H   0  0  0  0  0  0  0  0  0  0  0  0  # atno 8513 bound_to 8500
  114.8423  248.5411  314.6878 H   0  0  0  0  0  0  0  0  0  0  0  0  # atno 8948 bound_to 8937
  118.2864  247.9843  316.8315 H   0  0  0  0  0  0  0  0  0  0  0  0  # atno 8978 bound_to 8972
  119.1081  245.8366  314.2139 H   0  0  0  0  0  0  0  0  0  0  0  0  # atno 8982 bound_to 8977
  119.4959  245.6124  318.6610 H   0  0  0  0  0  0  0  0  0  0  0  0  # atno 8996 bound_to 8992
  122.5089  243.5288  320.6983 H   0  0  0  0  0  0  0  0  0  0  0  0  # atno 9030 bound_to 9016
  122.2777  239.6988  321.9987 H   0  0  0  0  0  0  0  0  0  0  0  0  # atno 9076 bound_to 9062
  114.2841  239.4840  321.4475 H   0  0  0  0  0  0  0  0  0  0  0  0  # atno 9084 bound_to 9073
  121.8205  240.1923  324.9005 H   0  0  0  0  0  0  0  0  0  0  0  0  # atno 9117 bound_to 9100
  108.9478  257.5015  323.4379 H   0  0  0  0  0  0  0  0  0  0  0  0  # atno 12873 bound_to 12852
  110.1156  251.5613  328.7356 H   0  0  0  0  0  0  0  0  0  0  0  0  # atno 12881 bound_to 12863
  106.4828  256.2414  322.6346 H   0  0  0  0  0  0  0  0  0  0  0  0  # atno 12908 bound_to 12891
  100.6082  252.4277  321.8388 H   0  0  0  0  0  0  0  0  0  0  0  0  # atno 12964 bound_to 12952
  108.6941  246.5615  337.3954 H   0  0  0  0  0  0  0  0  0  0  0  0  # atno 13444 bound_to 13426
  109.6739  250.0911  335.6751 H   0  0  0  0  0  0  0  0  0  0  0  0  # atno 13449 bound_to 13428
  108.2475  254.8399  330.8820 LP  0  0  0  0  0  0  0  0  0  0  0  0  # atno 13460 bound_to 1235
  109.0837  253.5743  331.7180 LP  0  0  0  0  0  0  0  0  0  0  0  0  # atno 13461 bound_to 1235
  106.9589  254.1916  332.2291 LP  0  0  0  0  0  0  0  0  0  0  0  0  # atno 13462 bound_to 1268
  107.2657  253.0202  320.0277 LP  0  0  0  0  0  0  0  0  0  0  0  0  # atno 13464 bound_to 8503
  106.2773  252.5563  318.6830 LP  0  0  0  0  0  0  0  0  0  0  0  0  # atno 13465 bound_to 8503
  108.9597  255.8951  321.2839 LP  0  0  0  0  0  0  0  0  0  0  0  0  # atno 13466 bound_to 12822
  110.6915  255.8655  321.2919 LP  0  0  0  0  0  0  0  0  0  0  0  0  # atno 13467 bound_to 12822
  109.7718  256.1882  324.2388 LP  0  0  0  0  0  0  0  0  0  0  0  0  # atno 13468 bound_to 12852
  105.8032  258.0927  322.7660 LP  0  0  0  0  0  0  0  0  0  0  0  0  # atno 13469 bound_to 12855
  107.5322  258.1624  322.6902 LP  0  0  0  0  0  0  0  0  0  0  0  0  # atno 13470 bound_to 12855
  111.3844  252.4928  328.3232 LP  0  0  0  0  0  0  0  0  0  0  0  0  # atno 13471 bound_to 12863
  110.9955  251.1904  327.4181 LP  0  0  0  0  0  0  0  0  0  0  0  0  # atno 13472 bound_to 12863
  105.9902  254.6489  322.1108 LP  0  0  0  0  0  0  0  0  0  0  0  0  # atno 13473 bound_to 12891
  103.0567  253.4197  321.5854 LP  0  0  0  0  0  0  0  0  0  0  0  0  # atno 13474 bound_to 12894
  104.3059  253.9469  322.6632 LP  0  0  0  0  0  0  0  0  0  0  0  0  # atno 13475 bound_to 12894
  101.0653  253.4178  320.4723 LP  0  0  0  0  0  0  0  0  0  0  0  0  # atno 13476 bound_to 12952
  109.4301  245.8660  336.1219 LP  0  0  0  0  0  0  0  0  0  0  0  0  # atno 13490 bound_to 13426
  107.8422  246.2396  336.0470 LP  0  0  0  0  0  0  0  0  0  0  0  0  # atno 13491 bound_to 13426
  106.8071  252.7326  335.5526 LP  0  0  0  0  0  0  0  0  0  0  0  0  # atno 13492 bound_to 1232
  109.1939  246.5391  319.8352 LP  0  0  0  0  0  0  0  0  0  0  0  0  # atno 13493 bound_to 5543
  109.7196  246.4855  318.1857 LP  0  0  0  0  0  0  0  0  0  0  0  0  # atno 13494 bound_to 5543
  105.5288  243.7664  320.0684 LP  0  0  0  0  0  0  0  0  0  0  0  0  # atno 13495 bound_to 5545
  106.1199  244.1379  321.5447 LP  0  0  0  0  0  0  0  0  0  0  0  0  # atno 13496 bound_to 5545
  118.7972  249.5067  330.0931 LP  0  0  0  0  0  0  0  0  0  0  0  0  # atno 13497 bound_to 3502
  117.3688  249.5573  329.1148 LP  0  0  0  0  0  0  0  0  0  0  0  0  # atno 13498 bound_to 3502
  118.4266  251.3322  328.6458 LP  0  0  0  0  0  0  0  0  0  0  0  0  # atno 13499 bound_to 3542
  123.2094  250.8435  328.2603 LP  0  0  0  0  0  0  0  0  0  0  0  0  # atno 13500 bound_to 3545
  122.0179  252.0072  327.7847 LP  0  0  0  0  0  0  0  0  0  0  0  0  # atno 13501 bound_to 3545
  120.9985  248.3015  328.0731 LP  0  0  0  0  0  0  0  0  0  0  0  0  # atno 13502 bound_to 3563
  122.9098  247.6648  327.0642 LP  0  0  0  0  0  0  0  0  0  0  0  0  # atno 13503 bound_to 3592
  117.1993  244.3186  317.8317 LP  0  0  0  0  0  0  0  0  0  0  0  0  # atno 13505 bound_to 8400
  118.0665  243.3308  318.9595 LP  0  0  0  0  0  0  0  0  0  0  0  0  # atno 13506 bound_to 8400
  115.8366  243.0518  318.7251 LP  0  0  0  0  0  0  0  0  0  0  0  0  # atno 13507 bound_to 8423
  113.9009  245.8857  317.3975 LP  0  0  0  0  0  0  0  0  0  0  0  0  # atno 13508 bound_to 8445
  113.0522  249.5709  317.2617 LP  0  0  0  0  0  0  0  0  0  0  0  0  # atno 13509 bound_to 8448
  113.5705  248.2015  316.3366 LP  0  0  0  0  0  0  0  0  0  0  0  0  # atno 13510 bound_to 8448
  115.1189  247.0707  316.5944 LP  0  0  0  0  0  0  0  0  0  0  0  0  # atno 13511 bound_to 8940
  116.2309  246.7231  317.8760 LP  0  0  0  0  0  0  0  0  0  0  0  0  # atno 13512 bound_to 8940
  117.8187  247.2980  315.2946 LP  0  0  0  0  0  0  0  0  0  0  0  0  # atno 13513 bound_to 8972
  121.1005  247.3105  317.2123 LP  0  0  0  0  0  0  0  0  0  0  0  0  # atno 13514 bound_to 8975
  121.1422  246.2863  315.8162 LP  0  0  0  0  0  0  0  0  0  0  0  0  # atno 13515 bound_to 8975
  119.8168  244.4417  317.4032 LP  0  0  0  0  0  0  0  0  0  0  0  0  # atno 13516 bound_to 8992
  122.1801  241.8252  317.6973 LP  0  0  0  0  0  0  0  0  0  0  0  0  # atno 13517 bound_to 8995
  120.6346  242.5533  317.4117 LP  0  0  0  0  0  0  0  0  0  0  0  0  # atno 13518 bound_to 8995
  121.6138  243.1819  319.2396 LP  0  0  0  0  0  0  0  0  0  0  0  0  # atno 13519 bound_to 9016
  121.2345  242.0701  323.5428 LP  0  0  0  0  0  0  0  0  0  0  0  0  # atno 13520 bound_to 9019
  121.7637  243.1388  322.2866 LP  0  0  0  0  0  0  0  0  0  0  0  0  # atno 13521 bound_to 9019
  120.8303  240.5164  321.4607 LP  0  0  0  0  0  0  0  0  0  0  0  0  # atno 13522 bound_to 9062
  120.3124  240.7372  325.5945 LP  0  0  0  0  0  0  0  0  0  0  0  0  # atno 13523 bound_to 9100
  111.9826  245.2267  316.7718 LP  0  0  0  0  0  0  0  0  0  0  0  0  # atno 13528 bound_to 8426
  112.2206  243.8114  317.7416 LP  0  0  0  0  0  0  0  0  0  0  0  0  # atno 13529 bound_to 8426
  115.2462  239.6697  316.2253 LP  0  0  0  0  0  0  0  0  0  0  0  0  # atno 13530 bound_to 8363
  114.8591  239.8040  317.9082 LP  0  0  0  0  0  0  0  0  0  0  0  0  # atno 13531 bound_to 8363
  111.5047  248.3037  318.1170 LP  0  0  0  0  0  0  0  0  0  0  0  0  # atno 13532 bound_to 8476
  113.9760  239.4938  323.0452 LP  0  0  0  0  0  0  0  0  0  0  0  0  # atno 13533 bound_to 9073
  113.9933  238.0832  322.2227 LP  0  0  0  0  0  0  0  0  0  0  0  0  # atno 13534 bound_to 9073
  114.7181  249.8275  315.8662 LP  0  0  0  0  0  0  0  0  0  0  0  0  # atno 13535 bound_to 8937
  118.8800  244.2686  313.8428 LP  0  0  0  0  0  0  0  0  0  0  0  0  # atno 13536 bound_to 8977
  120.0563  244.6999  314.8902 LP  0  0  0  0  0  0  0  0  0  0  0  0  # atno 13537 bound_to 8977
  124.6472  245.7590  317.5274 LP  0  0  0  0  0  0  0  0  0  0  0  0  # atno 13538 bound_to 4885
  124.2271  247.0192  318.4773 LP  0  0  0  0  0  0  0  0  0  0  0  0  # atno 13539 bound_to 4885
  107.8348  244.9645  317.7021 LP  0  0  0  0  0  0  0  0  0  0  0  0  # atno 13540 bound_to 5565
  110.1832  244.1299  315.6992 LP  0  0  0  0  0  0  0  0  0  0  0  0  # atno 13541 bound_to 5598
  111.5492  238.7267  318.0928 LP  0  0  0  0  0  0  0  0  0  0  0  0  # atno 13542 bound_to 5639
  110.4972  240.0993  318.1897 LP  0  0  0  0  0  0  0  0  0  0  0  0  # atno 13543 bound_to 5639
  111.6595  239.5514  320.5977 LP  0  0  0  0  0  0  0  0  0  0  0  0  # atno 13544 bound_to 8319
  111.8152  238.4888  321.8278 LP  0  0  0  0  0  0  0  0  0  0  0  0  # atno 13545 bound_to 8319
  113.5770  237.5631  329.2341 LP  0  0  0  0  0  0  0  0  0  0  0  0  # atno 13548 bound_to 9180
  113.3746  238.5965  327.8588 LP  0  0  0  0  0  0  0  0  0  0  0  0  # atno 13549 bound_to 9180
  111.8602  240.9392  315.3481 LP  0  0  0  0  0  0  0  0  0  0  0  0  # atno 13552 bound_to 5636

> <Gold.Score>
     Fitness  S(hb_ext) S(vdw_ext)  S(hb_int)    S(int)      intcor
     33.31       5.88      21.02       0.00      -1.47      -0.76

> <Gold.Goldscore.Fitness>
33.3088

> <Gold.Goldscore.Internal.Vdw>
-1.8480

> <Gold.Goldscore.Internal.Torsion>
-0.3842

> <Gold.Goldscore.External.Vdw>
21.0212

> <Gold.Goldscore.Internal.HBond>
0.0000

> <Gold.Goldscore.External.HBond>
5.8783

> <Gold.Goldscore.Internal.Correction>
-0.7585

> <Gold.Goldscore.Hbonds>
donor molecule, donor type, donor heavy atom, donor atom, acceptor molecule, acceptor atom, score
      P1  H  9302  9327       L1    17  0.01
      L1  H    10    23       P1 13419  0.97

> <Gold.Goldscore.Internal.Vdw.Weighted>
-1.8480

> <Gold.Goldscore.Internal.Torsion.Weighted>
-0.3842

> <Gold.Goldscore.External.Vdw.Weighted>
28.9042

> <Gold.Goldscore.Internal.HBond.Weighted>
0.0000

> <Gold.Goldscore.External.HBond.Weighted>
5.8783

> <Gold.Goldscore.Internal.Correction.Weighted>
-0.7585

> <Gold.Rescore>
     Score     S(PLP)   S(hbond)     S(cho)   S(metal)  DE(clash)   DE(tors)     intcor
     12.87     -10.18       1.37       0.00       0.00       1.38       0.02       ----

> <Gold.PLP.Fitness>
12.8672

> <Gold.PLP.PLP>
-10.1838

> <Gold.PLP.part.hbond>
-4.2054

> <Gold.PLP.part.metal>
0.0000

> <Gold.PLP.part.buried>
8.0144

> <Gold.PLP.part.nonpolar>
-21.7290

> <Gold.PLP.part.repulsive>
7.4149

> <Gold.PLP.ligand.clash>
1.3760

> <Gold.PLP.ligand.torsion>
0.0227

> <Gold.PLP.Chemscore.Hbond>
1.3683

> <Gold.PLP.Chemscore.CHOScore>
0.0000

> <Gold.PLP.Chemscore.Metal>
0.0000

> <Gold.Chemscore.Hbonds>
donor molecule, donor type, donor heavy atom, donor atom, acceptor molecule, acceptor atom, score
      L1  H    10    23       P1 13419  1.00
      P1  H  9302  9327       L1    17  0.46

> <Gold.PLP.Chemscore.Internal.Correction>
   9.000000E+99

