#       Name:                CT1002167954
#       Creating user name   hitesit
#       Creation time:       Sun Apr 16 20:17:46 2023


#       File generated by GOLD software.
#

@<TRIPOS>MOLECULE
CT1002167954|ligand_prepared|mol2|1|dock8
    29    30     1
SMALL
NO_CHARGES


@<TRIPOS>ATOM
      1 C1         110.7626 244.8383 325.8618 C.3            1 RES1               0.0000
      2 C2         111.6504 243.8997 326.7044 C.ar           1 RES1               0.0000
      3 C3         109.3755 244.7999 326.4964 C.2            1 RES1               0.0000
      4 C4         111.4291 246.2089 325.9056 C.2            1 RES1               0.0000
      5 C5         110.6366 244.4154 324.3797 C.3            1 RES1               0.0000
      6 C6         111.2256 243.4539 327.9524 C.ar           1 RES1               0.0000
      7 C7         112.8930 243.4698 326.2466 C.ar           1 RES1               0.0000
      8 N8         108.9777 245.8906 327.2121 N.am           1 RES1               0.0000
      9 O9         108.6574 243.8121 326.4034 O.2            1 RES1               0.0000
     10 N10        110.7632 247.2268 326.5366 N.am           1 RES1               0.0000
     11 O11        112.5322 246.4125 325.4137 O.2            1 RES1               0.0000
     12 C12        109.7910 245.3615 323.5419 C.3            1 RES1               0.0000
     13 C13        112.0133 242.6066 328.7140 C.ar           1 RES1               0.0000
     14 C14        113.6792 242.6226 327.0099 C.ar           1 RES1               0.0000
     15 C15        109.5816 247.1222 327.2186 C.2            1 RES1               0.0000
     16 C16        113.2403 242.1901 328.2432 C.ar           1 RES1               0.0000
     17 O17        109.0720 248.0713 327.8073 O.2            1 RES1               0.0000
     18 H18        111.6410 244.3581 323.9422 H              1 RES1               0.0000
     19 H19        110.1938 243.4127 324.3350 H              1 RES1               0.0000
     20 H20        110.2641 243.7730 328.3405 H              1 RES1               0.0000
     21 H21        113.2592 243.7982 325.2798 H              1 RES1               0.0000
     22 H22        108.1552 245.7801 327.7966 H              1 RES1               0.0000
     23 H23        111.1877 248.1479 326.4939 H              1 RES1               0.0000
     24 H24        109.7352 245.0186 322.5109 H              1 RES1               0.0000
     25 H25        108.7779 245.4231 323.9338 H              1 RES1               0.0000
     26 H26        110.2165 246.3629 323.5434 H              1 RES1               0.0000
     27 H27        111.6639 242.2701 329.6845 H              1 RES1               0.0000
     28 H28        114.6445 242.2979 326.6357 H              1 RES1               0.0000
     29 H29        113.8569 241.5260 328.8398 H              1 RES1               0.0000
@<TRIPOS>BOND
    1    1    2 1     
    2    1    3 1     
    3    1    4 1     
    4    1    5 1     
    5    2    6 ar    
    6    2    7 ar    
    7    3    8 1     
    8    3    9 2     
    9    4   10 1     
   10    4   11 2     
   11    5   12 1     
   12    5   18 1     
   13    5   19 1     
   14    6   13 ar    
   15    6   20 1     
   16    7   14 ar    
   17    7   21 1     
   18    8   15 1     
   19    8   22 1     
   20   10   15 1     
   21   10   23 1     
   22   12   24 1     
   23   12   25 1     
   24   12   26 1     
   25   13   16 ar    
   26   13   27 1     
   27   14   16 ar    
   28   14   28 1     
   29   15   17 2     
   30   16   29 1     
@<TRIPOS>SUBSTRUCTURE
      1 RES1           1
@<TRIPOS>SET
DONOR_HYDROGENS      STATIC     ATOMS    <user>   **** ""
2 22 23
ATOM$RED        STATIC     ATOMS    COLORGROUP SYSTEM
2 22 23
@<TRIPOS>COMMENT
> <Gold.Version>
2022.3.0

> <Gold.Id.Protein>
unknown|4uch_clean|pdb

> <Gold.Protein.RotatedTorsions>
[ 1279 1268 1269 1270 ] final -176.28 input   42.93 | X-H torsion
[ 12873 12852 12853 12854 ] final  -66.03 input  102.46 | X-H torsion
[ 12881 12863 12862 12860 ] final   44.46 input   59.97 | X-H torsion
[ 12908 12891 12892 12893 ] final   32.55 input   33.49 | X-H torsion
[ 12964 12952 12953 12954 ] final -178.15 input  127.22 | X-H torsion
[ 13444 13426 13425 13421 ] final  -33.61 input   59.98 | X-H torsion
[ 1240 1232 1233 1234 ] final   57.95 input  119.89 | X-H torsion
[ 5550 5545 5544 5541 ] final -179.02 input   60.01 | X-H torsion
[ 3552 3542 3543 3544 ] final  112.14 input   78.91 | X-H torsion
[ 3579 3563 3564 3565 ] final  -20.43 input  104.01 | X-H torsion
[ 3601 3592 3593 3594 ] final    3.06 input   81.17 | X-H torsion
[ 8428 8423 8424 8425 ] final  -56.39 input   41.93 | X-H torsion
[ 8452 8445 8446 8447 ] final  110.19 input   98.48 | X-H torsion
[ 8978 8972 8973 8974 ] final  162.72 input   32.89 | X-H torsion
[ 8996 8992 8993 8994 ] final   -1.36 input   45.98 | X-H torsion
[ 9030 9016 9017 9018 ] final -119.37 input   38.77 | X-H torsion
[ 9076 9062 9063 9064 ] final -144.41 input   99.93 | X-H torsion
[ 9117 9100 9101 9102 ] final  -33.33 input   97.82 | X-H torsion
[ 8482 8476 8477 8478 ] final  108.75 input   55.16 | X-H torsion
[ 9084 9073 9072 9070 ] final  -70.94 input   60.02 | X-H torsion
[ 8948 8937 8938 8939 ] final -161.83 input   49.52 | X-H torsion
[ 8982 8977 8976 8973 ] final   26.06 input   60.00 | X-H torsion
[ 4895 4885 4884 4881 ] final   13.30 input   59.99 | X-H torsion
[ 5574 5565 5566 5567 ] final   21.03 input   50.85 | X-H torsion
[ 5606 5598 5599 5600 ] final -125.68 input  117.92 | X-H torsion
[ 8328 8319 8318 8316 ] final   82.94 input   59.98 | X-H torsion
[ 5644 5636 5637 5638 ] final  112.74 input   69.86 | X-H torsion
[ 13449 13428 13427 13425 ] final  145.10 input   60.01 | X-H torsion
[ 8513 8500 8501 8502 ] final  -80.25 input   75.08 | X-H torsion
[ 4911 4901 4902 4903 ] final   36.22 input   29.84 | X-H torsion
[ 13460 1235 1234 1233 ] final   95.99 input    0.00 | X-H torsion
[ 13464 8503 8502 8501 ] final   54.11 input    0.00 | X-H torsion
[ 13466 12822 12821 12820 ] final  -57.15 input   -0.00 | X-H torsion
[ 13469 12855 12854 12853 ] final  129.63 input   -0.00 | X-H torsion
[ 13474 12894 12893 12892 ] final  145.47 input    0.00 | X-H torsion
[ 13493 5543 5542 5541 ] final  169.26 input    0.00 | X-H torsion
[ 13497 3502 3501 3500 ] final -107.67 input   -0.00 | X-H torsion
[ 13500 3545 3544 3543 ] final  -99.46 input    0.00 | X-H torsion
[ 13505 8400 8399 8398 ] final -157.28 input   -0.00 | X-H torsion
[ 13509 8448 8447 8446 ] final  -75.70 input    0.00 | X-H torsion
[ 13511 8940 8939 8938 ] final -157.38 input    0.00 | X-H torsion
[ 13514 8975 8974 8973 ] final   32.57 input   -0.00 | X-H torsion
[ 13517 8995 8994 8993 ] final -145.91 input    0.00 | X-H torsion
[ 13520 9019 9018 9017 ] final  -80.19 input   -0.00 | X-H torsion
[ 13528 8426 8425 8424 ] final   85.65 input    0.00 | X-H torsion
[ 13530 8363 8362 8361 ] final   63.17 input    0.00 | X-H torsion
[ 13542 5639 5638 5637 ] final   44.20 input    0.00 | X-H torsion
[ 13548 9180 9179 9178 ] final  134.21 input   -0.00 | X-H torsion

> <Gold.Protein.ActiveResidues>
 TRP311  MET341  HIS342  TRP414  ALA417  ARG419  CYS420  VAL421  GLY422  ARG423 
 SER462  ALA463  SER482  GLN483  LEU484  ILE485  ARG486  TRP566  TYR567  LEU569 
 PRO570  ALA571  VAL572  SER573  ASN574  MET575  PHE589  SER590  GLY591  TRP592 
 TYR593  MET594  GLU597  ILE598  ARG601  ASP602  ARG608  TRP683  PHE696  GLU710 
 TYR711  GLN712  PRO713  ASP714  HEM750  H4B760 

> <Gold.Protein.RotatedAtoms>
  106.0732  253.8630  334.9594 H   0  0  0  0  0  0  0  0  0  0  0  0  # atno 1240 bound_to 1232
  106.7114  254.0830  332.0488 H   0  0  0  0  0  0  0  0  0  0  0  0  # atno 1279 bound_to 1268
  119.1433  252.4015  327.8454 H   0  0  0  0  0  0  0  0  0  0  0  0  # atno 3552 bound_to 3542
  121.6163  249.3568  327.5704 H   0  0  0  0  0  0  0  0  0  0  0  0  # atno 3579 bound_to 3563
  123.4671  249.2695  326.9368 H   0  0  0  0  0  0  0  0  0  0  0  0  # atno 3601 bound_to 3592
  124.8483  245.7746  317.4610 H   0  0  0  0  0  0  0  0  0  0  0  0  # atno 4895 bound_to 4885
  121.4432  247.1220  314.8150 H   0  0  0  0  0  0  0  0  0  0  0  0  # atno 4911 bound_to 4901
  105.9119  244.1173  321.4839 H   0  0  0  0  0  0  0  0  0  0  0  0  # atno 5550 bound_to 5545
  107.4907  243.8154  317.7723 H   0  0  0  0  0  0  0  0  0  0  0  0  # atno 5574 bound_to 5565
  109.9631  244.0064  315.7507 H   0  0  0  0  0  0  0  0  0  0  0  0  # atno 5606 bound_to 5598
  111.9392  240.8659  315.0503 H   0  0  0  0  0  0  0  0  0  0  0  0  # atno 5644 bound_to 5636
  111.7472  238.4329  321.8345 H   0  0  0  0  0  0  0  0  0  0  0  0  # atno 8328 bound_to 8319
  115.1100  243.2159  319.1115 H   0  0  0  0  0  0  0  0  0  0  0  0  # atno 8428 bound_to 8423
  114.8273  246.4037  318.6657 H   0  0  0  0  0  0  0  0  0  0  0  0  # atno 8452 bound_to 8445
  110.7857  246.7850  317.6424 H   0  0  0  0  0  0  0  0  0  0  0  0  # atno 8482 bound_to 8476
  109.3589  249.7203  317.0033 H   0  0  0  0  0  0  0  0  0  0  0  0  # atno 8513 bound_to 8500
  114.9635  249.8262  314.6919 H   0  0  0  0  0  0  0  0  0  0  0  0  # atno 8948 bound_to 8937
  117.3456  247.3152  315.6333 H   0  0  0  0  0  0  0  0  0  0  0  0  # atno 8978 bound_to 8972
  119.9691  245.3378  314.8898 H   0  0  0  0  0  0  0  0  0  0  0  0  # atno 8982 bound_to 8977
  119.5463  244.1430  317.9909 H   0  0  0  0  0  0  0  0  0  0  0  0  # atno 8996 bound_to 8992
  121.4747  243.2000  319.3194 H   0  0  0  0  0  0  0  0  0  0  0  0  # atno 9030 bound_to 9016
  120.8309  240.5665  321.4766 H   0  0  0  0  0  0  0  0  0  0  0  0  # atno 9076 bound_to 9062
  113.8888  238.5359  323.0125 H   0  0  0  0  0  0  0  0  0  0  0  0  # atno 9084 bound_to 9073
  120.8838  239.6168  325.0919 H   0  0  0  0  0  0  0  0  0  0  0  0  # atno 9117 bound_to 9100
  109.5300  256.8600  322.9787 H   0  0  0  0  0  0  0  0  0  0  0  0  # atno 12873 bound_to 12852
  111.2773  251.4635  327.3886 H   0  0  0  0  0  0  0  0  0  0  0  0  # atno 12881 bound_to 12863
  105.9432  254.6285  322.1582 H   0  0  0  0  0  0  0  0  0  0  0  0  # atno 12908 bound_to 12891
  101.3762  252.3942  321.6047 H   0  0  0  0  0  0  0  0  0  0  0  0  # atno 12964 bound_to 12952
  109.1481  245.8253  335.8344 H   0  0  0  0  0  0  0  0  0  0  0  0  # atno 13444 bound_to 13426
  108.9394  250.8075  337.1056 H   0  0  0  0  0  0  0  0  0  0  0  0  # atno 13449 bound_to 13428
  108.1948  253.7820  330.7104 LP  0  0  0  0  0  0  0  0  0  0  0  0  # atno 13460 bound_to 1235
  109.1363  254.6322  331.8896 LP  0  0  0  0  0  0  0  0  0  0  0  0  # atno 13461 bound_to 1235
  106.0060  254.9679  333.3862 LP  0  0  0  0  0  0  0  0  0  0  0  0  # atno 13462 bound_to 1268
  106.5050  252.1678  319.8976 LP  0  0  0  0  0  0  0  0  0  0  0  0  # atno 13464 bound_to 8503
  107.0380  253.4087  318.8131 LP  0  0  0  0  0  0  0  0  0  0  0  0  # atno 13465 bound_to 8503
  109.7293  256.6191  320.8465 LP  0  0  0  0  0  0  0  0  0  0  0  0  # atno 13466 bound_to 12822
  109.9219  255.1415  321.7294 LP  0  0  0  0  0  0  0  0  0  0  0  0  # atno 13467 bound_to 12822
  109.1980  256.8204  324.6914 LP  0  0  0  0  0  0  0  0  0  0  0  0  # atno 13468 bound_to 12852
  106.6170  258.1170  321.8636 LP  0  0  0  0  0  0  0  0  0  0  0  0  # atno 13469 bound_to 12855
  106.7184  258.1381  323.5926 LP  0  0  0  0  0  0  0  0  0  0  0  0  # atno 13470 bound_to 12855
  110.0829  251.2673  328.4762 LP  0  0  0  0  0  0  0  0  0  0  0  0  # atno 13471 bound_to 12863
  111.1269  252.5145  328.6217 LP  0  0  0  0  0  0  0  0  0  0  0  0  # atno 13472 bound_to 12863
  106.5175  256.2249  322.5764 LP  0  0  0  0  0  0  0  0  0  0  0  0  # atno 13473 bound_to 12891
  102.9040  253.7351  322.5027 LP  0  0  0  0  0  0  0  0  0  0  0  0  # atno 13474 bound_to 12894
  104.4586  253.6316  321.7460 LP  0  0  0  0  0  0  0  0  0  0  0  0  # atno 13475 bound_to 12894
  100.3164  253.4505  320.7005 LP  0  0  0  0  0  0  0  0  0  0  0  0  # atno 13476 bound_to 12952
  107.7388  246.4073  336.4026 LP  0  0  0  0  0  0  0  0  0  0  0  0  # atno 13490 bound_to 13426
  109.0761  246.4400  337.3392 LP  0  0  0  0  0  0  0  0  0  0  0  0  # atno 13491 bound_to 13426
  107.5829  253.2452  335.5943 LP  0  0  0  0  0  0  0  0  0  0  0  0  # atno 13492 bound_to 1232
  110.0090  245.8498  318.9325 LP  0  0  0  0  0  0  0  0  0  0  0  0  # atno 13493 bound_to 5543
  108.9045  247.1748  319.0884 LP  0  0  0  0  0  0  0  0  0  0  0  0  # atno 13494 bound_to 5543
  107.1966  243.9330  320.5017 LP  0  0  0  0  0  0  0  0  0  0  0  0  # atno 13495 bound_to 5545
  105.6842  243.7368  319.9179 LP  0  0  0  0  0  0  0  0  0  0  0  0  # atno 13496 bound_to 5545
  118.8391  249.4796  330.0230 LP  0  0  0  0  0  0  0  0  0  0  0  0  # atno 13497 bound_to 3502
  117.3269  249.5844  329.1850 LP  0  0  0  0  0  0  0  0  0  0  0  0  # atno 13498 bound_to 3502
  119.0681  251.3239  329.2167 LP  0  0  0  0  0  0  0  0  0  0  0  0  # atno 13499 bound_to 3542
  122.9572  251.0743  327.3092 LP  0  0  0  0  0  0  0  0  0  0  0  0  # atno 13500 bound_to 3545
  122.2701  251.7764  328.7357 LP  0  0  0  0  0  0  0  0  0  0  0  0  # atno 13501 bound_to 3545
  120.7514  248.8717  329.0145 LP  0  0  0  0  0  0  0  0  0  0  0  0  # atno 13502 bound_to 3563
  123.1727  247.5939  327.3349 LP  0  0  0  0  0  0  0  0  0  0  0  0  # atno 13503 bound_to 3592
  117.1086  244.5104  318.3245 LP  0  0  0  0  0  0  0  0  0  0  0  0  # atno 13505 bound_to 8400
  118.1571  243.1391  318.4667 LP  0  0  0  0  0  0  0  0  0  0  0  0  # atno 13506 bound_to 8400
  115.1147  242.2225  317.6772 LP  0  0  0  0  0  0  0  0  0  0  0  0  # atno 13507 bound_to 8423
  113.7196  245.4540  317.7032 LP  0  0  0  0  0  0  0  0  0  0  0  0  # atno 13508 bound_to 8445
  113.3436  249.4452  317.4599 LP  0  0  0  0  0  0  0  0  0  0  0  0  # atno 13509 bound_to 8448
  113.2791  248.3272  316.1385 LP  0  0  0  0  0  0  0  0  0  0  0  0  # atno 13510 bound_to 8448
  116.2664  246.4591  317.6918 LP  0  0  0  0  0  0  0  0  0  0  0  0  # atno 13511 bound_to 8940
  115.0834  247.3346  316.7786 LP  0  0  0  0  0  0  0  0  0  0  0  0  # atno 13512 bound_to 8940
  118.7406  247.9536  316.4687 LP  0  0  0  0  0  0  0  0  0  0  0  0  # atno 13513 bound_to 8972
  120.5342  247.4193  316.3737 LP  0  0  0  0  0  0  0  0  0  0  0  0  # atno 13514 bound_to 8975
  121.7085  246.1775  316.6548 LP  0  0  0  0  0  0  0  0  0  0  0  0  # atno 13515 bound_to 8975
  119.7677  245.8756  318.0572 LP  0  0  0  0  0  0  0  0  0  0  0  0  # atno 13516 bound_to 8992
  121.1352  241.5803  318.1069 LP  0  0  0  0  0  0  0  0  0  0  0  0  # atno 13517 bound_to 8995
  121.6794  242.7982  317.0021 LP  0  0  0  0  0  0  0  0  0  0  0  0  # atno 13518 bound_to 8995
  122.6293  243.5048  320.5934 LP  0  0  0  0  0  0  0  0  0  0  0  0  # atno 13519 bound_to 9016
  122.3535  242.5759  323.0532 LP  0  0  0  0  0  0  0  0  0  0  0  0  # atno 13520 bound_to 9019
  120.6447  242.6331  322.7762 LP  0  0  0  0  0  0  0  0  0  0  0  0  # atno 13521 bound_to 9019
  122.2453  239.6678  321.9713 LP  0  0  0  0  0  0  0  0  0  0  0  0  # atno 13522 bound_to 9062
  121.2291  241.3003  325.4071 LP  0  0  0  0  0  0  0  0  0  0  0  0  # atno 13523 bound_to 9100
  112.0879  244.0164  317.9618 LP  0  0  0  0  0  0  0  0  0  0  0  0  # atno 13528 bound_to 8426
  112.1153  245.0217  316.5516 LP  0  0  0  0  0  0  0  0  0  0  0  0  # atno 13529 bound_to 8426
  115.0201  238.8996  317.2858 LP  0  0  0  0  0  0  0  0  0  0  0  0  # atno 13530 bound_to 8363
  115.0852  240.5741  316.8476 LP  0  0  0  0  0  0  0  0  0  0  0  0  # atno 13531 bound_to 8363
  111.5027  248.3043  318.1183 LP  0  0  0  0  0  0  0  0  0  0  0  0  # atno 13532 bound_to 8476
  114.1972  238.5723  321.4152 LP  0  0  0  0  0  0  0  0  0  0  0  0  # atno 13533 bound_to 9073
  114.1702  239.9596  322.2763 LP  0  0  0  0  0  0  0  0  0  0  0  0  # atno 13534 bound_to 9073
  114.6002  248.5783  315.8623 LP  0  0  0  0  0  0  0  0  0  0  0  0  # atno 13535 bound_to 8937
  118.7270  245.4701  313.8467 LP  0  0  0  0  0  0  0  0  0  0  0  0  # atno 13536 bound_to 8977
  119.3423  244.0007  314.2057 LP  0  0  0  0  0  0  0  0  0  0  0  0  # atno 13537 bound_to 8977
  124.1020  246.8565  318.4200 LP  0  0  0  0  0  0  0  0  0  0  0  0  # atno 13538 bound_to 4885
  125.6623  247.0792  317.9925 LP  0  0  0  0  0  0  0  0  0  0  0  0  # atno 13539 bound_to 4885
  108.2602  244.9248  318.8819 LP  0  0  0  0  0  0  0  0  0  0  0  0  # atno 13540 bound_to 5565
  111.1762  242.8355  316.2085 LP  0  0  0  0  0  0  0  0  0  0  0  0  # atno 13541 bound_to 5598
  111.2140  240.1588  317.7445 LP  0  0  0  0  0  0  0  0  0  0  0  0  # atno 13542 bound_to 5639
  110.8324  238.6672  318.5380 LP  0  0  0  0  0  0  0  0  0  0  0  0  # atno 13543 bound_to 5639
  110.4697  238.5273  320.8303 LP  0  0  0  0  0  0  0  0  0  0  0  0  # atno 13544 bound_to 8319
  111.7305  239.5494  320.6503 LP  0  0  0  0  0  0  0  0  0  0  0  0  # atno 13545 bound_to 8319
  113.3376  237.7505  327.7575 LP  0  0  0  0  0  0  0  0  0  0  0  0  # atno 13548 bound_to 9180
  113.6140  238.4092  329.3354 LP  0  0  0  0  0  0  0  0  0  0  0  0  # atno 13549 bound_to 9180
  110.2075  241.1115  315.0151 LP  0  0  0  0  0  0  0  0  0  0  0  0  # atno 13552 bound_to 5636

> <Gold.Score>
     Fitness  S(hb_ext) S(vdw_ext)  S(hb_int)    S(int)      intcor
     24.50       2.82      17.30       0.00      -2.11      -0.76

> <Gold.Goldscore.Fitness>
24.5037

> <Gold.Goldscore.Internal.Vdw>
-2.4946

> <Gold.Goldscore.Internal.Torsion>
-0.3695

> <Gold.Goldscore.External.Vdw>
17.3022

> <Gold.Goldscore.Internal.HBond>
0.0000

> <Gold.Goldscore.External.HBond>
2.8188

> <Gold.Goldscore.Internal.Correction>
-0.7585

> <Gold.Goldscore.Hbonds>
donor molecule, donor type, donor heavy atom, donor atom, acceptor molecule, acceptor atom, score
      L1  H    10    23       P1 13311  0.47

> <Gold.Goldscore.Internal.Vdw.Weighted>
-2.4946

> <Gold.Goldscore.Internal.Torsion.Weighted>
-0.3695

> <Gold.Goldscore.External.Vdw.Weighted>
23.7905

> <Gold.Goldscore.Internal.HBond.Weighted>
0.0000

> <Gold.Goldscore.External.HBond.Weighted>
2.8188

> <Gold.Goldscore.Internal.Correction.Weighted>
-0.7585

> <Gold.Rescore>
     Score     S(PLP)   S(hbond)     S(cho)   S(metal)  DE(clash)   DE(tors)     intcor
     21.88     -21.21       1.00       0.00       0.00       1.48       0.42       ----

> <Gold.PLP.Fitness>
21.8847

> <Gold.PLP.PLP>
-21.2082

> <Gold.PLP.part.hbond>
-1.5603

> <Gold.PLP.part.metal>
0.0000

> <Gold.PLP.part.buried>
-2.8878

> <Gold.PLP.part.nonpolar>
-17.1048

> <Gold.PLP.part.repulsive>
0.3165

> <Gold.PLP.ligand.clash>
1.4770

> <Gold.PLP.ligand.torsion>
0.4233

> <Gold.PLP.Chemscore.Hbond>
1.0000

> <Gold.PLP.Chemscore.CHOScore>
0.0000

> <Gold.PLP.Chemscore.Metal>
0.0000

> <Gold.Chemscore.Hbonds>
donor molecule, donor type, donor heavy atom, donor atom, acceptor molecule, acceptor atom, score
      L1  H    10    23       P1 13311  1.00

> <Gold.PLP.Chemscore.Internal.Correction>
   9.000000E+99

