#       Name:                GA Fitting Points
#       Creating user name   hitesit
#       Creation time:       Sun Apr 16 02:21:08 2023


#       Fitting Points Used by GA Software.
#

@<TRIPOS>MOLECULE
GA Fitting Points
  3471    0    0
SMALL
NO_CHARGES


@<TRIPOS>ATOM
      1 ****        40.0000  30.5000  32.2500 Du        
      2 ****        40.0000  30.5000  32.5000 Du        
      3 ****        40.0000  30.5000  32.7500 Du        
      4 ****        40.0000  30.5000  33.0000 Du        
      5 ****        40.0000  30.5000  33.2500 Du        
      6 ****        40.0000  30.5000  33.5000 Du        
      7 ****        40.0000  30.5000  33.7500 Du        
      8 ****        40.0000  30.5000  34.0000 Du        
      9 ****        40.0000  30.5000  34.2500 Du        
     10 ****        40.0000  30.7500  31.7500 Du        
     11 ****        40.0000  30.7500  32.0000 Du        
     12 ****        40.0000  30.7500  32.2500 Du        
     13 ****        40.0000  30.7500  32.5000 Du        
     14 ****        40.0000  30.7500  32.7500 Du        
     15 ****        40.0000  30.7500  33.0000 Du        
     16 ****        40.0000  30.7500  33.2500 Du        
     17 ****        40.0000  30.7500  33.5000 Du        
     18 ****        40.0000  30.7500  33.7500 Du        
     19 ****        40.0000  30.7500  34.0000 Du        
     20 ****        40.0000  31.0000  31.5000 Du        
     21 ****        40.0000  31.0000  31.7500 Du        
     22 ****        40.0000  31.0000  32.0000 Du        
     23 ****        40.0000  31.0000  32.2500 Du        
     24 ****        40.0000  31.0000  32.5000 Du        
     25 ****        40.0000  31.0000  32.7500 Du        
     26 ****        40.0000  31.0000  33.0000 Du        
     27 ****        40.0000  31.0000  33.2500 Du        
     28 ****        40.0000  31.0000  33.5000 Du        
     29 ****        40.0000  31.0000  33.7500 Du        
     30 ****        40.0000  31.2500  31.0000 Du        
     31 ****        40.0000  31.2500  31.2500 Du        
     32 ****        40.0000  31.2500  31.5000 Du        
     33 ****        40.0000  31.2500  31.7500 Du        
     34 ****        40.0000  31.2500  32.0000 Du        
     35 ****        40.0000  31.2500  32.2500 Du        
     36 ****        40.0000  31.2500  32.5000 Du        
     37 ****        40.0000  31.2500  32.7500 Du        
     38 ****        40.0000  31.2500  33.0000 Du        
     39 ****        40.0000  31.2500  33.2500 Du        
     40 ****        40.0000  31.5000  30.5000 Du        
     41 ****        40.0000  31.5000  30.7500 Du        
     42 ****        40.0000  31.5000  31.0000 Du        
     43 ****        40.0000  31.5000  31.2500 Du        
     44 ****        40.0000  31.5000  31.5000 Du        
     45 ****        40.0000  31.5000  31.7500 Du        
     46 ****        40.0000  31.5000  32.0000 Du        
     47 ****        40.0000  31.5000  32.2500 Du        
     48 ****        40.0000  31.5000  32.5000 Du        
     49 ****        40.0000  31.5000  32.7500 Du        
     50 ****        40.0000  31.5000  33.0000 Du        
     51 ****        40.0000  31.7500  30.5000 Du        
     52 ****        40.0000  31.7500  30.7500 Du        
     53 ****        40.0000  31.7500  31.0000 Du        
     54 ****        40.0000  31.7500  31.2500 Du        
     55 ****        40.0000  31.7500  31.5000 Du        
     56 ****        40.0000  31.7500  31.7500 Du        
     57 ****        40.0000  31.7500  32.0000 Du        
     58 ****        40.0000  31.7500  32.2500 Du        
     59 ****        40.0000  32.0000  30.5000 Du        
     60 ****        40.0000  32.0000  30.7500 Du        
     61 ****        40.0000  32.0000  31.0000 Du        
     62 ****        40.0000  32.0000  31.2500 Du        
     63 ****        40.0000  32.0000  31.5000 Du        
     64 ****        40.0000  32.0000  31.7500 Du        
     65 ****        40.0000  32.0000  32.0000 Du        
     66 ****        40.0000  32.2500  30.5000 Du        
     67 ****        40.0000  32.2500  30.7500 Du        
     68 ****        40.0000  32.2500  31.0000 Du        
     69 ****        40.0000  32.2500  31.2500 Du        
     70 ****        40.0000  32.2500  31.5000 Du        
     71 ****        40.0000  32.2500  31.7500 Du        
     72 ****        40.0000  32.5000  30.5000 Du        
     73 ****        40.0000  32.5000  30.7500 Du        
     74 ****        40.0000  32.5000  31.0000 Du        
     75 ****        40.0000  32.5000  31.2500 Du        
     76 ****        40.0000  32.7500  30.5000 Du        
     77 ****        40.0000  32.7500  30.7500 Du        
     78 ****        40.0000  32.7500  31.0000 Du        
     79 ****        40.0000  33.0000  30.5000 Du        
     80 ****        40.0000  33.0000  30.7500 Du        
     81 ****        40.2500  29.0000  33.2500 Du        
     82 ****        40.2500  29.0000  33.5000 Du        
     83 ****        40.2500  29.0000  33.7500 Du        
     84 ****        40.2500  29.0000  34.0000 Du        
     85 ****        40.2500  29.0000  34.2500 Du        
     86 ****        40.2500  29.2500  33.0000 Du        
     87 ****        40.2500  29.2500  33.2500 Du        
     88 ****        40.2500  29.2500  33.5000 Du        
     89 ****        40.2500  29.2500  33.7500 Du        
     90 ****        40.2500  29.2500  34.0000 Du        
     91 ****        40.2500  29.2500  34.2500 Du        
     92 ****        40.2500  29.5000  32.7500 Du        
     93 ****        40.2500  29.5000  33.0000 Du        
     94 ****        40.2500  29.5000  33.2500 Du        
     95 ****        40.2500  29.5000  33.5000 Du        
     96 ****        40.2500  29.5000  33.7500 Du        
     97 ****        40.2500  29.5000  34.0000 Du        
     98 ****        40.2500  29.5000  34.2500 Du        
     99 ****        40.2500  29.5000  34.5000 Du        
    100 ****        40.2500  29.5000  34.7500 Du        
    101 ****        40.2500  29.7500  32.5000 Du        
    102 ****        40.2500  29.7500  32.7500 Du        
    103 ****        40.2500  29.7500  33.0000 Du        
    104 ****        40.2500  29.7500  33.2500 Du        
    105 ****        40.2500  29.7500  33.5000 Du        
    106 ****        40.2500  29.7500  33.7500 Du        
    107 ****        40.2500  29.7500  34.0000 Du        
    108 ****        40.2500  29.7500  34.2500 Du        
    109 ****        40.2500  29.7500  34.5000 Du        
    110 ****        40.2500  29.7500  34.7500 Du        
    111 ****        40.2500  30.0000  32.5000 Du        
    112 ****        40.2500  30.0000  32.7500 Du        
    113 ****        40.2500  30.0000  33.0000 Du        
    114 ****        40.2500  30.0000  33.2500 Du        
    115 ****        40.2500  30.0000  33.5000 Du        
    116 ****        40.2500  30.0000  33.7500 Du        
    117 ****        40.2500  30.0000  34.0000 Du        
    118 ****        40.2500  30.0000  34.2500 Du        
    119 ****        40.2500  30.0000  34.5000 Du        
    120 ****        40.2500  30.0000  34.7500 Du        
    121 ****        40.2500  30.2500  32.2500 Du        
    122 ****        40.2500  30.2500  32.5000 Du        
    123 ****        40.2500  30.2500  32.7500 Du        
    124 ****        40.2500  30.2500  33.0000 Du        
    125 ****        40.2500  30.2500  33.2500 Du        
    126 ****        40.2500  30.2500  33.5000 Du        
    127 ****        40.2500  30.2500  33.7500 Du        
    128 ****        40.2500  30.2500  34.0000 Du        
    129 ****        40.2500  30.2500  34.2500 Du        
    130 ****        40.2500  30.2500  34.5000 Du        
    131 ****        40.2500  30.5000  32.0000 Du        
    132 ****        40.2500  30.5000  32.2500 Du        
    133 ****        40.2500  30.5000  32.5000 Du        
    134 ****        40.2500  30.5000  32.7500 Du        
    135 ****        40.2500  30.5000  33.0000 Du        
    136 ****        40.2500  30.5000  33.2500 Du        
    137 ****        40.2500  30.5000  33.5000 Du        
    138 ****        40.2500  30.5000  33.7500 Du        
    139 ****        40.2500  30.5000  34.0000 Du        
    140 ****        40.2500  30.5000  34.2500 Du        
    141 ****        40.2500  30.7500  31.7500 Du        
    142 ****        40.2500  30.7500  32.0000 Du        
    143 ****        40.2500  30.7500  32.2500 Du        
    144 ****        40.2500  30.7500  32.5000 Du        
    145 ****        40.2500  30.7500  32.7500 Du        
    146 ****        40.2500  30.7500  33.0000 Du        
    147 ****        40.2500  30.7500  33.2500 Du        
    148 ****        40.2500  30.7500  33.5000 Du        
    149 ****        40.2500  30.7500  33.7500 Du        
    150 ****        40.2500  30.7500  34.0000 Du        
    151 ****        40.2500  31.0000  31.2500 Du        
    152 ****        40.2500  31.0000  31.5000 Du        
    153 ****        40.2500  31.0000  31.7500 Du        
    154 ****        40.2500  31.0000  32.0000 Du        
    155 ****        40.2500  31.0000  32.2500 Du        
    156 ****        40.2500  31.0000  32.5000 Du        
    157 ****        40.2500  31.0000  32.7500 Du        
    158 ****        40.2500  31.0000  33.0000 Du        
    159 ****        40.2500  31.0000  33.2500 Du        
    160 ****        40.2500  31.0000  33.5000 Du        
    161 ****        40.2500  31.0000  33.7500 Du        
    162 ****        40.2500  31.2500  30.7500 Du        
    163 ****        40.2500  31.2500  31.0000 Du        
    164 ****        40.2500  31.2500  31.2500 Du        
    165 ****        40.2500  31.2500  31.5000 Du        
    166 ****        40.2500  31.2500  31.7500 Du        
    167 ****        40.2500  31.2500  32.0000 Du        
    168 ****        40.2500  31.2500  32.2500 Du        
    169 ****        40.2500  31.2500  32.5000 Du        
    170 ****        40.2500  31.2500  32.7500 Du        
    171 ****        40.2500  31.2500  33.0000 Du        
    172 ****        40.2500  31.2500  33.2500 Du        
    173 ****        40.2500  31.2500  33.5000 Du        
    174 ****        40.2500  31.5000  30.2500 Du        
    175 ****        40.2500  31.5000  30.5000 Du        
    176 ****        40.2500  31.5000  30.7500 Du        
    177 ****        40.2500  31.5000  31.0000 Du        
    178 ****        40.2500  31.5000  31.2500 Du        
    179 ****        40.2500  31.5000  31.5000 Du        
    180 ****        40.2500  31.5000  31.7500 Du        
    181 ****        40.2500  31.5000  32.0000 Du        
    182 ****        40.2500  31.5000  32.2500 Du        
    183 ****        40.2500  31.5000  32.5000 Du        
    184 ****        40.2500  31.5000  32.7500 Du        
    185 ****        40.2500  31.5000  33.0000 Du        
    186 ****        40.2500  31.7500  30.0000 Du        
    187 ****        40.2500  31.7500  30.2500 Du        
    188 ****        40.2500  31.7500  30.5000 Du        
    189 ****        40.2500  31.7500  30.7500 Du        
    190 ****        40.2500  31.7500  31.0000 Du        
    191 ****        40.2500  31.7500  31.2500 Du        
    192 ****        40.2500  31.7500  31.5000 Du        
    193 ****        40.2500  31.7500  31.7500 Du        
    194 ****        40.2500  31.7500  32.0000 Du        
    195 ****        40.2500  31.7500  32.2500 Du        
    196 ****        40.2500  31.7500  32.5000 Du        
    197 ****        40.2500  31.7500  32.7500 Du        
    198 ****        40.2500  32.0000  30.0000 Du        
    199 ****        40.2500  32.0000  30.2500 Du        
    200 ****        40.2500  32.0000  30.5000 Du        
    201 ****        40.2500  32.0000  30.7500 Du        
    202 ****        40.2500  32.0000  31.0000 Du        
    203 ****        40.2500  32.0000  31.2500 Du        
    204 ****        40.2500  32.0000  31.5000 Du        
    205 ****        40.2500  32.0000  31.7500 Du        
    206 ****        40.2500  32.0000  32.0000 Du        
    207 ****        40.2500  32.0000  32.2500 Du        
    208 ****        40.2500  32.2500  29.7500 Du        
    209 ****        40.2500  32.2500  30.0000 Du        
    210 ****        40.2500  32.2500  30.2500 Du        
    211 ****        40.2500  32.2500  30.5000 Du        
    212 ****        40.2500  32.2500  30.7500 Du        
    213 ****        40.2500  32.2500  31.0000 Du        
    214 ****        40.2500  32.2500  31.2500 Du        
    215 ****        40.2500  32.2500  31.5000 Du        
    216 ****        40.2500  32.2500  31.7500 Du        
    217 ****        40.2500  32.2500  32.0000 Du        
    218 ****        40.2500  32.5000  29.5000 Du        
    219 ****        40.2500  32.5000  29.7500 Du        
    220 ****        40.2500  32.5000  30.0000 Du        
    221 ****        40.2500  32.5000  30.2500 Du        
    222 ****        40.2500  32.5000  30.5000 Du        
    223 ****        40.2500  32.5000  30.7500 Du        
    224 ****        40.2500  32.5000  31.0000 Du        
    225 ****        40.2500  32.5000  31.2500 Du        
    226 ****        40.2500  32.7500  29.2500 Du        
    227 ****        40.2500  32.7500  29.5000 Du        
    228 ****        40.2500  32.7500  29.7500 Du        
    229 ****        40.2500  32.7500  30.0000 Du        
    230 ****        40.2500  32.7500  30.2500 Du        
    231 ****        40.2500  32.7500  30.5000 Du        
    232 ****        40.2500  32.7500  30.7500 Du        
    233 ****        40.2500  32.7500  31.0000 Du        
    234 ****        40.2500  32.7500  31.2500 Du        
    235 ****        40.2500  33.0000  29.5000 Du        
    236 ****        40.2500  33.0000  29.7500 Du        
    237 ****        40.2500  33.0000  30.0000 Du        
    238 ****        40.2500  33.0000  30.2500 Du        
    239 ****        40.2500  33.0000  30.5000 Du        
    240 ****        40.2500  33.0000  30.7500 Du        
    241 ****        40.5000  29.0000  33.2500 Du        
    242 ****        40.5000  29.0000  33.5000 Du        
    243 ****        40.5000  29.0000  33.7500 Du        
    244 ****        40.5000  29.0000  34.0000 Du        
    245 ****        40.5000  29.0000  34.2500 Du        
    246 ****        40.5000  29.2500  33.0000 Du        
    247 ****        40.5000  29.2500  33.2500 Du        
    248 ****        40.5000  29.2500  33.5000 Du        
    249 ****        40.5000  29.2500  33.7500 Du        
    250 ****        40.5000  29.2500  34.0000 Du        
    251 ****        40.5000  29.2500  34.2500 Du        
    252 ****        40.5000  29.5000  32.7500 Du        
    253 ****        40.5000  29.5000  33.0000 Du        
    254 ****        40.5000  29.5000  33.2500 Du        
    255 ****        40.5000  29.5000  33.5000 Du        
    256 ****        40.5000  29.5000  33.7500 Du        
    257 ****        40.5000  29.5000  34.0000 Du        
    258 ****        40.5000  29.5000  34.2500 Du        
    259 ****        40.5000  29.5000  34.5000 Du        
    260 ****        40.5000  29.7500  32.5000 Du        
    261 ****        40.5000  29.7500  32.7500 Du        
    262 ****        40.5000  29.7500  33.0000 Du        
    263 ****        40.5000  29.7500  33.2500 Du        
    264 ****        40.5000  29.7500  33.5000 Du        
    265 ****        40.5000  29.7500  33.7500 Du        
    266 ****        40.5000  29.7500  34.0000 Du        
    267 ****        40.5000  29.7500  34.2500 Du        
    268 ****        40.5000  29.7500  34.5000 Du        
    269 ****        40.5000  30.0000  32.5000 Du        
    270 ****        40.5000  30.0000  32.7500 Du        
    271 ****        40.5000  30.0000  33.0000 Du        
    272 ****        40.5000  30.0000  33.2500 Du        
    273 ****        40.5000  30.0000  33.5000 Du        
    274 ****        40.5000  30.0000  33.7500 Du        
    275 ****        40.5000  30.0000  34.0000 Du        
    276 ****        40.5000  30.0000  34.2500 Du        
    277 ****        40.5000  30.0000  34.5000 Du        
    278 ****        40.5000  30.2500  32.2500 Du        
    279 ****        40.5000  30.2500  32.5000 Du        
    280 ****        40.5000  30.2500  32.7500 Du        
    281 ****        40.5000  30.2500  33.0000 Du        
    282 ****        40.5000  30.2500  33.2500 Du        
    283 ****        40.5000  30.2500  33.5000 Du        
    284 ****        40.5000  30.2500  33.7500 Du        
    285 ****        40.5000  30.2500  34.0000 Du        
    286 ****        40.5000  30.2500  34.2500 Du        
    287 ****        40.5000  30.2500  34.5000 Du        
    288 ****        40.5000  30.5000  32.0000 Du        
    289 ****        40.5000  30.5000  32.2500 Du        
    290 ****        40.5000  30.5000  32.5000 Du        
    291 ****        40.5000  30.5000  32.7500 Du        
    292 ****        40.5000  30.5000  33.0000 Du        
    293 ****        40.5000  30.5000  33.2500 Du        
    294 ****        40.5000  30.5000  33.5000 Du        
    295 ****        40.5000  30.5000  33.7500 Du        
    296 ****        40.5000  30.5000  34.0000 Du        
    297 ****        40.5000  30.5000  34.2500 Du        
    298 ****        40.5000  30.7500  31.7500 Du        
    299 ****        40.5000  30.7500  32.0000 Du        
    300 ****        40.5000  30.7500  32.2500 Du        
    301 ****        40.5000  30.7500  32.5000 Du        
    302 ****        40.5000  30.7500  32.7500 Du        
    303 ****        40.5000  30.7500  33.0000 Du        
    304 ****        40.5000  30.7500  33.2500 Du        
    305 ****        40.5000  30.7500  33.5000 Du        
    306 ****        40.5000  30.7500  33.7500 Du        
    307 ****        40.5000  30.7500  34.0000 Du        
    308 ****        40.5000  31.0000  31.0000 Du        
    309 ****        40.5000  31.0000  31.2500 Du        
    310 ****        40.5000  31.0000  31.5000 Du        
    311 ****        40.5000  31.0000  31.7500 Du        
    312 ****        40.5000  31.0000  32.0000 Du        
    313 ****        40.5000  31.0000  32.2500 Du        
    314 ****        40.5000  31.0000  32.5000 Du        
    315 ****        40.5000  31.0000  32.7500 Du        
    316 ****        40.5000  31.0000  33.0000 Du        
    317 ****        40.5000  31.0000  33.2500 Du        
    318 ****        40.5000  31.0000  33.5000 Du        
    319 ****        40.5000  31.0000  33.7500 Du        
    320 ****        40.5000  31.2500  30.7500 Du        
    321 ****        40.5000  31.2500  31.0000 Du        
    322 ****        40.5000  31.2500  31.2500 Du        
    323 ****        40.5000  31.2500  31.5000 Du        
    324 ****        40.5000  31.2500  31.7500 Du        
    325 ****        40.5000  31.2500  32.0000 Du        
    326 ****        40.5000  31.2500  32.2500 Du        
    327 ****        40.5000  31.2500  32.5000 Du        
    328 ****        40.5000  31.2500  32.7500 Du        
    329 ****        40.5000  31.2500  33.0000 Du        
    330 ****        40.5000  31.2500  33.2500 Du        
    331 ****        40.5000  31.2500  33.5000 Du        
    332 ****        40.5000  31.5000  30.2500 Du        
    333 ****        40.5000  31.5000  30.5000 Du        
    334 ****        40.5000  31.5000  30.7500 Du        
    335 ****        40.5000  31.5000  31.0000 Du        
    336 ****        40.5000  31.5000  31.2500 Du        
    337 ****        40.5000  31.5000  31.5000 Du        
    338 ****        40.5000  31.5000  31.7500 Du        
    339 ****        40.5000  31.5000  32.0000 Du        
    340 ****        40.5000  31.5000  32.2500 Du        
    341 ****        40.5000  31.5000  32.5000 Du        
    342 ****        40.5000  31.5000  32.7500 Du        
    343 ****        40.5000  31.5000  33.0000 Du        
    344 ****        40.5000  31.5000  33.2500 Du        
    345 ****        40.5000  31.7500  30.0000 Du        
    346 ****        40.5000  31.7500  30.2500 Du        
    347 ****        40.5000  31.7500  30.5000 Du        
    348 ****        40.5000  31.7500  30.7500 Du        
    349 ****        40.5000  31.7500  31.0000 Du        
    350 ****        40.5000  31.7500  31.2500 Du        
    351 ****        40.5000  31.7500  31.5000 Du        
    352 ****        40.5000  31.7500  31.7500 Du        
    353 ****        40.5000  31.7500  32.0000 Du        
    354 ****        40.5000  31.7500  32.2500 Du        
    355 ****        40.5000  31.7500  32.5000 Du        
    356 ****        40.5000  31.7500  32.7500 Du        
    357 ****        40.5000  31.7500  33.0000 Du        
    358 ****        40.5000  32.0000  29.7500 Du        
    359 ****        40.5000  32.0000  30.0000 Du        
    360 ****        40.5000  32.0000  30.2500 Du        
    361 ****        40.5000  32.0000  30.5000 Du        
    362 ****        40.5000  32.0000  30.7500 Du        
    363 ****        40.5000  32.0000  31.0000 Du        
    364 ****        40.5000  32.0000  31.2500 Du        
    365 ****        40.5000  32.0000  31.5000 Du        
    366 ****        40.5000  32.0000  31.7500 Du        
    367 ****        40.5000  32.0000  32.0000 Du        
    368 ****        40.5000  32.0000  32.2500 Du        
    369 ****        40.5000  32.0000  32.5000 Du        
    370 ****        40.5000  32.2500  29.7500 Du        
    371 ****        40.5000  32.2500  30.0000 Du        
    372 ****        40.5000  32.2500  30.2500 Du        
    373 ****        40.5000  32.2500  30.5000 Du        
    374 ****        40.5000  32.2500  30.7500 Du        
    375 ****        40.5000  32.2500  31.0000 Du        
    376 ****        40.5000  32.2500  31.2500 Du        
    377 ****        40.5000  32.2500  31.5000 Du        
    378 ****        40.5000  32.2500  31.7500 Du        
    379 ****        40.5000  32.2500  32.0000 Du        
    380 ****        40.5000  32.5000  29.5000 Du        
    381 ****        40.5000  32.5000  29.7500 Du        
    382 ****        40.5000  32.5000  30.0000 Du        
    383 ****        40.5000  32.5000  30.2500 Du        
    384 ****        40.5000  32.5000  30.5000 Du        
    385 ****        40.5000  32.5000  30.7500 Du        
    386 ****        40.5000  32.5000  31.0000 Du        
    387 ****        40.5000  32.5000  31.2500 Du        
    388 ****        40.5000  32.7500  29.5000 Du        
    389 ****        40.5000  32.7500  29.7500 Du        
    390 ****        40.5000  32.7500  30.0000 Du        
    391 ****        40.5000  32.7500  30.2500 Du        
    392 ****        40.5000  32.7500  30.5000 Du        
    393 ****        40.5000  32.7500  30.7500 Du        
    394 ****        40.5000  32.7500  31.0000 Du        
    395 ****        40.5000  32.7500  31.2500 Du        
    396 ****        40.5000  33.0000  30.0000 Du        
    397 ****        40.5000  33.0000  30.2500 Du        
    398 ****        40.5000  33.0000  30.5000 Du        
    399 ****        40.5000  33.0000  30.7500 Du        
    400 ****        40.7500  28.7500  33.5000 Du        
    401 ****        40.7500  28.7500  33.7500 Du        
    402 ****        40.7500  29.0000  33.0000 Du        
    403 ****        40.7500  29.0000  33.2500 Du        
    404 ****        40.7500  29.0000  33.5000 Du        
    405 ****        40.7500  29.0000  33.7500 Du        
    406 ****        40.7500  29.0000  34.0000 Du        
    407 ****        40.7500  29.2500  32.7500 Du        
    408 ****        40.7500  29.2500  33.0000 Du        
    409 ****        40.7500  29.2500  33.2500 Du        
    410 ****        40.7500  29.2500  33.5000 Du        
    411 ****        40.7500  29.2500  33.7500 Du        
    412 ****        40.7500  29.2500  34.0000 Du        
    413 ****        40.7500  29.2500  34.2500 Du        
    414 ****        40.7500  29.5000  32.7500 Du        
    415 ****        40.7500  29.5000  33.0000 Du        
    416 ****        40.7500  29.5000  33.2500 Du        
    417 ****        40.7500  29.5000  33.5000 Du        
    418 ****        40.7500  29.5000  33.7500 Du        
    419 ****        40.7500  29.5000  34.0000 Du        
    420 ****        40.7500  29.5000  34.2500 Du        
    421 ****        40.7500  29.7500  32.5000 Du        
    422 ****        40.7500  29.7500  32.7500 Du        
    423 ****        40.7500  29.7500  33.0000 Du        
    424 ****        40.7500  29.7500  33.2500 Du        
    425 ****        40.7500  29.7500  33.5000 Du        
    426 ****        40.7500  29.7500  33.7500 Du        
    427 ****        40.7500  29.7500  34.0000 Du        
    428 ****        40.7500  29.7500  34.2500 Du        
    429 ****        40.7500  30.0000  32.2500 Du        
    430 ****        40.7500  30.0000  32.5000 Du        
    431 ****        40.7500  30.0000  32.7500 Du        
    432 ****        40.7500  30.0000  33.0000 Du        
    433 ****        40.7500  30.0000  33.2500 Du        
    434 ****        40.7500  30.0000  33.5000 Du        
    435 ****        40.7500  30.0000  33.7500 Du        
    436 ****        40.7500  30.0000  34.0000 Du        
    437 ****        40.7500  30.0000  34.2500 Du        
    438 ****        40.7500  30.0000  34.5000 Du        
    439 ****        40.7500  30.2500  32.0000 Du        
    440 ****        40.7500  30.2500  32.2500 Du        
    441 ****        40.7500  30.2500  32.5000 Du        
    442 ****        40.7500  30.2500  32.7500 Du        
    443 ****        40.7500  30.2500  33.0000 Du        
    444 ****        40.7500  30.2500  33.2500 Du        
    445 ****        40.7500  30.2500  33.5000 Du        
    446 ****        40.7500  30.2500  33.7500 Du        
    447 ****        40.7500  30.2500  34.0000 Du        
    448 ****        40.7500  30.2500  34.2500 Du        
    449 ****        40.7500  30.2500  34.5000 Du        
    450 ****        40.7500  30.5000  31.7500 Du        
    451 ****        40.7500  30.5000  32.0000 Du        
    452 ****        40.7500  30.5000  32.2500 Du        
    453 ****        40.7500  30.5000  32.5000 Du        
    454 ****        40.7500  30.5000  32.7500 Du        
    455 ****        40.7500  30.5000  33.0000 Du        
    456 ****        40.7500  30.5000  33.2500 Du        
    457 ****        40.7500  30.5000  33.5000 Du        
    458 ****        40.7500  30.5000  33.7500 Du        
    459 ****        40.7500  30.5000  34.0000 Du        
    460 ****        40.7500  30.5000  34.2500 Du        
    461 ****        40.7500  30.7500  31.2500 Du        
    462 ****        40.7500  30.7500  31.5000 Du        
    463 ****        40.7500  30.7500  31.7500 Du        
    464 ****        40.7500  30.7500  32.0000 Du        
    465 ****        40.7500  30.7500  32.2500 Du        
    466 ****        40.7500  30.7500  32.5000 Du        
    467 ****        40.7500  30.7500  32.7500 Du        
    468 ****        40.7500  30.7500  33.0000 Du        
    469 ****        40.7500  30.7500  33.2500 Du        
    470 ****        40.7500  30.7500  33.5000 Du        
    471 ****        40.7500  30.7500  33.7500 Du        
    472 ****        40.7500  30.7500  34.0000 Du        
    473 ****        40.7500  31.0000  30.7500 Du        
    474 ****        40.7500  31.0000  31.0000 Du        
    475 ****        40.7500  31.0000  31.2500 Du        
    476 ****        40.7500  31.0000  31.5000 Du        
    477 ****        40.7500  31.0000  31.7500 Du        
    478 ****        40.7500  31.0000  32.0000 Du        
    479 ****        40.7500  31.0000  32.2500 Du        
    480 ****        40.7500  31.0000  32.5000 Du        
    481 ****        40.7500  31.0000  32.7500 Du        
    482 ****        40.7500  31.0000  33.0000 Du        
    483 ****        40.7500  31.0000  33.2500 Du        
    484 ****        40.7500  31.0000  33.5000 Du        
    485 ****        40.7500  31.0000  33.7500 Du        
    486 ****        40.7500  31.2500  30.2500 Du        
    487 ****        40.7500  31.2500  30.5000 Du        
    488 ****        40.7500  31.2500  30.7500 Du        
    489 ****        40.7500  31.2500  31.0000 Du        
    490 ****        40.7500  31.2500  31.2500 Du        
    491 ****        40.7500  31.2500  31.5000 Du        
    492 ****        40.7500  31.2500  31.7500 Du        
    493 ****        40.7500  31.2500  32.0000 Du        
    494 ****        40.7500  31.2500  32.2500 Du        
    495 ****        40.7500  31.2500  32.5000 Du        
    496 ****        40.7500  31.2500  32.7500 Du        
    497 ****        40.7500  31.2500  33.0000 Du        
    498 ****        40.7500  31.2500  33.2500 Du        
    499 ****        40.7500  31.2500  33.5000 Du        
    500 ****        40.7500  31.5000  30.2500 Du        
    501 ****        40.7500  31.5000  30.5000 Du        
    502 ****        40.7500  31.5000  30.7500 Du        
    503 ****        40.7500  31.5000  31.0000 Du        
    504 ****        40.7500  31.5000  31.2500 Du        
    505 ****        40.7500  31.5000  31.5000 Du        
    506 ****        40.7500  31.5000  31.7500 Du        
    507 ****        40.7500  31.5000  32.0000 Du        
    508 ****        40.7500  31.5000  32.2500 Du        
    509 ****        40.7500  31.5000  32.5000 Du        
    510 ****        40.7500  31.5000  32.7500 Du        
    511 ****        40.7500  31.5000  33.0000 Du        
    512 ****        40.7500  31.5000  33.2500 Du        
    513 ****        40.7500  31.7500  30.0000 Du        
    514 ****        40.7500  31.7500  30.2500 Du        
    515 ****        40.7500  31.7500  30.5000 Du        
    516 ****        40.7500  31.7500  30.7500 Du        
    517 ****        40.7500  31.7500  31.0000 Du        
    518 ****        40.7500  31.7500  31.2500 Du        
    519 ****        40.7500  31.7500  31.5000 Du        
    520 ****        40.7500  31.7500  31.7500 Du        
    521 ****        40.7500  31.7500  32.0000 Du        
    522 ****        40.7500  31.7500  32.2500 Du        
    523 ****        40.7500  31.7500  32.5000 Du        
    524 ****        40.7500  31.7500  32.7500 Du        
    525 ****        40.7500  31.7500  33.0000 Du        
    526 ****        40.7500  31.7500  33.2500 Du        
    527 ****        40.7500  32.0000  29.7500 Du        
    528 ****        40.7500  32.0000  30.0000 Du        
    529 ****        40.7500  32.0000  30.2500 Du        
    530 ****        40.7500  32.0000  30.5000 Du        
    531 ****        40.7500  32.0000  30.7500 Du        
    532 ****        40.7500  32.0000  31.0000 Du        
    533 ****        40.7500  32.0000  31.2500 Du        
    534 ****        40.7500  32.0000  31.5000 Du        
    535 ****        40.7500  32.0000  31.7500 Du        
    536 ****        40.7500  32.0000  32.0000 Du        
    537 ****        40.7500  32.0000  32.2500 Du        
    538 ****        40.7500  32.0000  32.5000 Du        
    539 ****        40.7500  32.0000  32.7500 Du        
    540 ****        40.7500  32.0000  33.0000 Du        
    541 ****        40.7500  32.2500  29.5000 Du        
    542 ****        40.7500  32.2500  29.7500 Du        
    543 ****        40.7500  32.2500  30.0000 Du        
    544 ****        40.7500  32.2500  30.2500 Du        
    545 ****        40.7500  32.2500  30.5000 Du        
    546 ****        40.7500  32.2500  30.7500 Du        
    547 ****        40.7500  32.2500  31.0000 Du        
    548 ****        40.7500  32.2500  31.2500 Du        
    549 ****        40.7500  32.2500  31.5000 Du        
    550 ****        40.7500  32.2500  31.7500 Du        
    551 ****        40.7500  32.2500  32.0000 Du        
    552 ****        40.7500  32.2500  32.2500 Du        
    553 ****        40.7500  32.2500  32.5000 Du        
    554 ****        40.7500  32.5000  29.5000 Du        
    555 ****        40.7500  32.5000  29.7500 Du        
    556 ****        40.7500  32.5000  30.0000 Du        
    557 ****        40.7500  32.5000  30.2500 Du        
    558 ****        40.7500  32.5000  30.5000 Du        
    559 ****        40.7500  32.5000  30.7500 Du        
    560 ****        40.7500  32.5000  31.0000 Du        
    561 ****        40.7500  32.5000  31.2500 Du        
    562 ****        40.7500  32.5000  31.5000 Du        
    563 ****        40.7500  32.5000  31.7500 Du        
    564 ****        40.7500  32.7500  29.7500 Du        
    565 ****        40.7500  32.7500  30.0000 Du        
    566 ****        40.7500  32.7500  30.2500 Du        
    567 ****        40.7500  32.7500  30.5000 Du        
    568 ****        40.7500  32.7500  30.7500 Du        
    569 ****        40.7500  32.7500  31.0000 Du        
    570 ****        40.7500  32.7500  31.2500 Du        
    571 ****        40.7500  33.0000  30.2500 Du        
    572 ****        40.7500  33.0000  30.5000 Du        
    573 ****        40.7500  33.0000  30.7500 Du        
    574 ****        40.7500  33.0000  31.0000 Du        
    575 ****        41.0000  29.0000  33.2500 Du        
    576 ****        41.0000  29.2500  32.7500 Du        
    577 ****        41.0000  29.2500  33.0000 Du        
    578 ****        41.0000  29.2500  33.2500 Du        
    579 ****        41.0000  29.2500  33.5000 Du        
    580 ****        41.0000  29.2500  33.7500 Du        
    581 ****        41.0000  29.5000  32.5000 Du        
    582 ****        41.0000  29.5000  32.7500 Du        
    583 ****        41.0000  29.5000  33.0000 Du        
    584 ****        41.0000  29.5000  33.2500 Du        
    585 ****        41.0000  29.5000  33.5000 Du        
    586 ****        41.0000  29.5000  33.7500 Du        
    587 ****        41.0000  29.5000  34.0000 Du        
    588 ****        41.0000  29.7500  32.2500 Du        
    589 ****        41.0000  29.7500  32.5000 Du        
    590 ****        41.0000  29.7500  32.7500 Du        
    591 ****        41.0000  29.7500  33.0000 Du        
    592 ****        41.0000  29.7500  33.2500 Du        
    593 ****        41.0000  29.7500  33.5000 Du        
    594 ****        41.0000  29.7500  33.7500 Du        
    595 ****        41.0000  29.7500  34.0000 Du        
    596 ****        41.0000  29.7500  34.2500 Du        
    597 ****        41.0000  30.0000  32.0000 Du        
    598 ****        41.0000  30.0000  32.2500 Du        
    599 ****        41.0000  30.0000  32.5000 Du        
    600 ****        41.0000  30.0000  32.7500 Du        
    601 ****        41.0000  30.0000  33.0000 Du        
    602 ****        41.0000  30.0000  33.2500 Du        
    603 ****        41.0000  30.0000  33.5000 Du        
    604 ****        41.0000  30.0000  33.7500 Du        
    605 ****        41.0000  30.0000  34.0000 Du        
    606 ****        41.0000  30.0000  34.2500 Du        
    607 ****        41.0000  30.2500  31.7500 Du        
    608 ****        41.0000  30.2500  32.0000 Du        
    609 ****        41.0000  30.2500  32.2500 Du        
    610 ****        41.0000  30.2500  32.5000 Du        
    611 ****        41.0000  30.2500  32.7500 Du        
    612 ****        41.0000  30.2500  33.0000 Du        
    613 ****        41.0000  30.2500  33.2500 Du        
    614 ****        41.0000  30.2500  33.5000 Du        
    615 ****        41.0000  30.2500  33.7500 Du        
    616 ****        41.0000  30.2500  34.0000 Du        
    617 ****        41.0000  30.2500  34.2500 Du        
    618 ****        41.0000  30.5000  31.7500 Du        
    619 ****        41.0000  30.5000  32.0000 Du        
    620 ****        41.0000  30.5000  32.2500 Du        
    621 ****        41.0000  30.5000  32.5000 Du        
    622 ****        41.0000  30.5000  32.7500 Du        
    623 ****        41.0000  30.5000  33.0000 Du        
    624 ****        41.0000  30.5000  33.2500 Du        
    625 ****        41.0000  30.5000  33.5000 Du        
    626 ****        41.0000  30.5000  33.7500 Du        
    627 ****        41.0000  30.5000  34.0000 Du        
    628 ****        41.0000  30.5000  34.2500 Du        
    629 ****        41.0000  30.7500  31.0000 Du        
    630 ****        41.0000  30.7500  31.2500 Du        
    631 ****        41.0000  30.7500  31.5000 Du        
    632 ****        41.0000  30.7500  31.7500 Du        
    633 ****        41.0000  30.7500  32.0000 Du        
    634 ****        41.0000  30.7500  32.2500 Du        
    635 ****        41.0000  30.7500  32.5000 Du        
    636 ****        41.0000  30.7500  32.7500 Du        
    637 ****        41.0000  30.7500  33.0000 Du        
    638 ****        41.0000  30.7500  33.2500 Du        
    639 ****        41.0000  30.7500  33.5000 Du        
    640 ****        41.0000  30.7500  33.7500 Du        
    641 ****        41.0000  30.7500  34.0000 Du        
    642 ****        41.0000  30.7500  34.2500 Du        
    643 ****        41.0000  31.0000  30.5000 Du        
    644 ****        41.0000  31.0000  30.7500 Du        
    645 ****        41.0000  31.0000  31.0000 Du        
    646 ****        41.0000  31.0000  31.2500 Du        
    647 ****        41.0000  31.0000  31.5000 Du        
    648 ****        41.0000  31.0000  31.7500 Du        
    649 ****        41.0000  31.0000  32.0000 Du        
    650 ****        41.0000  31.0000  32.2500 Du        
    651 ****        41.0000  31.0000  32.5000 Du        
    652 ****        41.0000  31.0000  32.7500 Du        
    653 ****        41.0000  31.0000  33.0000 Du        
    654 ****        41.0000  31.0000  33.2500 Du        
    655 ****        41.0000  31.0000  33.5000 Du        
    656 ****        41.0000  31.0000  33.7500 Du        
    657 ****        41.0000  31.0000  34.0000 Du        
    658 ****        41.0000  31.2500  30.2500 Du        
    659 ****        41.0000  31.2500  30.5000 Du        
    660 ****        41.0000  31.2500  30.7500 Du        
    661 ****        41.0000  31.2500  31.0000 Du        
    662 ****        41.0000  31.2500  31.2500 Du        
    663 ****        41.0000  31.2500  31.5000 Du        
    664 ****        41.0000  31.2500  31.7500 Du        
    665 ****        41.0000  31.2500  32.0000 Du        
    666 ****        41.0000  31.2500  32.2500 Du        
    667 ****        41.0000  31.2500  32.5000 Du        
    668 ****        41.0000  31.2500  32.7500 Du        
    669 ****        41.0000  31.2500  33.0000 Du        
    670 ****        41.0000  31.2500  33.2500 Du        
    671 ****        41.0000  31.2500  33.5000 Du        
    672 ****        41.0000  31.2500  33.7500 Du        
    673 ****        41.0000  31.5000  30.0000 Du        
    674 ****        41.0000  31.5000  30.2500 Du        
    675 ****        41.0000  31.5000  30.5000 Du        
    676 ****        41.0000  31.5000  30.7500 Du        
    677 ****        41.0000  31.5000  31.0000 Du        
    678 ****        41.0000  31.5000  31.2500 Du        
    679 ****        41.0000  31.5000  31.5000 Du        
    680 ****        41.0000  31.5000  31.7500 Du        
    681 ****        41.0000  31.5000  32.0000 Du        
    682 ****        41.0000  31.5000  32.2500 Du        
    683 ****        41.0000  31.5000  32.5000 Du        
    684 ****        41.0000  31.5000  32.7500 Du        
    685 ****        41.0000  31.5000  33.0000 Du        
    686 ****        41.0000  31.5000  33.2500 Du        
    687 ****        41.0000  31.5000  33.5000 Du        
    688 ****        41.0000  31.7500  29.7500 Du        
    689 ****        41.0000  31.7500  30.0000 Du        
    690 ****        41.0000  31.7500  30.2500 Du        
    691 ****        41.0000  31.7500  30.5000 Du        
    692 ****        41.0000  31.7500  30.7500 Du        
    693 ****        41.0000  31.7500  31.0000 Du        
    694 ****        41.0000  31.7500  31.2500 Du        
    695 ****        41.0000  31.7500  31.5000 Du        
    696 ****        41.0000  31.7500  31.7500 Du        
    697 ****        41.0000  31.7500  32.0000 Du        
    698 ****        41.0000  31.7500  32.2500 Du        
    699 ****        41.0000  31.7500  32.5000 Du        
    700 ****        41.0000  31.7500  32.7500 Du        
    701 ****        41.0000  31.7500  33.0000 Du        
    702 ****        41.0000  31.7500  33.2500 Du        
    703 ****        41.0000  32.0000  29.7500 Du        
    704 ****        41.0000  32.0000  30.0000 Du        
    705 ****        41.0000  32.0000  30.2500 Du        
    706 ****        41.0000  32.0000  30.5000 Du        
    707 ****        41.0000  32.0000  30.7500 Du        
    708 ****        41.0000  32.0000  31.0000 Du        
    709 ****        41.0000  32.0000  31.2500 Du        
    710 ****        41.0000  32.0000  31.5000 Du        
    711 ****        41.0000  32.0000  31.7500 Du        
    712 ****        41.0000  32.0000  32.0000 Du        
    713 ****        41.0000  32.0000  32.2500 Du        
    714 ****        41.0000  32.0000  32.5000 Du        
    715 ****        41.0000  32.0000  32.7500 Du        
    716 ****        41.0000  32.0000  33.0000 Du        
    717 ****        41.0000  32.0000  33.2500 Du        
    718 ****        41.0000  32.2500  29.5000 Du        
    719 ****        41.0000  32.2500  29.7500 Du        
    720 ****        41.0000  32.2500  30.0000 Du        
    721 ****        41.0000  32.2500  30.2500 Du        
    722 ****        41.0000  32.2500  30.5000 Du        
    723 ****        41.0000  32.2500  30.7500 Du        
    724 ****        41.0000  32.2500  31.0000 Du        
    725 ****        41.0000  32.2500  31.2500 Du        
    726 ****        41.0000  32.2500  31.5000 Du        
    727 ****        41.0000  32.2500  31.7500 Du        
    728 ****        41.0000  32.2500  32.0000 Du        
    729 ****        41.0000  32.2500  32.2500 Du        
    730 ****        41.0000  32.2500  32.5000 Du        
    731 ****        41.0000  32.2500  32.7500 Du        
    732 ****        41.0000  32.2500  33.0000 Du        
    733 ****        41.0000  32.5000  29.5000 Du        
    734 ****        41.0000  32.5000  29.7500 Du        
    735 ****        41.0000  32.5000  30.0000 Du        
    736 ****        41.0000  32.5000  30.2500 Du        
    737 ****        41.0000  32.5000  30.5000 Du        
    738 ****        41.0000  32.5000  30.7500 Du        
    739 ****        41.0000  32.5000  31.0000 Du        
    740 ****        41.0000  32.5000  31.2500 Du        
    741 ****        41.0000  32.5000  31.5000 Du        
    742 ****        41.0000  32.5000  31.7500 Du        
    743 ****        41.0000  32.5000  32.0000 Du        
    744 ****        41.0000  32.5000  32.2500 Du        
    745 ****        41.0000  32.7500  30.0000 Du        
    746 ****        41.0000  32.7500  30.2500 Du        
    747 ****        41.0000  32.7500  30.5000 Du        
    748 ****        41.0000  32.7500  30.7500 Du        
    749 ****        41.0000  32.7500  31.0000 Du        
    750 ****        41.0000  32.7500  31.2500 Du        
    751 ****        41.0000  32.7500  31.5000 Du        
    752 ****        41.0000  32.7500  31.7500 Du        
    753 ****        41.0000  33.0000  30.7500 Du        
    754 ****        41.0000  33.0000  31.0000 Du        
    755 ****        41.2500  29.2500  32.7500 Du        
    756 ****        41.2500  29.2500  33.0000 Du        
    757 ****        41.2500  29.5000  32.5000 Du        
    758 ****        41.2500  29.5000  32.7500 Du        
    759 ****        41.2500  29.5000  33.0000 Du        
    760 ****        41.2500  29.5000  33.2500 Du        
    761 ****        41.2500  29.5000  33.5000 Du        
    762 ****        41.2500  29.7500  32.2500 Du        
    763 ****        41.2500  29.7500  32.5000 Du        
    764 ****        41.2500  29.7500  32.7500 Du        
    765 ****        41.2500  29.7500  33.0000 Du        
    766 ****        41.2500  29.7500  33.2500 Du        
    767 ****        41.2500  29.7500  33.5000 Du        
    768 ****        41.2500  29.7500  33.7500 Du        
    769 ****        41.2500  29.7500  34.0000 Du        
    770 ****        41.2500  30.0000  32.0000 Du        
    771 ****        41.2500  30.0000  32.2500 Du        
    772 ****        41.2500  30.0000  32.5000 Du        
    773 ****        41.2500  30.0000  32.7500 Du        
    774 ****        41.2500  30.0000  33.0000 Du        
    775 ****        41.2500  30.0000  33.2500 Du        
    776 ****        41.2500  30.0000  33.5000 Du        
    777 ****        41.2500  30.0000  33.7500 Du        
    778 ****        41.2500  30.0000  34.0000 Du        
    779 ****        41.2500  30.2500  31.7500 Du        
    780 ****        41.2500  30.2500  32.0000 Du        
    781 ****        41.2500  30.2500  32.2500 Du        
    782 ****        41.2500  30.2500  32.5000 Du        
    783 ****        41.2500  30.2500  32.7500 Du        
    784 ****        41.2500  30.2500  33.0000 Du        
    785 ****        41.2500  30.2500  33.2500 Du        
    786 ****        41.2500  30.2500  33.5000 Du        
    787 ****        41.2500  30.2500  33.7500 Du        
    788 ****        41.2500  30.2500  34.0000 Du        
    789 ****        41.2500  30.2500  34.2500 Du        
    790 ****        41.2500  30.5000  31.2500 Du        
    791 ****        41.2500  30.5000  31.5000 Du        
    792 ****        41.2500  30.5000  31.7500 Du        
    793 ****        41.2500  30.5000  32.0000 Du        
    794 ****        41.2500  30.5000  32.2500 Du        
    795 ****        41.2500  30.5000  32.5000 Du        
    796 ****        41.2500  30.5000  32.7500 Du        
    797 ****        41.2500  30.5000  33.0000 Du        
    798 ****        41.2500  30.5000  33.2500 Du        
    799 ****        41.2500  30.5000  33.5000 Du        
    800 ****        41.2500  30.5000  33.7500 Du        
    801 ****        41.2500  30.5000  34.0000 Du        
    802 ****        41.2500  30.5000  34.2500 Du        
    803 ****        41.2500  30.7500  30.7500 Du        
    804 ****        41.2500  30.7500  31.0000 Du        
    805 ****        41.2500  30.7500  31.2500 Du        
    806 ****        41.2500  30.7500  31.5000 Du        
    807 ****        41.2500  30.7500  31.7500 Du        
    808 ****        41.2500  30.7500  32.0000 Du        
    809 ****        41.2500  30.7500  32.2500 Du        
    810 ****        41.2500  30.7500  32.5000 Du        
    811 ****        41.2500  30.7500  32.7500 Du        
    812 ****        41.2500  30.7500  33.0000 Du        
    813 ****        41.2500  30.7500  33.2500 Du        
    814 ****        41.2500  30.7500  33.5000 Du        
    815 ****        41.2500  30.7500  33.7500 Du        
    816 ****        41.2500  30.7500  34.0000 Du        
    817 ****        41.2500  30.7500  34.2500 Du        
    818 ****        41.2500  31.0000  30.2500 Du        
    819 ****        41.2500  31.0000  30.5000 Du        
    820 ****        41.2500  31.0000  30.7500 Du        
    821 ****        41.2500  31.0000  31.0000 Du        
    822 ****        41.2500  31.0000  31.2500 Du        
    823 ****        41.2500  31.0000  31.5000 Du        
    824 ****        41.2500  31.0000  31.7500 Du        
    825 ****        41.2500  31.0000  32.0000 Du        
    826 ****        41.2500  31.0000  32.2500 Du        
    827 ****        41.2500  31.0000  32.5000 Du        
    828 ****        41.2500  31.0000  32.7500 Du        
    829 ****        41.2500  31.0000  33.0000 Du        
    830 ****        41.2500  31.0000  33.2500 Du        
    831 ****        41.2500  31.0000  33.5000 Du        
    832 ****        41.2500  31.0000  33.7500 Du        
    833 ****        41.2500  31.0000  34.0000 Du        
    834 ****        41.2500  31.2500  30.0000 Du        
    835 ****        41.2500  31.2500  30.2500 Du        
    836 ****        41.2500  31.2500  30.5000 Du        
    837 ****        41.2500  31.2500  30.7500 Du        
    838 ****        41.2500  31.2500  31.0000 Du        
    839 ****        41.2500  31.2500  31.2500 Du        
    840 ****        41.2500  31.2500  31.5000 Du        
    841 ****        41.2500  31.2500  31.7500 Du        
    842 ****        41.2500  31.2500  32.0000 Du        
    843 ****        41.2500  31.2500  32.2500 Du        
    844 ****        41.2500  31.2500  32.5000 Du        
    845 ****        41.2500  31.2500  32.7500 Du        
    846 ****        41.2500  31.2500  33.0000 Du        
    847 ****        41.2500  31.2500  33.2500 Du        
    848 ****        41.2500  31.2500  33.5000 Du        
    849 ****        41.2500  31.2500  33.7500 Du        
    850 ****        41.2500  31.5000  30.0000 Du        
    851 ****        41.2500  31.5000  30.2500 Du        
    852 ****        41.2500  31.5000  30.5000 Du        
    853 ****        41.2500  31.5000  30.7500 Du        
    854 ****        41.2500  31.5000  31.0000 Du        
    855 ****        41.2500  31.5000  31.2500 Du        
    856 ****        41.2500  31.5000  31.5000 Du        
    857 ****        41.2500  31.5000  31.7500 Du        
    858 ****        41.2500  31.5000  32.0000 Du        
    859 ****        41.2500  31.5000  32.2500 Du        
    860 ****        41.2500  31.5000  32.5000 Du        
    861 ****        41.2500  31.5000  32.7500 Du        
    862 ****        41.2500  31.5000  33.0000 Du        
    863 ****        41.2500  31.5000  33.2500 Du        
    864 ****        41.2500  31.5000  33.5000 Du        
    865 ****        41.2500  31.7500  29.7500 Du        
    866 ****        41.2500  31.7500  30.0000 Du        
    867 ****        41.2500  31.7500  30.2500 Du        
    868 ****        41.2500  31.7500  30.5000 Du        
    869 ****        41.2500  31.7500  30.7500 Du        
    870 ****        41.2500  31.7500  31.0000 Du        
    871 ****        41.2500  31.7500  31.2500 Du        
    872 ****        41.2500  31.7500  31.5000 Du        
    873 ****        41.2500  31.7500  31.7500 Du        
    874 ****        41.2500  31.7500  32.0000 Du        
    875 ****        41.2500  31.7500  32.2500 Du        
    876 ****        41.2500  31.7500  32.5000 Du        
    877 ****        41.2500  31.7500  32.7500 Du        
    878 ****        41.2500  31.7500  33.0000 Du        
    879 ****        41.2500  31.7500  33.2500 Du        
    880 ****        41.2500  31.7500  33.5000 Du        
    881 ****        41.2500  32.0000  29.5000 Du        
    882 ****        41.2500  32.0000  29.7500 Du        
    883 ****        41.2500  32.0000  30.0000 Du        
    884 ****        41.2500  32.0000  30.2500 Du        
    885 ****        41.2500  32.0000  30.5000 Du        
    886 ****        41.2500  32.0000  30.7500 Du        
    887 ****        41.2500  32.0000  31.0000 Du        
    888 ****        41.2500  32.0000  31.2500 Du        
    889 ****        41.2500  32.0000  31.5000 Du        
    890 ****        41.2500  32.0000  31.7500 Du        
    891 ****        41.2500  32.0000  32.0000 Du        
    892 ****        41.2500  32.0000  32.2500 Du        
    893 ****        41.2500  32.0000  32.5000 Du        
    894 ****        41.2500  32.0000  32.7500 Du        
    895 ****        41.2500  32.0000  33.0000 Du        
    896 ****        41.2500  32.0000  33.2500 Du        
    897 ****        41.2500  32.2500  29.5000 Du        
    898 ****        41.2500  32.2500  29.7500 Du        
    899 ****        41.2500  32.2500  30.0000 Du        
    900 ****        41.2500  32.2500  30.2500 Du        
    901 ****        41.2500  32.2500  30.5000 Du        
    902 ****        41.2500  32.2500  30.7500 Du        
    903 ****        41.2500  32.2500  31.0000 Du        
    904 ****        41.2500  32.2500  31.2500 Du        
    905 ****        41.2500  32.2500  31.5000 Du        
    906 ****        41.2500  32.2500  31.7500 Du        
    907 ****        41.2500  32.2500  32.0000 Du        
    908 ****        41.2500  32.2500  32.2500 Du        
    909 ****        41.2500  32.2500  32.5000 Du        
    910 ****        41.2500  32.2500  32.7500 Du        
    911 ****        41.2500  32.2500  33.0000 Du        
    912 ****        41.2500  32.2500  33.2500 Du        
    913 ****        41.2500  32.5000  29.7500 Du        
    914 ****        41.2500  32.5000  30.0000 Du        
    915 ****        41.2500  32.5000  30.2500 Du        
    916 ****        41.2500  32.5000  30.5000 Du        
    917 ****        41.2500  32.5000  30.7500 Du        
    918 ****        41.2500  32.5000  31.0000 Du        
    919 ****        41.2500  32.5000  31.2500 Du        
    920 ****        41.2500  32.5000  31.5000 Du        
    921 ****        41.2500  32.5000  31.7500 Du        
    922 ****        41.2500  32.5000  32.0000 Du        
    923 ****        41.2500  32.5000  32.2500 Du        
    924 ****        41.2500  32.5000  32.5000 Du        
    925 ****        41.2500  32.5000  32.7500 Du        
    926 ****        41.2500  32.5000  33.0000 Du        
    927 ****        41.2500  32.7500  30.2500 Du        
    928 ****        41.2500  32.7500  30.5000 Du        
    929 ****        41.2500  32.7500  30.7500 Du        
    930 ****        41.2500  32.7500  31.0000 Du        
    931 ****        41.2500  32.7500  31.2500 Du        
    932 ****        41.2500  32.7500  31.5000 Du        
    933 ****        41.2500  32.7500  31.7500 Du        
    934 ****        41.2500  32.7500  32.0000 Du        
    935 ****        41.2500  32.7500  32.2500 Du        
    936 ****        41.2500  33.0000  30.7500 Du        
    937 ****        41.2500  33.0000  31.0000 Du        
    938 ****        41.2500  33.0000  31.2500 Du        
    939 ****        41.5000  29.7500  32.2500 Du        
    940 ****        41.5000  29.7500  32.5000 Du        
    941 ****        41.5000  29.7500  32.7500 Du        
    942 ****        41.5000  29.7500  33.0000 Du        
    943 ****        41.5000  29.7500  33.2500 Du        
    944 ****        41.5000  30.0000  31.7500 Du        
    945 ****        41.5000  30.0000  32.0000 Du        
    946 ****        41.5000  30.0000  32.2500 Du        
    947 ****        41.5000  30.0000  32.5000 Du        
    948 ****        41.5000  30.0000  32.7500 Du        
    949 ****        41.5000  30.0000  33.0000 Du        
    950 ****        41.5000  30.0000  33.2500 Du        
    951 ****        41.5000  30.0000  33.5000 Du        
    952 ****        41.5000  30.0000  33.7500 Du        
    953 ****        41.5000  30.2500  31.5000 Du        
    954 ****        41.5000  30.2500  31.7500 Du        
    955 ****        41.5000  30.2500  32.0000 Du        
    956 ****        41.5000  30.2500  32.2500 Du        
    957 ****        41.5000  30.2500  32.5000 Du        
    958 ****        41.5000  30.2500  32.7500 Du        
    959 ****        41.5000  30.2500  33.0000 Du        
    960 ****        41.5000  30.2500  33.2500 Du        
    961 ****        41.5000  30.2500  33.5000 Du        
    962 ****        41.5000  30.2500  33.7500 Du        
    963 ****        41.5000  30.2500  34.0000 Du        
    964 ****        41.5000  30.5000  31.2500 Du        
    965 ****        41.5000  30.5000  31.5000 Du        
    966 ****        41.5000  30.5000  31.7500 Du        
    967 ****        41.5000  30.5000  32.0000 Du        
    968 ****        41.5000  30.5000  32.2500 Du        
    969 ****        41.5000  30.5000  32.5000 Du        
    970 ****        41.5000  30.5000  32.7500 Du        
    971 ****        41.5000  30.5000  33.0000 Du        
    972 ****        41.5000  30.5000  33.2500 Du        
    973 ****        41.5000  30.5000  33.5000 Du        
    974 ****        41.5000  30.5000  33.7500 Du        
    975 ****        41.5000  30.5000  34.0000 Du        
    976 ****        41.5000  30.7500  31.0000 Du        
    977 ****        41.5000  30.7500  31.2500 Du        
    978 ****        41.5000  30.7500  31.5000 Du        
    979 ****        41.5000  30.7500  31.7500 Du        
    980 ****        41.5000  30.7500  32.0000 Du        
    981 ****        41.5000  30.7500  32.2500 Du        
    982 ****        41.5000  30.7500  32.5000 Du        
    983 ****        41.5000  30.7500  32.7500 Du        
    984 ****        41.5000  30.7500  33.0000 Du        
    985 ****        41.5000  30.7500  33.2500 Du        
    986 ****        41.5000  30.7500  33.5000 Du        
    987 ****        41.5000  30.7500  33.7500 Du        
    988 ****        41.5000  30.7500  34.0000 Du        
    989 ****        41.5000  31.0000  30.2500 Du        
    990 ****        41.5000  31.0000  30.7500 Du        
    991 ****        41.5000  31.0000  31.0000 Du        
    992 ****        41.5000  31.0000  31.2500 Du        
    993 ****        41.5000  31.0000  31.5000 Du        
    994 ****        41.5000  31.0000  31.7500 Du        
    995 ****        41.5000  31.0000  32.0000 Du        
    996 ****        41.5000  31.0000  32.2500 Du        
    997 ****        41.5000  31.0000  32.5000 Du        
    998 ****        41.5000  31.0000  32.7500 Du        
    999 ****        41.5000  31.0000  33.0000 Du        
   1000 ****        41.5000  31.0000  33.2500 Du        
   1001 ****        41.5000  31.0000  33.5000 Du        
   1002 ****        41.5000  31.0000  33.7500 Du        
   1003 ****        41.5000  31.0000  34.0000 Du        
   1004 ****        41.5000  31.2500  30.0000 Du        
   1005 ****        41.5000  31.2500  30.2500 Du        
   1006 ****        41.5000  31.2500  30.5000 Du        
   1007 ****        41.5000  31.2500  30.7500 Du        
   1008 ****        41.5000  31.2500  31.0000 Du        
   1009 ****        41.5000  31.2500  31.2500 Du        
   1010 ****        41.5000  31.2500  31.5000 Du        
   1011 ****        41.5000  31.2500  31.7500 Du        
   1012 ****        41.5000  31.2500  32.0000 Du        
   1013 ****        41.5000  31.2500  32.2500 Du        
   1014 ****        41.5000  31.2500  32.5000 Du        
   1015 ****        41.5000  31.2500  32.7500 Du        
   1016 ****        41.5000  31.2500  33.0000 Du        
   1017 ****        41.5000  31.2500  33.2500 Du        
   1018 ****        41.5000  31.2500  33.5000 Du        
   1019 ****        41.5000  31.2500  33.7500 Du        
   1020 ****        41.5000  31.2500  34.0000 Du        
   1021 ****        41.5000  31.5000  30.0000 Du        
   1022 ****        41.5000  31.5000  30.2500 Du        
   1023 ****        41.5000  31.5000  30.5000 Du        
   1024 ****        41.5000  31.5000  30.7500 Du        
   1025 ****        41.5000  31.5000  31.0000 Du        
   1026 ****        41.5000  31.5000  31.2500 Du        
   1027 ****        41.5000  31.5000  31.5000 Du        
   1028 ****        41.5000  31.5000  31.7500 Du        
   1029 ****        41.5000  31.5000  32.0000 Du        
   1030 ****        41.5000  31.5000  32.2500 Du        
   1031 ****        41.5000  31.5000  32.5000 Du        
   1032 ****        41.5000  31.5000  32.7500 Du        
   1033 ****        41.5000  31.5000  33.0000 Du        
   1034 ****        41.5000  31.5000  33.2500 Du        
   1035 ****        41.5000  31.5000  33.5000 Du        
   1036 ****        41.5000  31.5000  33.7500 Du        
   1037 ****        41.5000  31.7500  29.7500 Du        
   1038 ****        41.5000  31.7500  30.0000 Du        
   1039 ****        41.5000  31.7500  30.2500 Du        
   1040 ****        41.5000  31.7500  30.5000 Du        
   1041 ****        41.5000  31.7500  30.7500 Du        
   1042 ****        41.5000  31.7500  31.0000 Du        
   1043 ****        41.5000  31.7500  31.2500 Du        
   1044 ****        41.5000  31.7500  31.5000 Du        
   1045 ****        41.5000  31.7500  31.7500 Du        
   1046 ****        41.5000  31.7500  32.0000 Du        
   1047 ****        41.5000  31.7500  32.2500 Du        
   1048 ****        41.5000  31.7500  32.5000 Du        
   1049 ****        41.5000  31.7500  32.7500 Du        
   1050 ****        41.5000  31.7500  33.0000 Du        
   1051 ****        41.5000  31.7500  33.2500 Du        
   1052 ****        41.5000  31.7500  33.5000 Du        
   1053 ****        41.5000  32.0000  29.7500 Du        
   1054 ****        41.5000  32.0000  30.0000 Du        
   1055 ****        41.5000  32.0000  30.2500 Du        
   1056 ****        41.5000  32.0000  30.5000 Du        
   1057 ****        41.5000  32.0000  30.7500 Du        
   1058 ****        41.5000  32.0000  31.0000 Du        
   1059 ****        41.5000  32.0000  31.2500 Du        
   1060 ****        41.5000  32.0000  31.5000 Du        
   1061 ****        41.5000  32.0000  31.7500 Du        
   1062 ****        41.5000  32.0000  32.0000 Du        
   1063 ****        41.5000  32.0000  32.2500 Du        
   1064 ****        41.5000  32.0000  32.5000 Du        
   1065 ****        41.5000  32.0000  32.7500 Du        
   1066 ****        41.5000  32.0000  33.0000 Du        
   1067 ****        41.5000  32.0000  33.2500 Du        
   1068 ****        41.5000  32.0000  33.5000 Du        
   1069 ****        41.5000  32.2500  29.7500 Du        
   1070 ****        41.5000  32.2500  30.0000 Du        
   1071 ****        41.5000  32.2500  30.2500 Du        
   1072 ****        41.5000  32.2500  30.5000 Du        
   1073 ****        41.5000  32.2500  30.7500 Du        
   1074 ****        41.5000  32.2500  31.0000 Du        
   1075 ****        41.5000  32.2500  31.2500 Du        
   1076 ****        41.5000  32.2500  31.5000 Du        
   1077 ****        41.5000  32.2500  31.7500 Du        
   1078 ****        41.5000  32.2500  32.0000 Du        
   1079 ****        41.5000  32.2500  32.2500 Du        
   1080 ****        41.5000  32.2500  32.5000 Du        
   1081 ****        41.5000  32.2500  32.7500 Du        
   1082 ****        41.5000  32.2500  33.0000 Du        
   1083 ****        41.5000  32.2500  33.2500 Du        
   1084 ****        41.5000  32.5000  30.0000 Du        
   1085 ****        41.5000  32.5000  30.2500 Du        
   1086 ****        41.5000  32.5000  30.5000 Du        
   1087 ****        41.5000  32.5000  30.7500 Du        
   1088 ****        41.5000  32.5000  31.0000 Du        
   1089 ****        41.5000  32.5000  31.2500 Du        
   1090 ****        41.5000  32.5000  31.5000 Du        
   1091 ****        41.5000  32.5000  31.7500 Du        
   1092 ****        41.5000  32.5000  32.0000 Du        
   1093 ****        41.5000  32.5000  32.2500 Du        
   1094 ****        41.5000  32.5000  32.5000 Du        
   1095 ****        41.5000  32.5000  32.7500 Du        
   1096 ****        41.5000  32.5000  33.0000 Du        
   1097 ****        41.5000  32.7500  30.2500 Du        
   1098 ****        41.5000  32.7500  30.5000 Du        
   1099 ****        41.5000  32.7500  30.7500 Du        
   1100 ****        41.5000  32.7500  31.0000 Du        
   1101 ****        41.5000  32.7500  31.2500 Du        
   1102 ****        41.5000  32.7500  31.5000 Du        
   1103 ****        41.5000  32.7500  31.7500 Du        
   1104 ****        41.5000  32.7500  32.0000 Du        
   1105 ****        41.5000  32.7500  32.2500 Du        
   1106 ****        41.5000  32.7500  32.5000 Du        
   1107 ****        41.5000  32.7500  32.7500 Du        
   1108 ****        41.5000  32.7500  33.0000 Du        
   1109 ****        41.5000  33.0000  31.0000 Du        
   1110 ****        41.5000  33.0000  31.2500 Du        
   1111 ****        41.5000  33.0000  31.7500 Du        
   1112 ****        41.5000  33.0000  32.0000 Du        
   1113 ****        41.5000  33.0000  32.2500 Du        
   1114 ****        41.7500  29.7500  32.0000 Du        
   1115 ****        41.7500  29.7500  32.2500 Du        
   1116 ****        41.7500  29.7500  32.5000 Du        
   1117 ****        41.7500  29.7500  32.7500 Du        
   1118 ****        41.7500  30.0000  31.7500 Du        
   1119 ****        41.7500  30.0000  32.0000 Du        
   1120 ****        41.7500  30.0000  32.2500 Du        
   1121 ****        41.7500  30.0000  32.5000 Du        
   1122 ****        41.7500  30.0000  32.7500 Du        
   1123 ****        41.7500  30.0000  33.0000 Du        
   1124 ****        41.7500  30.0000  33.2500 Du        
   1125 ****        41.7500  30.2500  31.5000 Du        
   1126 ****        41.7500  30.2500  31.7500 Du        
   1127 ****        41.7500  30.2500  32.0000 Du        
   1128 ****        41.7500  30.2500  32.2500 Du        
   1129 ****        41.7500  30.2500  32.5000 Du        
   1130 ****        41.7500  30.2500  32.7500 Du        
   1131 ****        41.7500  30.2500  33.0000 Du        
   1132 ****        41.7500  30.2500  33.2500 Du        
   1133 ****        41.7500  30.2500  33.5000 Du        
   1134 ****        41.7500  30.2500  33.7500 Du        
   1135 ****        41.7500  30.5000  31.2500 Du        
   1136 ****        41.7500  30.5000  31.5000 Du        
   1137 ****        41.7500  30.5000  31.7500 Du        
   1138 ****        41.7500  30.5000  32.0000 Du        
   1139 ****        41.7500  30.5000  32.2500 Du        
   1140 ****        41.7500  30.5000  32.5000 Du        
   1141 ****        41.7500  30.5000  32.7500 Du        
   1142 ****        41.7500  30.5000  33.0000 Du        
   1143 ****        41.7500  30.5000  33.2500 Du        
   1144 ****        41.7500  30.5000  33.5000 Du        
   1145 ****        41.7500  30.5000  33.7500 Du        
   1146 ****        41.7500  30.5000  34.0000 Du        
   1147 ****        41.7500  30.7500  30.7500 Du        
   1148 ****        41.7500  30.7500  31.0000 Du        
   1149 ****        41.7500  30.7500  31.2500 Du        
   1150 ****        41.7500  30.7500  31.5000 Du        
   1151 ****        41.7500  30.7500  31.7500 Du        
   1152 ****        41.7500  30.7500  32.0000 Du        
   1153 ****        41.7500  30.7500  32.2500 Du        
   1154 ****        41.7500  30.7500  32.5000 Du        
   1155 ****        41.7500  30.7500  32.7500 Du        
   1156 ****        41.7500  30.7500  33.0000 Du        
   1157 ****        41.7500  30.7500  33.2500 Du        
   1158 ****        41.7500  30.7500  33.5000 Du        
   1159 ****        41.7500  30.7500  33.7500 Du        
   1160 ****        41.7500  30.7500  34.0000 Du        
   1161 ****        41.7500  31.0000  30.2500 Du        
   1162 ****        41.7500  31.0000  30.5000 Du        
   1163 ****        41.7500  31.0000  30.7500 Du        
   1164 ****        41.7500  31.0000  31.0000 Du        
   1165 ****        41.7500  31.0000  31.2500 Du        
   1166 ****        41.7500  31.0000  31.5000 Du        
   1167 ****        41.7500  31.0000  31.7500 Du        
   1168 ****        41.7500  31.0000  32.0000 Du        
   1169 ****        41.7500  31.0000  32.2500 Du        
   1170 ****        41.7500  31.0000  32.5000 Du        
   1171 ****        41.7500  31.0000  32.7500 Du        
   1172 ****        41.7500  31.0000  33.0000 Du        
   1173 ****        41.7500  31.0000  33.2500 Du        
   1174 ****        41.7500  31.0000  33.5000 Du        
   1175 ****        41.7500  31.0000  33.7500 Du        
   1176 ****        41.7500  31.0000  34.0000 Du        
   1177 ****        41.7500  31.2500  30.0000 Du        
   1178 ****        41.7500  31.2500  30.2500 Du        
   1179 ****        41.7500  31.2500  30.5000 Du        
   1180 ****        41.7500  31.2500  30.7500 Du        
   1181 ****        41.7500  31.2500  31.0000 Du        
   1182 ****        41.7500  31.2500  31.2500 Du        
   1183 ****        41.7500  31.2500  31.5000 Du        
   1184 ****        41.7500  31.2500  31.7500 Du        
   1185 ****        41.7500  31.2500  32.0000 Du        
   1186 ****        41.7500  31.2500  32.2500 Du        
   1187 ****        41.7500  31.2500  32.5000 Du        
   1188 ****        41.7500  31.2500  32.7500 Du        
   1189 ****        41.7500  31.2500  33.0000 Du        
   1190 ****        41.7500  31.2500  33.2500 Du        
   1191 ****        41.7500  31.2500  33.5000 Du        
   1192 ****        41.7500  31.2500  33.7500 Du        
   1193 ****        41.7500  31.2500  34.0000 Du        
   1194 ****        41.7500  31.5000  30.0000 Du        
   1195 ****        41.7500  31.5000  30.2500 Du        
   1196 ****        41.7500  31.5000  30.5000 Du        
   1197 ****        41.7500  31.5000  30.7500 Du        
   1198 ****        41.7500  31.5000  31.0000 Du        
   1199 ****        41.7500  31.5000  31.2500 Du        
   1200 ****        41.7500  31.5000  31.5000 Du        
   1201 ****        41.7500  31.5000  31.7500 Du        
   1202 ****        41.7500  31.5000  32.0000 Du        
   1203 ****        41.7500  31.5000  32.2500 Du        
   1204 ****        41.7500  31.5000  32.5000 Du        
   1205 ****        41.7500  31.5000  32.7500 Du        
   1206 ****        41.7500  31.5000  33.0000 Du        
   1207 ****        41.7500  31.5000  33.2500 Du        
   1208 ****        41.7500  31.5000  33.5000 Du        
   1209 ****        41.7500  31.5000  33.7500 Du        
   1210 ****        41.7500  31.7500  29.7500 Du        
   1211 ****        41.7500  31.7500  30.0000 Du        
   1212 ****        41.7500  31.7500  30.2500 Du        
   1213 ****        41.7500  31.7500  30.5000 Du        
   1214 ****        41.7500  31.7500  30.7500 Du        
   1215 ****        41.7500  31.7500  31.0000 Du        
   1216 ****        41.7500  31.7500  31.2500 Du        
   1217 ****        41.7500  31.7500  31.5000 Du        
   1218 ****        41.7500  31.7500  31.7500 Du        
   1219 ****        41.7500  31.7500  32.0000 Du        
   1220 ****        41.7500  31.7500  32.2500 Du        
   1221 ****        41.7500  31.7500  32.5000 Du        
   1222 ****        41.7500  31.7500  32.7500 Du        
   1223 ****        41.7500  31.7500  33.0000 Du        
   1224 ****        41.7500  31.7500  33.2500 Du        
   1225 ****        41.7500  31.7500  33.5000 Du        
   1226 ****        41.7500  31.7500  33.7500 Du        
   1227 ****        41.7500  32.0000  29.7500 Du        
   1228 ****        41.7500  32.0000  30.0000 Du        
   1229 ****        41.7500  32.0000  30.2500 Du        
   1230 ****        41.7500  32.0000  30.5000 Du        
   1231 ****        41.7500  32.0000  30.7500 Du        
   1232 ****        41.7500  32.0000  31.0000 Du        
   1233 ****        41.7500  32.0000  31.2500 Du        
   1234 ****        41.7500  32.0000  31.5000 Du        
   1235 ****        41.7500  32.0000  31.7500 Du        
   1236 ****        41.7500  32.0000  32.0000 Du        
   1237 ****        41.7500  32.0000  32.2500 Du        
   1238 ****        41.7500  32.0000  32.5000 Du        
   1239 ****        41.7500  32.0000  32.7500 Du        
   1240 ****        41.7500  32.0000  33.0000 Du        
   1241 ****        41.7500  32.0000  33.2500 Du        
   1242 ****        41.7500  32.0000  33.5000 Du        
   1243 ****        41.7500  32.2500  30.0000 Du        
   1244 ****        41.7500  32.2500  30.2500 Du        
   1245 ****        41.7500  32.2500  30.5000 Du        
   1246 ****        41.7500  32.2500  30.7500 Du        
   1247 ****        41.7500  32.2500  31.0000 Du        
   1248 ****        41.7500  32.2500  31.2500 Du        
   1249 ****        41.7500  32.2500  31.5000 Du        
   1250 ****        41.7500  32.2500  31.7500 Du        
   1251 ****        41.7500  32.2500  32.0000 Du        
   1252 ****        41.7500  32.2500  32.2500 Du        
   1253 ****        41.7500  32.2500  32.5000 Du        
   1254 ****        41.7500  32.2500  32.7500 Du        
   1255 ****        41.7500  32.2500  33.0000 Du        
   1256 ****        41.7500  32.2500  33.2500 Du        
   1257 ****        41.7500  32.2500  33.5000 Du        
   1258 ****        41.7500  32.5000  30.0000 Du        
   1259 ****        41.7500  32.5000  30.2500 Du        
   1260 ****        41.7500  32.5000  30.5000 Du        
   1261 ****        41.7500  32.5000  30.7500 Du        
   1262 ****        41.7500  32.5000  31.0000 Du        
   1263 ****        41.7500  32.5000  31.2500 Du        
   1264 ****        41.7500  32.5000  31.5000 Du        
   1265 ****        41.7500  32.5000  31.7500 Du        
   1266 ****        41.7500  32.5000  32.0000 Du        
   1267 ****        41.7500  32.5000  32.2500 Du        
   1268 ****        41.7500  32.5000  32.5000 Du        
   1269 ****        41.7500  32.5000  32.7500 Du        
   1270 ****        41.7500  32.5000  33.0000 Du        
   1271 ****        41.7500  32.5000  33.2500 Du        
   1272 ****        41.7500  32.7500  30.5000 Du        
   1273 ****        41.7500  32.7500  30.7500 Du        
   1274 ****        41.7500  32.7500  31.0000 Du        
   1275 ****        41.7500  32.7500  31.2500 Du        
   1276 ****        41.7500  32.7500  31.5000 Du        
   1277 ****        41.7500  32.7500  31.7500 Du        
   1278 ****        41.7500  32.7500  32.0000 Du        
   1279 ****        41.7500  32.7500  32.2500 Du        
   1280 ****        41.7500  32.7500  32.5000 Du        
   1281 ****        41.7500  32.7500  32.7500 Du        
   1282 ****        41.7500  32.7500  33.0000 Du        
   1283 ****        41.7500  32.7500  33.2500 Du        
   1284 ****        41.7500  33.0000  31.0000 Du        
   1285 ****        41.7500  33.0000  31.2500 Du        
   1286 ****        41.7500  33.0000  31.5000 Du        
   1287 ****        41.7500  33.0000  31.7500 Du        
   1288 ****        41.7500  33.0000  32.0000 Du        
   1289 ****        41.7500  33.0000  32.2500 Du        
   1290 ****        41.7500  33.0000  32.5000 Du        
   1291 ****        41.7500  33.0000  32.7500 Du        
   1292 ****        41.7500  33.0000  33.0000 Du        
   1293 ****        41.7500  33.2500  31.7500 Du        
   1294 ****        41.7500  33.2500  32.2500 Du        
   1295 ****        42.0000  29.7500  32.0000 Du        
   1296 ****        42.0000  29.7500  32.2500 Du        
   1297 ****        42.0000  30.0000  31.5000 Du        
   1298 ****        42.0000  30.0000  31.7500 Du        
   1299 ****        42.0000  30.0000  32.0000 Du        
   1300 ****        42.0000  30.0000  32.2500 Du        
   1301 ****        42.0000  30.0000  32.5000 Du        
   1302 ****        42.0000  30.0000  32.7500 Du        
   1303 ****        42.0000  30.0000  33.0000 Du        
   1304 ****        42.0000  30.2500  31.5000 Du        
   1305 ****        42.0000  30.2500  31.7500 Du        
   1306 ****        42.0000  30.2500  32.0000 Du        
   1307 ****        42.0000  30.2500  32.2500 Du        
   1308 ****        42.0000  30.2500  32.5000 Du        
   1309 ****        42.0000  30.2500  32.7500 Du        
   1310 ****        42.0000  30.2500  33.0000 Du        
   1311 ****        42.0000  30.2500  33.2500 Du        
   1312 ****        42.0000  30.2500  33.5000 Du        
   1313 ****        42.0000  30.5000  31.5000 Du        
   1314 ****        42.0000  30.5000  31.7500 Du        
   1315 ****        42.0000  30.5000  32.0000 Du        
   1316 ****        42.0000  30.5000  32.2500 Du        
   1317 ****        42.0000  30.5000  32.5000 Du        
   1318 ****        42.0000  30.5000  32.7500 Du        
   1319 ****        42.0000  30.5000  33.0000 Du        
   1320 ****        42.0000  30.5000  33.2500 Du        
   1321 ****        42.0000  30.5000  33.5000 Du        
   1322 ****        42.0000  30.5000  33.7500 Du        
   1323 ****        42.0000  30.7500  30.7500 Du        
   1324 ****        42.0000  30.7500  31.0000 Du        
   1325 ****        42.0000  30.7500  31.2500 Du        
   1326 ****        42.0000  30.7500  31.5000 Du        
   1327 ****        42.0000  30.7500  31.7500 Du        
   1328 ****        42.0000  30.7500  32.0000 Du        
   1329 ****        42.0000  30.7500  32.2500 Du        
   1330 ****        42.0000  30.7500  32.5000 Du        
   1331 ****        42.0000  30.7500  32.7500 Du        
   1332 ****        42.0000  30.7500  33.0000 Du        
   1333 ****        42.0000  30.7500  33.2500 Du        
   1334 ****        42.0000  30.7500  33.5000 Du        
   1335 ****        42.0000  30.7500  33.7500 Du        
   1336 ****        42.0000  31.0000  30.2500 Du        
   1337 ****        42.0000  31.0000  30.5000 Du        
   1338 ****        42.0000  31.0000  30.7500 Du        
   1339 ****        42.0000  31.0000  31.0000 Du        
   1340 ****        42.0000  31.0000  31.2500 Du        
   1341 ****        42.0000  31.0000  31.5000 Du        
   1342 ****        42.0000  31.0000  31.7500 Du        
   1343 ****        42.0000  31.0000  32.0000 Du        
   1344 ****        42.0000  31.0000  32.2500 Du        
   1345 ****        42.0000  31.0000  32.5000 Du        
   1346 ****        42.0000  31.0000  32.7500 Du        
   1347 ****        42.0000  31.0000  33.0000 Du        
   1348 ****        42.0000  31.0000  33.2500 Du        
   1349 ****        42.0000  31.0000  33.5000 Du        
   1350 ****        42.0000  31.0000  33.7500 Du        
   1351 ****        42.0000  31.2500  30.2500 Du        
   1352 ****        42.0000  31.2500  30.5000 Du        
   1353 ****        42.0000  31.2500  30.7500 Du        
   1354 ****        42.0000  31.2500  31.0000 Du        
   1355 ****        42.0000  31.2500  31.2500 Du        
   1356 ****        42.0000  31.2500  31.5000 Du        
   1357 ****        42.0000  31.2500  31.7500 Du        
   1358 ****        42.0000  31.2500  32.0000 Du        
   1359 ****        42.0000  31.2500  32.2500 Du        
   1360 ****        42.0000  31.2500  32.5000 Du        
   1361 ****        42.0000  31.2500  32.7500 Du        
   1362 ****        42.0000  31.2500  33.0000 Du        
   1363 ****        42.0000  31.2500  33.2500 Du        
   1364 ****        42.0000  31.2500  33.5000 Du        
   1365 ****        42.0000  31.2500  33.7500 Du        
   1366 ****        42.0000  31.5000  30.0000 Du        
   1367 ****        42.0000  31.5000  30.2500 Du        
   1368 ****        42.0000  31.5000  30.5000 Du        
   1369 ****        42.0000  31.5000  30.7500 Du        
   1370 ****        42.0000  31.5000  31.0000 Du        
   1371 ****        42.0000  31.5000  31.2500 Du        
   1372 ****        42.0000  31.5000  31.5000 Du        
   1373 ****        42.0000  31.5000  31.7500 Du        
   1374 ****        42.0000  31.5000  32.0000 Du        
   1375 ****        42.0000  31.5000  32.2500 Du        
   1376 ****        42.0000  31.5000  32.5000 Du        
   1377 ****        42.0000  31.5000  32.7500 Du        
   1378 ****        42.0000  31.5000  33.0000 Du        
   1379 ****        42.0000  31.5000  33.2500 Du        
   1380 ****        42.0000  31.5000  33.5000 Du        
   1381 ****        42.0000  31.5000  33.7500 Du        
   1382 ****        42.0000  31.7500  30.0000 Du        
   1383 ****        42.0000  31.7500  30.2500 Du        
   1384 ****        42.0000  31.7500  30.5000 Du        
   1385 ****        42.0000  31.7500  30.7500 Du        
   1386 ****        42.0000  31.7500  31.0000 Du        
   1387 ****        42.0000  31.7500  31.2500 Du        
   1388 ****        42.0000  31.7500  31.5000 Du        
   1389 ****        42.0000  31.7500  31.7500 Du        
   1390 ****        42.0000  31.7500  32.0000 Du        
   1391 ****        42.0000  31.7500  32.2500 Du        
   1392 ****        42.0000  31.7500  32.5000 Du        
   1393 ****        42.0000  31.7500  32.7500 Du        
   1394 ****        42.0000  31.7500  33.0000 Du        
   1395 ****        42.0000  31.7500  33.2500 Du        
   1396 ****        42.0000  31.7500  33.5000 Du        
   1397 ****        42.0000  32.0000  30.0000 Du        
   1398 ****        42.0000  32.0000  30.2500 Du        
   1399 ****        42.0000  32.0000  30.5000 Du        
   1400 ****        42.0000  32.0000  30.7500 Du        
   1401 ****        42.0000  32.0000  31.0000 Du        
   1402 ****        42.0000  32.0000  31.2500 Du        
   1403 ****        42.0000  32.0000  31.5000 Du        
   1404 ****        42.0000  32.0000  31.7500 Du        
   1405 ****        42.0000  32.0000  32.0000 Du        
   1406 ****        42.0000  32.0000  32.2500 Du        
   1407 ****        42.0000  32.0000  32.5000 Du        
   1408 ****        42.0000  32.0000  32.7500 Du        
   1409 ****        42.0000  32.0000  33.0000 Du        
   1410 ****        42.0000  32.0000  33.2500 Du        
   1411 ****        42.0000  32.0000  33.5000 Du        
   1412 ****        42.0000  32.2500  30.0000 Du        
   1413 ****        42.0000  32.2500  30.2500 Du        
   1414 ****        42.0000  32.2500  30.5000 Du        
   1415 ****        42.0000  32.2500  30.7500 Du        
   1416 ****        42.0000  32.2500  31.0000 Du        
   1417 ****        42.0000  32.2500  31.2500 Du        
   1418 ****        42.0000  32.2500  31.5000 Du        
   1419 ****        42.0000  32.2500  31.7500 Du        
   1420 ****        42.0000  32.2500  32.0000 Du        
   1421 ****        42.0000  32.2500  32.2500 Du        
   1422 ****        42.0000  32.2500  32.5000 Du        
   1423 ****        42.0000  32.2500  32.7500 Du        
   1424 ****        42.0000  32.2500  33.0000 Du        
   1425 ****        42.0000  32.2500  33.2500 Du        
   1426 ****        42.0000  32.2500  33.5000 Du        
   1427 ****        42.0000  32.5000  30.2500 Du        
   1428 ****        42.0000  32.5000  30.5000 Du        
   1429 ****        42.0000  32.5000  30.7500 Du        
   1430 ****        42.0000  32.5000  31.0000 Du        
   1431 ****        42.0000  32.5000  31.2500 Du        
   1432 ****        42.0000  32.5000  31.5000 Du        
   1433 ****        42.0000  32.5000  31.7500 Du        
   1434 ****        42.0000  32.5000  32.0000 Du        
   1435 ****        42.0000  32.5000  32.2500 Du        
   1436 ****        42.0000  32.5000  32.5000 Du        
   1437 ****        42.0000  32.5000  32.7500 Du        
   1438 ****        42.0000  32.5000  33.0000 Du        
   1439 ****        42.0000  32.5000  33.2500 Du        
   1440 ****        42.0000  32.7500  30.7500 Du        
   1441 ****        42.0000  32.7500  31.0000 Du        
   1442 ****        42.0000  32.7500  31.2500 Du        
   1443 ****        42.0000  32.7500  31.5000 Du        
   1444 ****        42.0000  32.7500  31.7500 Du        
   1445 ****        42.0000  32.7500  32.0000 Du        
   1446 ****        42.0000  32.7500  32.2500 Du        
   1447 ****        42.0000  32.7500  32.5000 Du        
   1448 ****        42.0000  32.7500  32.7500 Du        
   1449 ****        42.0000  32.7500  33.0000 Du        
   1450 ****        42.0000  32.7500  33.2500 Du        
   1451 ****        42.0000  33.0000  31.0000 Du        
   1452 ****        42.0000  33.0000  31.2500 Du        
   1453 ****        42.0000  33.0000  31.5000 Du        
   1454 ****        42.0000  33.0000  31.7500 Du        
   1455 ****        42.0000  33.0000  32.0000 Du        
   1456 ****        42.0000  33.0000  32.2500 Du        
   1457 ****        42.0000  33.0000  32.5000 Du        
   1458 ****        42.0000  33.0000  32.7500 Du        
   1459 ****        42.0000  33.0000  33.0000 Du        
   1460 ****        42.0000  33.0000  33.2500 Du        
   1461 ****        42.0000  33.2500  31.5000 Du        
   1462 ****        42.0000  33.2500  31.7500 Du        
   1463 ****        42.0000  33.2500  32.0000 Du        
   1464 ****        42.0000  33.2500  32.2500 Du        
   1465 ****        42.0000  33.2500  32.5000 Du        
   1466 ****        42.0000  33.2500  32.7500 Du        
   1467 ****        42.0000  33.2500  33.0000 Du        
   1468 ****        42.0000  33.5000  32.0000 Du        
   1469 ****        42.0000  33.5000  32.2500 Du        
   1470 ****        42.0000  33.5000  32.5000 Du        
   1471 ****        42.0000  33.5000  32.7500 Du        
   1472 ****        42.2500  30.0000  31.5000 Du        
   1473 ****        42.2500  30.0000  31.7500 Du        
   1474 ****        42.2500  30.0000  32.0000 Du        
   1475 ****        42.2500  30.0000  32.2500 Du        
   1476 ****        42.2500  30.2500  31.7500 Du        
   1477 ****        42.2500  30.2500  32.0000 Du        
   1478 ****        42.2500  30.2500  32.2500 Du        
   1479 ****        42.2500  30.2500  32.5000 Du        
   1480 ****        42.2500  30.2500  32.7500 Du        
   1481 ****        42.2500  30.2500  33.0000 Du        
   1482 ****        42.2500  30.5000  31.5000 Du        
   1483 ****        42.2500  30.5000  31.7500 Du        
   1484 ****        42.2500  30.5000  32.0000 Du        
   1485 ****        42.2500  30.5000  32.2500 Du        
   1486 ****        42.2500  30.5000  32.5000 Du        
   1487 ****        42.2500  30.5000  32.7500 Du        
   1488 ****        42.2500  30.5000  33.0000 Du        
   1489 ****        42.2500  30.5000  33.2500 Du        
   1490 ****        42.2500  30.7500  30.7500 Du        
   1491 ****        42.2500  30.7500  31.0000 Du        
   1492 ****        42.2500  30.7500  31.2500 Du        
   1493 ****        42.2500  30.7500  31.5000 Du        
   1494 ****        42.2500  30.7500  31.7500 Du        
   1495 ****        42.2500  30.7500  32.0000 Du        
   1496 ****        42.2500  30.7500  32.2500 Du        
   1497 ****        42.2500  30.7500  32.5000 Du        
   1498 ****        42.2500  30.7500  32.7500 Du        
   1499 ****        42.2500  30.7500  33.0000 Du        
   1500 ****        42.2500  30.7500  33.2500 Du        
   1501 ****        42.2500  30.7500  33.5000 Du        
   1502 ****        42.2500  31.0000  30.7500 Du        
   1503 ****        42.2500  31.0000  31.0000 Du        
   1504 ****        42.2500  31.0000  31.2500 Du        
   1505 ****        42.2500  31.0000  31.5000 Du        
   1506 ****        42.2500  31.0000  31.7500 Du        
   1507 ****        42.2500  31.0000  32.0000 Du        
   1508 ****        42.2500  31.0000  32.2500 Du        
   1509 ****        42.2500  31.0000  32.5000 Du        
   1510 ****        42.2500  31.0000  32.7500 Du        
   1511 ****        42.2500  31.0000  33.0000 Du        
   1512 ****        42.2500  31.0000  33.2500 Du        
   1513 ****        42.2500  31.0000  33.5000 Du        
   1514 ****        42.2500  31.0000  33.7500 Du        
   1515 ****        42.2500  31.2500  30.2500 Du        
   1516 ****        42.2500  31.2500  30.5000 Du        
   1517 ****        42.2500  31.2500  30.7500 Du        
   1518 ****        42.2500  31.2500  31.0000 Du        
   1519 ****        42.2500  31.2500  31.2500 Du        
   1520 ****        42.2500  31.2500  31.5000 Du        
   1521 ****        42.2500  31.2500  31.7500 Du        
   1522 ****        42.2500  31.2500  32.0000 Du        
   1523 ****        42.2500  31.2500  32.2500 Du        
   1524 ****        42.2500  31.2500  32.5000 Du        
   1525 ****        42.2500  31.2500  32.7500 Du        
   1526 ****        42.2500  31.2500  33.0000 Du        
   1527 ****        42.2500  31.2500  33.2500 Du        
   1528 ****        42.2500  31.2500  33.5000 Du        
   1529 ****        42.2500  31.5000  30.2500 Du        
   1530 ****        42.2500  31.5000  30.5000 Du        
   1531 ****        42.2500  31.5000  30.7500 Du        
   1532 ****        42.2500  31.5000  31.0000 Du        
   1533 ****        42.2500  31.5000  31.2500 Du        
   1534 ****        42.2500  31.5000  31.5000 Du        
   1535 ****        42.2500  31.5000  31.7500 Du        
   1536 ****        42.2500  31.5000  32.0000 Du        
   1537 ****        42.2500  31.5000  32.2500 Du        
   1538 ****        42.2500  31.5000  32.5000 Du        
   1539 ****        42.2500  31.5000  32.7500 Du        
   1540 ****        42.2500  31.5000  33.0000 Du        
   1541 ****        42.2500  31.5000  33.2500 Du        
   1542 ****        42.2500  31.5000  33.5000 Du        
   1543 ****        42.2500  31.7500  30.0000 Du        
   1544 ****        42.2500  31.7500  30.2500 Du        
   1545 ****        42.2500  31.7500  30.5000 Du        
   1546 ****        42.2500  31.7500  30.7500 Du        
   1547 ****        42.2500  31.7500  31.0000 Du        
   1548 ****        42.2500  31.7500  31.2500 Du        
   1549 ****        42.2500  31.7500  31.5000 Du        
   1550 ****        42.2500  31.7500  31.7500 Du        
   1551 ****        42.2500  31.7500  32.0000 Du        
   1552 ****        42.2500  31.7500  32.2500 Du        
   1553 ****        42.2500  31.7500  32.5000 Du        
   1554 ****        42.2500  31.7500  32.7500 Du        
   1555 ****        42.2500  31.7500  33.0000 Du        
   1556 ****        42.2500  31.7500  33.2500 Du        
   1557 ****        42.2500  31.7500  33.5000 Du        
   1558 ****        42.2500  32.0000  30.0000 Du        
   1559 ****        42.2500  32.0000  30.2500 Du        
   1560 ****        42.2500  32.0000  30.5000 Du        
   1561 ****        42.2500  32.0000  30.7500 Du        
   1562 ****        42.2500  32.0000  31.0000 Du        
   1563 ****        42.2500  32.0000  31.2500 Du        
   1564 ****        42.2500  32.0000  31.5000 Du        
   1565 ****        42.2500  32.0000  31.7500 Du        
   1566 ****        42.2500  32.0000  32.0000 Du        
   1567 ****        42.2500  32.0000  32.2500 Du        
   1568 ****        42.2500  32.0000  32.5000 Du        
   1569 ****        42.2500  32.0000  32.7500 Du        
   1570 ****        42.2500  32.0000  33.0000 Du        
   1571 ****        42.2500  32.0000  33.2500 Du        
   1572 ****        42.2500  32.2500  30.2500 Du        
   1573 ****        42.2500  32.2500  30.5000 Du        
   1574 ****        42.2500  32.2500  30.7500 Du        
   1575 ****        42.2500  32.2500  31.0000 Du        
   1576 ****        42.2500  32.2500  31.2500 Du        
   1577 ****        42.2500  32.2500  31.5000 Du        
   1578 ****        42.2500  32.2500  31.7500 Du        
   1579 ****        42.2500  32.2500  32.0000 Du        
   1580 ****        42.2500  32.2500  32.2500 Du        
   1581 ****        42.2500  32.2500  32.5000 Du        
   1582 ****        42.2500  32.2500  32.7500 Du        
   1583 ****        42.2500  32.2500  33.0000 Du        
   1584 ****        42.2500  32.2500  33.2500 Du        
   1585 ****        42.2500  32.5000  30.2500 Du        
   1586 ****        42.2500  32.5000  30.5000 Du        
   1587 ****        42.2500  32.5000  30.7500 Du        
   1588 ****        42.2500  32.5000  31.0000 Du        
   1589 ****        42.2500  32.5000  31.2500 Du        
   1590 ****        42.2500  32.5000  31.5000 Du        
   1591 ****        42.2500  32.5000  31.7500 Du        
   1592 ****        42.2500  32.5000  32.0000 Du        
   1593 ****        42.2500  32.5000  32.2500 Du        
   1594 ****        42.2500  32.5000  32.5000 Du        
   1595 ****        42.2500  32.5000  32.7500 Du        
   1596 ****        42.2500  32.5000  33.0000 Du        
   1597 ****        42.2500  32.5000  33.2500 Du        
   1598 ****        42.2500  32.7500  30.7500 Du        
   1599 ****        42.2500  32.7500  31.0000 Du        
   1600 ****        42.2500  32.7500  31.2500 Du        
   1601 ****        42.2500  32.7500  31.5000 Du        
   1602 ****        42.2500  32.7500  31.7500 Du        
   1603 ****        42.2500  32.7500  32.0000 Du        
   1604 ****        42.2500  32.7500  32.2500 Du        
   1605 ****        42.2500  32.7500  32.5000 Du        
   1606 ****        42.2500  32.7500  32.7500 Du        
   1607 ****        42.2500  32.7500  33.0000 Du        
   1608 ****        42.2500  32.7500  33.2500 Du        
   1609 ****        42.2500  33.0000  31.0000 Du        
   1610 ****        42.2500  33.0000  31.2500 Du        
   1611 ****        42.2500  33.0000  31.5000 Du        
   1612 ****        42.2500  33.0000  31.7500 Du        
   1613 ****        42.2500  33.0000  32.0000 Du        
   1614 ****        42.2500  33.0000  32.2500 Du        
   1615 ****        42.2500  33.0000  32.5000 Du        
   1616 ****        42.2500  33.0000  32.7500 Du        
   1617 ****        42.2500  33.0000  33.0000 Du        
   1618 ****        42.2500  33.0000  33.2500 Du        
   1619 ****        42.2500  33.2500  31.2500 Du        
   1620 ****        42.2500  33.2500  31.5000 Du        
   1621 ****        42.2500  33.2500  31.7500 Du        
   1622 ****        42.2500  33.2500  32.0000 Du        
   1623 ****        42.2500  33.2500  32.2500 Du        
   1624 ****        42.2500  33.2500  32.5000 Du        
   1625 ****        42.2500  33.2500  32.7500 Du        
   1626 ****        42.2500  33.2500  33.0000 Du        
   1627 ****        42.2500  33.5000  31.5000 Du        
   1628 ****        42.2500  33.5000  31.7500 Du        
   1629 ****        42.2500  33.5000  32.0000 Du        
   1630 ****        42.2500  33.5000  32.2500 Du        
   1631 ****        42.2500  33.5000  32.5000 Du        
   1632 ****        42.2500  33.5000  32.7500 Du        
   1633 ****        42.2500  33.5000  33.0000 Du        
   1634 ****        42.2500  33.7500  32.0000 Du        
   1635 ****        42.2500  33.7500  32.2500 Du        
   1636 ****        42.2500  33.7500  32.5000 Du        
   1637 ****        42.2500  33.7500  32.7500 Du        
   1638 ****        42.2500  33.7500  33.0000 Du        
   1639 ****        42.5000  30.5000  31.7500 Du        
   1640 ****        42.5000  30.5000  32.0000 Du        
   1641 ****        42.5000  30.5000  32.2500 Du        
   1642 ****        42.5000  30.5000  32.7500 Du        
   1643 ****        42.5000  30.7500  31.7500 Du        
   1644 ****        42.5000  30.7500  32.0000 Du        
   1645 ****        42.5000  30.7500  32.2500 Du        
   1646 ****        42.5000  30.7500  32.5000 Du        
   1647 ****        42.5000  30.7500  32.7500 Du        
   1648 ****        42.5000  30.7500  33.0000 Du        
   1649 ****        42.5000  30.7500  33.2500 Du        
   1650 ****        42.5000  31.0000  31.5000 Du        
   1651 ****        42.5000  31.0000  31.7500 Du        
   1652 ****        42.5000  31.0000  32.0000 Du        
   1653 ****        42.5000  31.0000  32.2500 Du        
   1654 ****        42.5000  31.0000  32.5000 Du        
   1655 ****        42.5000  31.0000  32.7500 Du        
   1656 ****        42.5000  31.0000  33.0000 Du        
   1657 ****        42.5000  31.0000  33.2500 Du        
   1658 ****        42.5000  31.2500  31.7500 Du        
   1659 ****        42.5000  31.2500  32.0000 Du        
   1660 ****        42.5000  31.2500  32.2500 Du        
   1661 ****        42.5000  31.2500  32.5000 Du        
   1662 ****        42.5000  31.2500  32.7500 Du        
   1663 ****        42.5000  31.2500  33.0000 Du        
   1664 ****        42.5000  31.2500  33.2500 Du        
   1665 ****        42.5000  31.5000  32.0000 Du        
   1666 ****        42.5000  31.5000  32.2500 Du        
   1667 ****        42.5000  31.5000  32.5000 Du        
   1668 ****        42.5000  31.5000  32.7500 Du        
   1669 ****        42.5000  31.5000  33.0000 Du        
   1670 ****        42.5000  31.7500  31.0000 Du        
   1671 ****        42.5000  31.7500  31.2500 Du        
   1672 ****        42.5000  31.7500  31.7500 Du        
   1673 ****        42.5000  31.7500  32.0000 Du        
   1674 ****        42.5000  31.7500  32.2500 Du        
   1675 ****        42.5000  31.7500  32.5000 Du        
   1676 ****        42.5000  31.7500  32.7500 Du        
   1677 ****        42.5000  31.7500  33.0000 Du        
   1678 ****        42.5000  32.0000  30.2500 Du        
   1679 ****        42.5000  32.0000  30.7500 Du        
   1680 ****        42.5000  32.0000  31.0000 Du        
   1681 ****        42.5000  32.0000  31.2500 Du        
   1682 ****        42.5000  32.0000  31.5000 Du        
   1683 ****        42.5000  32.0000  31.7500 Du        
   1684 ****        42.5000  32.0000  32.0000 Du        
   1685 ****        42.5000  32.0000  32.2500 Du        
   1686 ****        42.5000  32.0000  32.5000 Du        
   1687 ****        42.5000  32.0000  32.7500 Du        
   1688 ****        42.5000  32.0000  33.0000 Du        
   1689 ****        42.5000  32.2500  30.7500 Du        
   1690 ****        42.5000  32.2500  31.0000 Du        
   1691 ****        42.5000  32.2500  31.2500 Du        
   1692 ****        42.5000  32.2500  31.5000 Du        
   1693 ****        42.5000  32.2500  31.7500 Du        
   1694 ****        42.5000  32.2500  32.0000 Du        
   1695 ****        42.5000  32.2500  32.2500 Du        
   1696 ****        42.5000  32.2500  32.5000 Du        
   1697 ****        42.5000  32.2500  32.7500 Du        
   1698 ****        42.5000  32.2500  33.0000 Du        
   1699 ****        42.5000  32.5000  30.7500 Du        
   1700 ****        42.5000  32.5000  31.0000 Du        
   1701 ****        42.5000  32.5000  31.2500 Du        
   1702 ****        42.5000  32.5000  31.5000 Du        
   1703 ****        42.5000  32.5000  31.7500 Du        
   1704 ****        42.5000  32.5000  32.0000 Du        
   1705 ****        42.5000  32.5000  32.2500 Du        
   1706 ****        42.5000  32.5000  32.5000 Du        
   1707 ****        42.5000  32.5000  32.7500 Du        
   1708 ****        42.5000  32.5000  33.0000 Du        
   1709 ****        42.5000  32.7500  30.7500 Du        
   1710 ****        42.5000  32.7500  31.0000 Du        
   1711 ****        42.5000  32.7500  31.2500 Du        
   1712 ****        42.5000  32.7500  31.5000 Du        
   1713 ****        42.5000  32.7500  31.7500 Du        
   1714 ****        42.5000  32.7500  32.0000 Du        
   1715 ****        42.5000  32.7500  32.2500 Du        
   1716 ****        42.5000  32.7500  32.5000 Du        
   1717 ****        42.5000  32.7500  32.7500 Du        
   1718 ****        42.5000  32.7500  33.0000 Du        
   1719 ****        42.5000  33.0000  31.0000 Du        
   1720 ****        42.5000  33.0000  31.2500 Du        
   1721 ****        42.5000  33.0000  31.5000 Du        
   1722 ****        42.5000  33.0000  31.7500 Du        
   1723 ****        42.5000  33.0000  32.0000 Du        
   1724 ****        42.5000  33.0000  32.2500 Du        
   1725 ****        42.5000  33.0000  32.5000 Du        
   1726 ****        42.5000  33.0000  32.7500 Du        
   1727 ****        42.5000  33.0000  33.0000 Du        
   1728 ****        42.5000  33.2500  31.2500 Du        
   1729 ****        42.5000  33.2500  31.5000 Du        
   1730 ****        42.5000  33.2500  31.7500 Du        
   1731 ****        42.5000  33.2500  32.0000 Du        
   1732 ****        42.5000  33.2500  32.2500 Du        
   1733 ****        42.5000  33.2500  32.5000 Du        
   1734 ****        42.5000  33.2500  32.7500 Du        
   1735 ****        42.5000  33.2500  33.0000 Du        
   1736 ****        42.5000  33.5000  31.2500 Du        
   1737 ****        42.5000  33.5000  31.5000 Du        
   1738 ****        42.5000  33.5000  31.7500 Du        
   1739 ****        42.5000  33.5000  32.0000 Du        
   1740 ****        42.5000  33.5000  32.2500 Du        
   1741 ****        42.5000  33.5000  32.5000 Du        
   1742 ****        42.5000  33.5000  32.7500 Du        
   1743 ****        42.5000  33.5000  33.0000 Du        
   1744 ****        42.5000  33.7500  31.5000 Du        
   1745 ****        42.5000  33.7500  31.7500 Du        
   1746 ****        42.5000  33.7500  32.0000 Du        
   1747 ****        42.5000  33.7500  32.2500 Du        
   1748 ****        42.5000  33.7500  32.5000 Du        
   1749 ****        42.5000  33.7500  32.7500 Du        
   1750 ****        42.5000  33.7500  33.0000 Du        
   1751 ****        42.5000  34.0000  31.7500 Du        
   1752 ****        42.5000  34.0000  32.0000 Du        
   1753 ****        42.5000  34.0000  32.2500 Du        
   1754 ****        42.5000  34.0000  32.5000 Du        
   1755 ****        42.5000  34.0000  32.7500 Du        
   1756 ****        42.5000  34.0000  33.0000 Du        
   1757 ****        42.7500  30.7500  31.7500 Du        
   1758 ****        42.7500  30.7500  32.0000 Du        
   1759 ****        42.7500  30.7500  32.2500 Du        
   1760 ****        42.7500  30.7500  32.7500 Du        
   1761 ****        42.7500  30.7500  33.0000 Du        
   1762 ****        42.7500  31.0000  31.7500 Du        
   1763 ****        42.7500  31.0000  32.0000 Du        
   1764 ****        42.7500  31.0000  32.2500 Du        
   1765 ****        42.7500  31.0000  32.5000 Du        
   1766 ****        42.7500  31.0000  32.7500 Du        
   1767 ****        42.7500  31.0000  33.0000 Du        
   1768 ****        42.7500  31.2500  31.7500 Du        
   1769 ****        42.7500  31.2500  32.0000 Du        
   1770 ****        42.7500  31.2500  32.2500 Du        
   1771 ****        42.7500  31.2500  32.5000 Du        
   1772 ****        42.7500  31.2500  32.7500 Du        
   1773 ****        42.7500  31.2500  33.0000 Du        
   1774 ****        42.7500  31.5000  32.5000 Du        
   1775 ****        42.7500  31.5000  32.7500 Du        
   1776 ****        42.7500  31.7500  31.7500 Du        
   1777 ****        42.7500  31.7500  32.0000 Du        
   1778 ****        42.7500  31.7500  32.2500 Du        
   1779 ****        42.7500  31.7500  32.5000 Du        
   1780 ****        42.7500  31.7500  32.7500 Du        
   1781 ****        42.7500  32.0000  30.7500 Du        
   1782 ****        42.7500  32.0000  31.0000 Du        
   1783 ****        42.7500  32.0000  31.2500 Du        
   1784 ****        42.7500  32.0000  31.5000 Du        
   1785 ****        42.7500  32.0000  31.7500 Du        
   1786 ****        42.7500  32.0000  32.0000 Du        
   1787 ****        42.7500  32.0000  32.2500 Du        
   1788 ****        42.7500  32.0000  32.5000 Du        
   1789 ****        42.7500  32.0000  32.7500 Du        
   1790 ****        42.7500  32.2500  30.7500 Du        
   1791 ****        42.7500  32.2500  31.0000 Du        
   1792 ****        42.7500  32.2500  31.2500 Du        
   1793 ****        42.7500  32.2500  31.5000 Du        
   1794 ****        42.7500  32.2500  31.7500 Du        
   1795 ****        42.7500  32.2500  32.0000 Du        
   1796 ****        42.7500  32.2500  32.2500 Du        
   1797 ****        42.7500  32.2500  32.5000 Du        
   1798 ****        42.7500  32.2500  32.7500 Du        
   1799 ****        42.7500  32.5000  31.0000 Du        
   1800 ****        42.7500  32.5000  31.2500 Du        
   1801 ****        42.7500  32.5000  31.5000 Du        
   1802 ****        42.7500  32.5000  31.7500 Du        
   1803 ****        42.7500  32.5000  32.0000 Du        
   1804 ****        42.7500  32.5000  32.2500 Du        
   1805 ****        42.7500  32.5000  32.5000 Du        
   1806 ****        42.7500  32.5000  32.7500 Du        
   1807 ****        42.7500  32.7500  30.7500 Du        
   1808 ****        42.7500  32.7500  31.0000 Du        
   1809 ****        42.7500  32.7500  31.2500 Du        
   1810 ****        42.7500  32.7500  31.5000 Du        
   1811 ****        42.7500  32.7500  31.7500 Du        
   1812 ****        42.7500  32.7500  32.0000 Du        
   1813 ****        42.7500  32.7500  32.2500 Du        
   1814 ****        42.7500  32.7500  32.5000 Du        
   1815 ****        42.7500  32.7500  32.7500 Du        
   1816 ****        42.7500  33.0000  31.0000 Du        
   1817 ****        42.7500  33.0000  31.2500 Du        
   1818 ****        42.7500  33.0000  31.5000 Du        
   1819 ****        42.7500  33.0000  31.7500 Du        
   1820 ****        42.7500  33.0000  32.0000 Du        
   1821 ****        42.7500  33.0000  32.2500 Du        
   1822 ****        42.7500  33.0000  32.5000 Du        
   1823 ****        42.7500  33.0000  32.7500 Du        
   1824 ****        42.7500  33.2500  31.0000 Du        
   1825 ****        42.7500  33.2500  31.2500 Du        
   1826 ****        42.7500  33.2500  31.5000 Du        
   1827 ****        42.7500  33.2500  31.7500 Du        
   1828 ****        42.7500  33.2500  32.0000 Du        
   1829 ****        42.7500  33.2500  32.2500 Du        
   1830 ****        42.7500  33.2500  32.5000 Du        
   1831 ****        42.7500  33.2500  32.7500 Du        
   1832 ****        42.7500  33.2500  33.0000 Du        
   1833 ****        42.7500  33.5000  31.2500 Du        
   1834 ****        42.7500  33.5000  31.5000 Du        
   1835 ****        42.7500  33.5000  31.7500 Du        
   1836 ****        42.7500  33.5000  32.0000 Du        
   1837 ****        42.7500  33.5000  32.2500 Du        
   1838 ****        42.7500  33.5000  32.5000 Du        
   1839 ****        42.7500  33.5000  32.7500 Du        
   1840 ****        42.7500  33.5000  33.0000 Du        
   1841 ****        42.7500  33.7500  31.5000 Du        
   1842 ****        42.7500  33.7500  31.7500 Du        
   1843 ****        42.7500  33.7500  32.0000 Du        
   1844 ****        42.7500  33.7500  32.2500 Du        
   1845 ****        42.7500  33.7500  32.5000 Du        
   1846 ****        42.7500  33.7500  32.7500 Du        
   1847 ****        42.7500  33.7500  33.0000 Du        
   1848 ****        42.7500  34.0000  31.5000 Du        
   1849 ****        42.7500  34.0000  31.7500 Du        
   1850 ****        42.7500  34.0000  32.0000 Du        
   1851 ****        42.7500  34.0000  32.2500 Du        
   1852 ****        42.7500  34.0000  32.5000 Du        
   1853 ****        42.7500  34.0000  32.7500 Du        
   1854 ****        42.7500  34.0000  33.0000 Du        
   1855 ****        42.7500  34.2500  31.7500 Du        
   1856 ****        42.7500  34.2500  32.0000 Du        
   1857 ****        42.7500  34.2500  32.2500 Du        
   1858 ****        42.7500  34.2500  32.5000 Du        
   1859 ****        42.7500  34.2500  32.7500 Du        
   1860 ****        42.7500  34.2500  33.0000 Du        
   1861 ****        42.7500  34.5000  32.0000 Du        
   1862 ****        42.7500  34.5000  32.2500 Du        
   1863 ****        42.7500  34.5000  32.5000 Du        
   1864 ****        42.7500  34.5000  32.7500 Du        
   1865 ****        43.0000  30.7500  32.2500 Du        
   1866 ****        43.0000  31.0000  31.7500 Du        
   1867 ****        43.0000  31.0000  32.0000 Du        
   1868 ****        43.0000  31.0000  32.2500 Du        
   1869 ****        43.0000  31.0000  32.7500 Du        
   1870 ****        43.0000  31.2500  31.7500 Du        
   1871 ****        43.0000  31.2500  32.0000 Du        
   1872 ****        43.0000  31.2500  32.2500 Du        
   1873 ****        43.0000  31.2500  32.5000 Du        
   1874 ****        43.0000  32.0000  31.0000 Du        
   1875 ****        43.0000  32.0000  31.2500 Du        
   1876 ****        43.0000  32.0000  31.5000 Du        
   1877 ****        43.0000  32.0000  31.7500 Du        
   1878 ****        43.0000  32.0000  32.0000 Du        
   1879 ****        43.0000  32.0000  32.2500 Du        
   1880 ****        43.0000  32.0000  32.5000 Du        
   1881 ****        43.0000  32.2500  30.7500 Du        
   1882 ****        43.0000  32.2500  31.0000 Du        
   1883 ****        43.0000  32.2500  31.2500 Du        
   1884 ****        43.0000  32.2500  31.5000 Du        
   1885 ****        43.0000  32.2500  31.7500 Du        
   1886 ****        43.0000  32.2500  32.0000 Du        
   1887 ****        43.0000  32.2500  32.2500 Du        
   1888 ****        43.0000  32.2500  32.5000 Du        
   1889 ****        43.0000  32.5000  30.7500 Du        
   1890 ****        43.0000  32.5000  31.0000 Du        
   1891 ****        43.0000  32.5000  31.2500 Du        
   1892 ****        43.0000  32.5000  31.5000 Du        
   1893 ****        43.0000  32.5000  31.7500 Du        
   1894 ****        43.0000  32.5000  32.0000 Du        
   1895 ****        43.0000  32.5000  32.2500 Du        
   1896 ****        43.0000  32.5000  32.5000 Du        
   1897 ****        43.0000  32.7500  30.7500 Du        
   1898 ****        43.0000  32.7500  31.0000 Du        
   1899 ****        43.0000  32.7500  31.2500 Du        
   1900 ****        43.0000  32.7500  31.5000 Du        
   1901 ****        43.0000  32.7500  31.7500 Du        
   1902 ****        43.0000  32.7500  32.0000 Du        
   1903 ****        43.0000  32.7500  32.2500 Du        
   1904 ****        43.0000  32.7500  32.5000 Du        
   1905 ****        43.0000  33.0000  30.7500 Du        
   1906 ****        43.0000  33.0000  31.0000 Du        
   1907 ****        43.0000  33.0000  31.2500 Du        
   1908 ****        43.0000  33.0000  31.5000 Du        
   1909 ****        43.0000  33.0000  31.7500 Du        
   1910 ****        43.0000  33.0000  32.0000 Du        
   1911 ****        43.0000  33.0000  32.2500 Du        
   1912 ****        43.0000  33.0000  32.5000 Du        
   1913 ****        43.0000  33.0000  32.7500 Du        
   1914 ****        43.0000  33.2500  31.0000 Du        
   1915 ****        43.0000  33.2500  31.2500 Du        
   1916 ****        43.0000  33.2500  31.5000 Du        
   1917 ****        43.0000  33.2500  31.7500 Du        
   1918 ****        43.0000  33.2500  32.0000 Du        
   1919 ****        43.0000  33.2500  32.2500 Du        
   1920 ****        43.0000  33.2500  32.5000 Du        
   1921 ****        43.0000  33.2500  32.7500 Du        
   1922 ****        43.0000  33.5000  31.0000 Du        
   1923 ****        43.0000  33.5000  31.2500 Du        
   1924 ****        43.0000  33.5000  31.5000 Du        
   1925 ****        43.0000  33.5000  31.7500 Du        
   1926 ****        43.0000  33.5000  32.0000 Du        
   1927 ****        43.0000  33.5000  32.2500 Du        
   1928 ****        43.0000  33.5000  32.5000 Du        
   1929 ****        43.0000  33.5000  32.7500 Du        
   1930 ****        43.0000  33.7500  31.2500 Du        
   1931 ****        43.0000  33.7500  31.5000 Du        
   1932 ****        43.0000  33.7500  31.7500 Du        
   1933 ****        43.0000  33.7500  32.0000 Du        
   1934 ****        43.0000  33.7500  32.2500 Du        
   1935 ****        43.0000  33.7500  32.5000 Du        
   1936 ****        43.0000  33.7500  32.7500 Du        
   1937 ****        43.0000  33.7500  33.0000 Du        
   1938 ****        43.0000  34.0000  31.5000 Du        
   1939 ****        43.0000  34.0000  31.7500 Du        
   1940 ****        43.0000  34.0000  32.0000 Du        
   1941 ****        43.0000  34.0000  32.2500 Du        
   1942 ****        43.0000  34.0000  32.5000 Du        
   1943 ****        43.0000  34.0000  32.7500 Du        
   1944 ****        43.0000  34.0000  33.0000 Du        
   1945 ****        43.0000  34.2500  31.5000 Du        
   1946 ****        43.0000  34.2500  31.7500 Du        
   1947 ****        43.0000  34.2500  32.0000 Du        
   1948 ****        43.0000  34.2500  32.2500 Du        
   1949 ****        43.0000  34.2500  32.5000 Du        
   1950 ****        43.0000  34.2500  32.7500 Du        
   1951 ****        43.0000  34.5000  31.7500 Du        
   1952 ****        43.0000  34.5000  32.0000 Du        
   1953 ****        43.0000  34.5000  32.2500 Du        
   1954 ****        43.0000  34.5000  32.5000 Du        
   1955 ****        43.0000  34.5000  32.7500 Du        
   1956 ****        43.0000  34.7500  31.7500 Du        
   1957 ****        43.0000  34.7500  32.0000 Du        
   1958 ****        43.0000  34.7500  32.2500 Du        
   1959 ****        43.2500  31.2500  32.2500 Du        
   1960 ****        43.2500  32.0000  31.2500 Du        
   1961 ****        43.2500  32.0000  31.5000 Du        
   1962 ****        43.2500  32.2500  31.0000 Du        
   1963 ****        43.2500  32.2500  31.7500 Du        
   1964 ****        43.2500  32.2500  32.0000 Du        
   1965 ****        43.2500  32.5000  30.7500 Du        
   1966 ****        43.2500  32.5000  31.0000 Du        
   1967 ****        43.2500  32.5000  31.2500 Du        
   1968 ****        43.2500  32.5000  31.5000 Du        
   1969 ****        43.2500  32.5000  31.7500 Du        
   1970 ****        43.2500  32.5000  32.0000 Du        
   1971 ****        43.2500  32.5000  32.2500 Du        
   1972 ****        43.2500  32.7500  30.7500 Du        
   1973 ****        43.2500  32.7500  31.0000 Du        
   1974 ****        43.2500  32.7500  31.2500 Du        
   1975 ****        43.2500  32.7500  31.5000 Du        
   1976 ****        43.2500  32.7500  31.7500 Du        
   1977 ****        43.2500  32.7500  32.0000 Du        
   1978 ****        43.2500  32.7500  32.2500 Du        
   1979 ****        43.2500  33.0000  30.7500 Du        
   1980 ****        43.2500  33.0000  31.0000 Du        
   1981 ****        43.2500  33.0000  31.2500 Du        
   1982 ****        43.2500  33.0000  31.5000 Du        
   1983 ****        43.2500  33.0000  31.7500 Du        
   1984 ****        43.2500  33.0000  32.0000 Du        
   1985 ****        43.2500  33.0000  32.2500 Du        
   1986 ****        43.2500  33.0000  32.5000 Du        
   1987 ****        43.2500  33.2500  31.0000 Du        
   1988 ****        43.2500  33.2500  31.2500 Du        
   1989 ****        43.2500  33.2500  31.5000 Du        
   1990 ****        43.2500  33.2500  31.7500 Du        
   1991 ****        43.2500  33.2500  32.0000 Du        
   1992 ****        43.2500  33.2500  32.2500 Du        
   1993 ****        43.2500  33.2500  32.5000 Du        
   1994 ****        43.2500  33.5000  31.0000 Du        
   1995 ****        43.2500  33.5000  31.2500 Du        
   1996 ****        43.2500  33.5000  31.5000 Du        
   1997 ****        43.2500  33.5000  31.7500 Du        
   1998 ****        43.2500  33.5000  32.0000 Du        
   1999 ****        43.2500  33.5000  32.2500 Du        
   2000 ****        43.2500  33.5000  32.5000 Du        
   2001 ****        43.2500  33.5000  32.7500 Du        
   2002 ****        43.2500  33.7500  31.0000 Du        
   2003 ****        43.2500  33.7500  31.2500 Du        
   2004 ****        43.2500  33.7500  31.5000 Du        
   2005 ****        43.2500  33.7500  31.7500 Du        
   2006 ****        43.2500  33.7500  32.0000 Du        
   2007 ****        43.2500  33.7500  32.2500 Du        
   2008 ****        43.2500  33.7500  32.5000 Du        
   2009 ****        43.2500  33.7500  32.7500 Du        
   2010 ****        43.2500  34.0000  31.2500 Du        
   2011 ****        43.2500  34.0000  31.5000 Du        
   2012 ****        43.2500  34.0000  31.7500 Du        
   2013 ****        43.2500  34.0000  32.0000 Du        
   2014 ****        43.2500  34.0000  32.2500 Du        
   2015 ****        43.2500  34.0000  32.5000 Du        
   2016 ****        43.2500  34.0000  32.7500 Du        
   2017 ****        43.2500  34.2500  31.2500 Du        
   2018 ****        43.2500  34.2500  31.5000 Du        
   2019 ****        43.2500  34.2500  31.7500 Du        
   2020 ****        43.2500  34.2500  32.0000 Du        
   2021 ****        43.2500  34.2500  32.2500 Du        
   2022 ****        43.2500  34.2500  32.5000 Du        
   2023 ****        43.2500  34.5000  31.5000 Du        
   2024 ****        43.2500  34.5000  31.7500 Du        
   2025 ****        43.2500  34.5000  32.0000 Du        
   2026 ****        43.2500  34.5000  32.2500 Du        
   2027 ****        43.2500  34.5000  32.5000 Du        
   2028 ****        43.2500  34.7500  31.7500 Du        
   2029 ****        43.2500  34.7500  32.0000 Du        
   2030 ****        43.5000  32.5000  31.7500 Du        
   2031 ****        43.5000  32.5000  32.0000 Du        
   2032 ****        43.5000  32.7500  31.0000 Du        
   2033 ****        43.5000  32.7500  31.2500 Du        
   2034 ****        43.5000  32.7500  31.5000 Du        
   2035 ****        43.5000  32.7500  31.7500 Du        
   2036 ****        43.5000  32.7500  32.0000 Du        
   2037 ****        43.5000  33.0000  31.0000 Du        
   2038 ****        43.5000  33.0000  31.2500 Du        
   2039 ****        43.5000  33.0000  31.5000 Du        
   2040 ****        43.5000  33.0000  31.7500 Du        
   2041 ****        43.5000  33.0000  32.0000 Du        
   2042 ****        43.5000  33.0000  32.2500 Du        
   2043 ****        43.5000  33.2500  31.0000 Du        
   2044 ****        43.5000  33.2500  31.2500 Du        
   2045 ****        43.5000  33.2500  31.5000 Du        
   2046 ****        43.5000  33.2500  31.7500 Du        
   2047 ****        43.5000  33.2500  32.0000 Du        
   2048 ****        43.5000  33.2500  32.2500 Du        
   2049 ****        43.5000  33.2500  32.5000 Du        
   2050 ****        43.5000  33.5000  31.0000 Du        
   2051 ****        43.5000  33.5000  31.2500 Du        
   2052 ****        43.5000  33.5000  31.5000 Du        
   2053 ****        43.5000  33.5000  31.7500 Du        
   2054 ****        43.5000  33.5000  32.0000 Du        
   2055 ****        43.5000  33.5000  32.2500 Du        
   2056 ****        43.5000  33.5000  32.5000 Du        
   2057 ****        43.5000  33.7500  31.0000 Du        
   2058 ****        43.5000  33.7500  31.2500 Du        
   2059 ****        43.5000  33.7500  31.5000 Du        
   2060 ****        43.5000  33.7500  31.7500 Du        
   2061 ****        43.5000  33.7500  32.0000 Du        
   2062 ****        43.5000  33.7500  32.2500 Du        
   2063 ****        43.5000  33.7500  32.5000 Du        
   2064 ****        43.5000  34.0000  31.2500 Du        
   2065 ****        43.5000  34.0000  31.5000 Du        
   2066 ****        43.5000  34.0000  31.7500 Du        
   2067 ****        43.5000  34.0000  32.0000 Du        
   2068 ****        43.5000  34.0000  32.2500 Du        
   2069 ****        43.5000  34.0000  32.5000 Du        
   2070 ****        43.5000  34.2500  31.2500 Du        
   2071 ****        43.5000  34.2500  31.5000 Du        
   2072 ****        43.5000  34.2500  31.7500 Du        
   2073 ****        43.5000  34.2500  32.0000 Du        
   2074 ****        43.5000  34.2500  32.2500 Du        
   2075 ****        43.5000  34.5000  31.5000 Du        
   2076 ****        43.5000  34.5000  31.7500 Du        
   2077 ****        43.5000  34.5000  32.0000 Du        
   2078 ****        43.5000  34.5000  32.2500 Du        
   2079 ****        43.5000  34.7500  31.5000 Du        
   2080 ****        43.5000  34.7500  31.7500 Du        
   2081 ****        43.7500  32.5000  31.7500 Du        
   2082 ****        43.7500  32.7500  31.0000 Du        
   2083 ****        43.7500  32.7500  31.5000 Du        
   2084 ****        43.7500  32.7500  31.7500 Du        
   2085 ****        43.7500  32.7500  32.0000 Du        
   2086 ****        43.7500  33.0000  30.7500 Du        
   2087 ****        43.7500  33.0000  31.0000 Du        
   2088 ****        43.7500  33.0000  31.2500 Du        
   2089 ****        43.7500  33.0000  31.5000 Du        
   2090 ****        43.7500  33.0000  31.7500 Du        
   2091 ****        43.7500  33.0000  32.0000 Du        
   2092 ****        43.7500  33.0000  32.2500 Du        
   2093 ****        43.7500  33.2500  30.7500 Du        
   2094 ****        43.7500  33.2500  31.0000 Du        
   2095 ****        43.7500  33.2500  31.2500 Du        
   2096 ****        43.7500  33.2500  31.5000 Du        
   2097 ****        43.7500  33.2500  31.7500 Du        
   2098 ****        43.7500  33.2500  32.0000 Du        
   2099 ****        43.7500  33.2500  32.2500 Du        
   2100 ****        43.7500  33.5000  30.7500 Du        
   2101 ****        43.7500  33.5000  31.0000 Du        
   2102 ****        43.7500  33.5000  31.2500 Du        
   2103 ****        43.7500  33.5000  31.5000 Du        
   2104 ****        43.7500  33.5000  31.7500 Du        
   2105 ****        43.7500  33.5000  32.0000 Du        
   2106 ****        43.7500  33.5000  32.2500 Du        
   2107 ****        43.7500  33.7500  30.7500 Du        
   2108 ****        43.7500  33.7500  31.0000 Du        
   2109 ****        43.7500  33.7500  31.2500 Du        
   2110 ****        43.7500  33.7500  31.5000 Du        
   2111 ****        43.7500  33.7500  31.7500 Du        
   2112 ****        43.7500  33.7500  32.0000 Du        
   2113 ****        43.7500  33.7500  32.2500 Du        
   2114 ****        43.7500  33.7500  32.5000 Du        
   2115 ****        43.7500  34.0000  31.0000 Du        
   2116 ****        43.7500  34.0000  31.2500 Du        
   2117 ****        43.7500  34.0000  31.5000 Du        
   2118 ****        43.7500  34.0000  31.7500 Du        
   2119 ****        43.7500  34.0000  32.0000 Du        
   2120 ****        43.7500  34.0000  32.2500 Du        
   2121 ****        43.7500  34.2500  31.0000 Du        
   2122 ****        43.7500  34.2500  31.2500 Du        
   2123 ****        43.7500  34.2500  31.5000 Du        
   2124 ****        43.7500  34.2500  31.7500 Du        
   2125 ****        43.7500  34.2500  32.0000 Du        
   2126 ****        43.7500  34.2500  32.2500 Du        
   2127 ****        43.7500  34.5000  31.2500 Du        
   2128 ****        43.7500  34.5000  31.5000 Du        
   2129 ****        43.7500  34.5000  31.7500 Du        
   2130 ****        43.7500  34.5000  32.0000 Du        
   2131 ****        44.0000  32.7500  31.2500 Du        
   2132 ****        44.0000  32.7500  31.5000 Du        
   2133 ****        44.0000  32.7500  31.7500 Du        
   2134 ****        44.0000  32.7500  32.0000 Du        
   2135 ****        44.0000  33.0000  30.7500 Du        
   2136 ****        44.0000  33.0000  31.0000 Du        
   2137 ****        44.0000  33.0000  31.2500 Du        
   2138 ****        44.0000  33.0000  31.5000 Du        
   2139 ****        44.0000  33.0000  31.7500 Du        
   2140 ****        44.0000  33.0000  32.0000 Du        
   2141 ****        44.0000  33.2500  30.5000 Du        
   2142 ****        44.0000  33.2500  30.7500 Du        
   2143 ****        44.0000  33.2500  31.0000 Du        
   2144 ****        44.0000  33.2500  31.2500 Du        
   2145 ****        44.0000  33.2500  31.5000 Du        
   2146 ****        44.0000  33.2500  31.7500 Du        
   2147 ****        44.0000  33.2500  32.0000 Du        
   2148 ****        44.0000  33.2500  32.2500 Du        
   2149 ****        44.0000  33.5000  30.5000 Du        
   2150 ****        44.0000  33.5000  30.7500 Du        
   2151 ****        44.0000  33.5000  31.0000 Du        
   2152 ****        44.0000  33.5000  31.2500 Du        
   2153 ****        44.0000  33.5000  31.5000 Du        
   2154 ****        44.0000  33.5000  31.7500 Du        
   2155 ****        44.0000  33.5000  32.0000 Du        
   2156 ****        44.0000  33.5000  32.2500 Du        
   2157 ****        44.0000  33.7500  30.5000 Du        
   2158 ****        44.0000  33.7500  30.7500 Du        
   2159 ****        44.0000  33.7500  31.0000 Du        
   2160 ****        44.0000  33.7500  31.2500 Du        
   2161 ****        44.0000  33.7500  31.5000 Du        
   2162 ****        44.0000  33.7500  31.7500 Du        
   2163 ****        44.0000  33.7500  32.0000 Du        
   2164 ****        44.0000  33.7500  32.2500 Du        
   2165 ****        44.0000  34.0000  30.7500 Du        
   2166 ****        44.0000  34.0000  31.0000 Du        
   2167 ****        44.0000  34.0000  31.2500 Du        
   2168 ****        44.0000  34.0000  31.5000 Du        
   2169 ****        44.0000  34.0000  31.7500 Du        
   2170 ****        44.0000  34.0000  32.0000 Du        
   2171 ****        44.0000  34.0000  32.2500 Du        
   2172 ****        44.0000  34.2500  31.0000 Du        
   2173 ****        44.0000  34.2500  31.2500 Du        
   2174 ****        44.0000  34.2500  31.5000 Du        
   2175 ****        44.0000  34.2500  31.7500 Du        
   2176 ****        44.0000  34.2500  32.0000 Du        
   2177 ****        44.0000  34.5000  31.2500 Du        
   2178 ****        44.0000  34.5000  31.5000 Du        
   2179 ****        44.0000  34.5000  31.7500 Du        
   2180 ****        44.2500  32.7500  31.2500 Du        
   2181 ****        44.2500  32.7500  31.5000 Du        
   2182 ****        44.2500  32.7500  31.7500 Du        
   2183 ****        44.2500  33.0000  30.5000 Du        
   2184 ****        44.2500  33.0000  30.7500 Du        
   2185 ****        44.2500  33.0000  31.0000 Du        
   2186 ****        44.2500  33.0000  31.2500 Du        
   2187 ****        44.2500  33.0000  31.5000 Du        
   2188 ****        44.2500  33.0000  31.7500 Du        
   2189 ****        44.2500  33.0000  32.0000 Du        
   2190 ****        44.2500  33.2500  30.5000 Du        
   2191 ****        44.2500  33.2500  30.7500 Du        
   2192 ****        44.2500  33.2500  31.0000 Du        
   2193 ****        44.2500  33.2500  31.2500 Du        
   2194 ****        44.2500  33.2500  31.5000 Du        
   2195 ****        44.2500  33.2500  31.7500 Du        
   2196 ****        44.2500  33.2500  32.0000 Du        
   2197 ****        44.2500  33.5000  30.2500 Du        
   2198 ****        44.2500  33.5000  30.5000 Du        
   2199 ****        44.2500  33.5000  30.7500 Du        
   2200 ****        44.2500  33.5000  31.0000 Du        
   2201 ****        44.2500  33.5000  31.2500 Du        
   2202 ****        44.2500  33.5000  31.5000 Du        
   2203 ****        44.2500  33.5000  31.7500 Du        
   2204 ****        44.2500  33.5000  32.0000 Du        
   2205 ****        44.2500  33.5000  32.2500 Du        
   2206 ****        44.2500  33.7500  30.5000 Du        
   2207 ****        44.2500  33.7500  30.7500 Du        
   2208 ****        44.2500  33.7500  31.0000 Du        
   2209 ****        44.2500  33.7500  31.2500 Du        
   2210 ****        44.2500  33.7500  31.5000 Du        
   2211 ****        44.2500  33.7500  31.7500 Du        
   2212 ****        44.2500  33.7500  32.0000 Du        
   2213 ****        44.2500  33.7500  32.2500 Du        
   2214 ****        44.2500  34.0000  30.5000 Du        
   2215 ****        44.2500  34.0000  30.7500 Du        
   2216 ****        44.2500  34.0000  31.0000 Du        
   2217 ****        44.2500  34.0000  31.2500 Du        
   2218 ****        44.2500  34.0000  31.5000 Du        
   2219 ****        44.2500  34.0000  31.7500 Du        
   2220 ****        44.2500  34.0000  32.0000 Du        
   2221 ****        44.2500  34.2500  30.7500 Du        
   2222 ****        44.2500  34.2500  31.0000 Du        
   2223 ****        44.2500  34.2500  31.2500 Du        
   2224 ****        44.2500  34.2500  31.5000 Du        
   2225 ****        44.2500  34.2500  31.7500 Du        
   2226 ****        44.2500  34.5000  31.2500 Du        
   2227 ****        44.2500  34.5000  31.5000 Du        
   2228 ****        44.5000  33.0000  30.7500 Du        
   2229 ****        44.5000  33.0000  31.0000 Du        
   2230 ****        44.5000  33.0000  31.2500 Du        
   2231 ****        44.5000  33.0000  31.5000 Du        
   2232 ****        44.5000  33.0000  31.7500 Du        
   2233 ****        44.5000  33.0000  32.0000 Du        
   2234 ****        44.5000  33.2500  30.5000 Du        
   2235 ****        44.5000  33.2500  30.7500 Du        
   2236 ****        44.5000  33.2500  31.0000 Du        
   2237 ****        44.5000  33.2500  31.2500 Du        
   2238 ****        44.5000  33.2500  31.5000 Du        
   2239 ****        44.5000  33.2500  31.7500 Du        
   2240 ****        44.5000  33.2500  32.0000 Du        
   2241 ****        44.5000  33.5000  30.0000 Du        
   2242 ****        44.5000  33.5000  30.2500 Du        
   2243 ****        44.5000  33.5000  30.5000 Du        
   2244 ****        44.5000  33.5000  30.7500 Du        
   2245 ****        44.5000  33.5000  31.0000 Du        
   2246 ****        44.5000  33.5000  31.2500 Du        
   2247 ****        44.5000  33.5000  31.5000 Du        
   2248 ****        44.5000  33.5000  31.7500 Du        
   2249 ****        44.5000  33.5000  32.0000 Du        
   2250 ****        44.5000  33.7500  30.0000 Du        
   2251 ****        44.5000  33.7500  30.2500 Du        
   2252 ****        44.5000  33.7500  30.5000 Du        
   2253 ****        44.5000  33.7500  30.7500 Du        
   2254 ****        44.5000  33.7500  31.0000 Du        
   2255 ****        44.5000  33.7500  31.2500 Du        
   2256 ****        44.5000  33.7500  31.5000 Du        
   2257 ****        44.5000  33.7500  31.7500 Du        
   2258 ****        44.5000  33.7500  32.0000 Du        
   2259 ****        44.5000  34.0000  30.2500 Du        
   2260 ****        44.5000  34.0000  30.5000 Du        
   2261 ****        44.5000  34.0000  30.7500 Du        
   2262 ****        44.5000  34.0000  31.0000 Du        
   2263 ****        44.5000  34.0000  31.2500 Du        
   2264 ****        44.5000  34.0000  31.5000 Du        
   2265 ****        44.5000  34.0000  31.7500 Du        
   2266 ****        44.5000  34.0000  32.0000 Du        
   2267 ****        44.5000  34.2500  30.5000 Du        
   2268 ****        44.5000  34.2500  30.7500 Du        
   2269 ****        44.5000  34.2500  31.0000 Du        
   2270 ****        44.5000  34.2500  31.2500 Du        
   2271 ****        44.5000  34.2500  31.5000 Du        
   2272 ****        44.5000  34.2500  31.7500 Du        
   2273 ****        44.7500  33.0000  30.5000 Du        
   2274 ****        44.7500  33.0000  30.7500 Du        
   2275 ****        44.7500  33.0000  31.0000 Du        
   2276 ****        44.7500  33.0000  31.2500 Du        
   2277 ****        44.7500  33.0000  31.5000 Du        
   2278 ****        44.7500  33.0000  31.7500 Du        
   2279 ****        44.7500  33.0000  32.0000 Du        
   2280 ****        44.7500  33.2500  30.2500 Du        
   2281 ****        44.7500  33.2500  30.5000 Du        
   2282 ****        44.7500  33.2500  30.7500 Du        
   2283 ****        44.7500  33.2500  31.0000 Du        
   2284 ****        44.7500  33.2500  31.2500 Du        
   2285 ****        44.7500  33.2500  31.5000 Du        
   2286 ****        44.7500  33.2500  31.7500 Du        
   2287 ****        44.7500  33.2500  32.0000 Du        
   2288 ****        44.7500  33.5000  29.7500 Du        
   2289 ****        44.7500  33.5000  30.0000 Du        
   2290 ****        44.7500  33.5000  30.2500 Du        
   2291 ****        44.7500  33.5000  30.5000 Du        
   2292 ****        44.7500  33.5000  30.7500 Du        
   2293 ****        44.7500  33.5000  31.0000 Du        
   2294 ****        44.7500  33.5000  31.2500 Du        
   2295 ****        44.7500  33.5000  31.5000 Du        
   2296 ****        44.7500  33.5000  31.7500 Du        
   2297 ****        44.7500  33.5000  32.0000 Du        
   2298 ****        44.7500  33.7500  29.7500 Du        
   2299 ****        44.7500  33.7500  30.0000 Du        
   2300 ****        44.7500  33.7500  30.2500 Du        
   2301 ****        44.7500  33.7500  30.5000 Du        
   2302 ****        44.7500  33.7500  30.7500 Du        
   2303 ****        44.7500  33.7500  31.0000 Du        
   2304 ****        44.7500  33.7500  31.2500 Du        
   2305 ****        44.7500  33.7500  31.5000 Du        
   2306 ****        44.7500  33.7500  31.7500 Du        
   2307 ****        44.7500  33.7500  32.0000 Du        
   2308 ****        44.7500  34.0000  29.7500 Du        
   2309 ****        44.7500  34.0000  30.0000 Du        
   2310 ****        44.7500  34.0000  30.2500 Du        
   2311 ****        44.7500  34.0000  30.5000 Du        
   2312 ****        44.7500  34.0000  30.7500 Du        
   2313 ****        44.7500  34.0000  31.0000 Du        
   2314 ****        44.7500  34.0000  31.2500 Du        
   2315 ****        44.7500  34.0000  31.5000 Du        
   2316 ****        44.7500  34.0000  31.7500 Du        
   2317 ****        44.7500  34.2500  30.2500 Du        
   2318 ****        44.7500  34.2500  30.5000 Du        
   2319 ****        44.7500  34.2500  30.7500 Du        
   2320 ****        44.7500  34.2500  31.0000 Du        
   2321 ****        44.7500  34.2500  31.2500 Du        
   2322 ****        44.7500  34.2500  31.5000 Du        
   2323 ****        45.0000  33.0000  30.7500 Du        
   2324 ****        45.0000  33.0000  31.0000 Du        
   2325 ****        45.0000  33.0000  31.2500 Du        
   2326 ****        45.0000  33.0000  31.5000 Du        
   2327 ****        45.0000  33.0000  31.7500 Du        
   2328 ****        45.0000  33.2500  30.0000 Du        
   2329 ****        45.0000  33.2500  30.2500 Du        
   2330 ****        45.0000  33.2500  30.5000 Du        
   2331 ****        45.0000  33.2500  30.7500 Du        
   2332 ****        45.0000  33.2500  31.0000 Du        
   2333 ****        45.0000  33.2500  31.2500 Du        
   2334 ****        45.0000  33.2500  31.5000 Du        
   2335 ****        45.0000  33.2500  31.7500 Du        
   2336 ****        45.0000  33.2500  32.0000 Du        
   2337 ****        45.0000  33.5000  29.7500 Du        
   2338 ****        45.0000  33.5000  30.0000 Du        
   2339 ****        45.0000  33.5000  30.2500 Du        
   2340 ****        45.0000  33.5000  30.5000 Du        
   2341 ****        45.0000  33.5000  30.7500 Du        
   2342 ****        45.0000  33.5000  31.0000 Du        
   2343 ****        45.0000  33.5000  31.2500 Du        
   2344 ****        45.0000  33.5000  31.5000 Du        
   2345 ****        45.0000  33.5000  31.7500 Du        
   2346 ****        45.0000  33.5000  32.0000 Du        
   2347 ****        45.0000  33.7500  29.5000 Du        
   2348 ****        45.0000  33.7500  29.7500 Du        
   2349 ****        45.0000  33.7500  30.0000 Du        
   2350 ****        45.0000  33.7500  30.2500 Du        
   2351 ****        45.0000  33.7500  30.5000 Du        
   2352 ****        45.0000  33.7500  30.7500 Du        
   2353 ****        45.0000  33.7500  31.0000 Du        
   2354 ****        45.0000  33.7500  31.2500 Du        
   2355 ****        45.0000  33.7500  31.5000 Du        
   2356 ****        45.0000  33.7500  31.7500 Du        
   2357 ****        45.0000  34.0000  29.5000 Du        
   2358 ****        45.0000  34.0000  29.7500 Du        
   2359 ****        45.0000  34.0000  30.0000 Du        
   2360 ****        45.0000  34.0000  30.2500 Du        
   2361 ****        45.0000  34.0000  30.5000 Du        
   2362 ****        45.0000  34.0000  30.7500 Du        
   2363 ****        45.0000  34.0000  31.0000 Du        
   2364 ****        45.0000  34.0000  31.2500 Du        
   2365 ****        45.0000  34.0000  31.5000 Du        
   2366 ****        45.0000  34.0000  31.7500 Du        
   2367 ****        45.0000  34.2500  29.7500 Du        
   2368 ****        45.0000  34.2500  30.0000 Du        
   2369 ****        45.0000  34.2500  30.2500 Du        
   2370 ****        45.0000  34.2500  30.5000 Du        
   2371 ****        45.0000  34.2500  30.7500 Du        
   2372 ****        45.0000  34.2500  31.0000 Du        
   2373 ****        45.0000  34.2500  31.2500 Du        
   2374 ****        45.0000  34.5000  30.2500 Du        
   2375 ****        45.2500  33.0000  31.7500 Du        
   2376 ****        45.2500  33.2500  30.0000 Du        
   2377 ****        45.2500  33.2500  30.2500 Du        
   2378 ****        45.2500  33.2500  30.5000 Du        
   2379 ****        45.2500  33.2500  30.7500 Du        
   2380 ****        45.2500  33.2500  31.0000 Du        
   2381 ****        45.2500  33.2500  31.2500 Du        
   2382 ****        45.2500  33.2500  31.5000 Du        
   2383 ****        45.2500  33.2500  31.7500 Du        
   2384 ****        45.2500  33.2500  32.0000 Du        
   2385 ****        45.2500  33.5000  29.5000 Du        
   2386 ****        45.2500  33.5000  29.7500 Du        
   2387 ****        45.2500  33.5000  30.0000 Du        
   2388 ****        45.2500  33.5000  30.2500 Du        
   2389 ****        45.2500  33.5000  30.5000 Du        
   2390 ****        45.2500  33.5000  30.7500 Du        
   2391 ****        45.2500  33.5000  31.0000 Du        
   2392 ****        45.2500  33.5000  31.2500 Du        
   2393 ****        45.2500  33.5000  31.5000 Du        
   2394 ****        45.2500  33.5000  31.7500 Du        
   2395 ****        45.2500  33.7500  29.2500 Du        
   2396 ****        45.2500  33.7500  29.5000 Du        
   2397 ****        45.2500  33.7500  29.7500 Du        
   2398 ****        45.2500  33.7500  30.0000 Du        
   2399 ****        45.2500  33.7500  30.2500 Du        
   2400 ****        45.2500  33.7500  30.5000 Du        
   2401 ****        45.2500  33.7500  30.7500 Du        
   2402 ****        45.2500  33.7500  31.0000 Du        
   2403 ****        45.2500  33.7500  31.2500 Du        
   2404 ****        45.2500  33.7500  31.5000 Du        
   2405 ****        45.2500  33.7500  31.7500 Du        
   2406 ****        45.2500  34.0000  29.2500 Du        
   2407 ****        45.2500  34.0000  29.5000 Du        
   2408 ****        45.2500  34.0000  29.7500 Du        
   2409 ****        45.2500  34.0000  30.0000 Du        
   2410 ****        45.2500  34.0000  30.2500 Du        
   2411 ****        45.2500  34.0000  30.5000 Du        
   2412 ****        45.2500  34.0000  30.7500 Du        
   2413 ****        45.2500  34.0000  31.0000 Du        
   2414 ****        45.2500  34.0000  31.2500 Du        
   2415 ****        45.2500  34.0000  31.5000 Du        
   2416 ****        45.2500  34.2500  29.2500 Du        
   2417 ****        45.2500  34.2500  29.5000 Du        
   2418 ****        45.2500  34.2500  29.7500 Du        
   2419 ****        45.2500  34.2500  30.0000 Du        
   2420 ****        45.2500  34.2500  30.2500 Du        
   2421 ****        45.2500  34.2500  30.5000 Du        
   2422 ****        45.2500  34.2500  30.7500 Du        
   2423 ****        45.2500  34.2500  31.0000 Du        
   2424 ****        45.2500  34.5000  29.7500 Du        
   2425 ****        45.2500  34.5000  30.0000 Du        
   2426 ****        45.2500  34.5000  30.2500 Du        
   2427 ****        45.5000  33.5000  29.2500 Du        
   2428 ****        45.5000  33.5000  29.5000 Du        
   2429 ****        45.5000  33.5000  29.7500 Du        
   2430 ****        45.5000  33.5000  30.0000 Du        
   2431 ****        45.5000  33.5000  30.2500 Du        
   2432 ****        45.5000  33.5000  30.7500 Du        
   2433 ****        45.5000  33.5000  31.0000 Du        
   2434 ****        45.5000  33.7500  29.0000 Du        
   2435 ****        45.5000  33.7500  29.2500 Du        
   2436 ****        45.5000  33.7500  29.5000 Du        
   2437 ****        45.5000  33.7500  29.7500 Du        
   2438 ****        45.5000  33.7500  30.0000 Du        
   2439 ****        45.5000  33.7500  30.2500 Du        
   2440 ****        45.5000  33.7500  30.5000 Du        
   2441 ****        45.5000  33.7500  30.7500 Du        
   2442 ****        45.5000  33.7500  31.0000 Du        
   2443 ****        45.5000  33.7500  31.2500 Du        
   2444 ****        45.5000  34.0000  29.0000 Du        
   2445 ****        45.5000  34.0000  29.2500 Du        
   2446 ****        45.5000  34.0000  29.5000 Du        
   2447 ****        45.5000  34.0000  29.7500 Du        
   2448 ****        45.5000  34.0000  30.0000 Du        
   2449 ****        45.5000  34.0000  30.2500 Du        
   2450 ****        45.5000  34.0000  30.5000 Du        
   2451 ****        45.5000  34.0000  30.7500 Du        
   2452 ****        45.5000  34.0000  31.0000 Du        
   2453 ****        45.5000  34.2500  29.2500 Du        
   2454 ****        45.5000  34.2500  29.5000 Du        
   2455 ****        45.5000  34.2500  29.7500 Du        
   2456 ****        45.5000  34.2500  30.0000 Du        
   2457 ****        45.5000  34.2500  30.2500 Du        
   2458 ****        45.5000  34.2500  30.5000 Du        
   2459 ****        45.5000  34.2500  30.7500 Du        
   2460 ****        45.5000  34.5000  30.0000 Du        
   2461 ****        45.5000  34.5000  30.2500 Du        
   2462 ****        45.7500  33.5000  29.0000 Du        
   2463 ****        45.7500  33.5000  29.2500 Du        
   2464 ****        45.7500  33.5000  29.5000 Du        
   2465 ****        45.7500  33.5000  29.7500 Du        
   2466 ****        45.7500  33.5000  30.0000 Du        
   2467 ****        45.7500  33.5000  30.2500 Du        
   2468 ****        45.7500  33.5000  31.0000 Du        
   2469 ****        45.7500  33.7500  28.7500 Du        
   2470 ****        45.7500  33.7500  29.0000 Du        
   2471 ****        45.7500  33.7500  29.2500 Du        
   2472 ****        45.7500  33.7500  29.5000 Du        
   2473 ****        45.7500  33.7500  29.7500 Du        
   2474 ****        45.7500  33.7500  30.0000 Du        
   2475 ****        45.7500  33.7500  30.2500 Du        
   2476 ****        45.7500  33.7500  30.5000 Du        
   2477 ****        45.7500  33.7500  30.7500 Du        
   2478 ****        45.7500  33.7500  31.0000 Du        
   2479 ****        45.7500  34.0000  28.7500 Du        
   2480 ****        45.7500  34.0000  29.0000 Du        
   2481 ****        45.7500  34.0000  29.2500 Du        
   2482 ****        45.7500  34.0000  29.5000 Du        
   2483 ****        45.7500  34.0000  29.7500 Du        
   2484 ****        45.7500  34.0000  30.0000 Du        
   2485 ****        45.7500  34.0000  30.2500 Du        
   2486 ****        45.7500  34.0000  30.5000 Du        
   2487 ****        45.7500  34.0000  30.7500 Du        
   2488 ****        45.7500  34.0000  31.0000 Du        
   2489 ****        45.7500  34.2500  28.7500 Du        
   2490 ****        45.7500  34.2500  29.0000 Du        
   2491 ****        45.7500  34.2500  29.2500 Du        
   2492 ****        45.7500  34.2500  29.5000 Du        
   2493 ****        45.7500  34.2500  29.7500 Du        
   2494 ****        45.7500  34.2500  30.0000 Du        
   2495 ****        45.7500  34.2500  30.2500 Du        
   2496 ****        45.7500  34.2500  30.5000 Du        
   2497 ****        45.7500  34.2500  30.7500 Du        
   2498 ****        45.7500  34.5000  29.2500 Du        
   2499 ****        45.7500  34.5000  29.7500 Du        
   2500 ****        45.7500  34.5000  30.0000 Du        
   2501 ****        45.7500  34.5000  30.2500 Du        
   2502 ****        46.0000  33.2500  29.0000 Du        
   2503 ****        46.0000  33.5000  29.0000 Du        
   2504 ****        46.0000  33.5000  29.2500 Du        
   2505 ****        46.0000  33.5000  29.5000 Du        
   2506 ****        46.0000  33.5000  29.7500 Du        
   2507 ****        46.0000  33.5000  30.0000 Du        
   2508 ****        46.0000  33.5000  30.2500 Du        
   2509 ****        46.0000  33.7500  28.7500 Du        
   2510 ****        46.0000  33.7500  29.0000 Du        
   2511 ****        46.0000  33.7500  29.2500 Du        
   2512 ****        46.0000  33.7500  29.5000 Du        
   2513 ****        46.0000  33.7500  29.7500 Du        
   2514 ****        46.0000  33.7500  30.0000 Du        
   2515 ****        46.0000  33.7500  30.2500 Du        
   2516 ****        46.0000  33.7500  30.7500 Du        
   2517 ****        46.0000  33.7500  31.0000 Du        
   2518 ****        46.0000  34.0000  28.7500 Du        
   2519 ****        46.0000  34.0000  29.0000 Du        
   2520 ****        46.0000  34.0000  29.2500 Du        
   2521 ****        46.0000  34.0000  29.5000 Du        
   2522 ****        46.0000  34.0000  29.7500 Du        
   2523 ****        46.0000  34.0000  30.0000 Du        
   2524 ****        46.0000  34.0000  30.2500 Du        
   2525 ****        46.0000  34.0000  30.5000 Du        
   2526 ****        46.0000  34.0000  30.7500 Du        
   2527 ****        46.0000  34.0000  31.0000 Du        
   2528 ****        46.0000  34.2500  28.7500 Du        
   2529 ****        46.0000  34.2500  29.0000 Du        
   2530 ****        46.0000  34.2500  29.2500 Du        
   2531 ****        46.0000  34.2500  29.5000 Du        
   2532 ****        46.0000  34.2500  29.7500 Du        
   2533 ****        46.0000  34.2500  30.0000 Du        
   2534 ****        46.0000  34.2500  30.2500 Du        
   2535 ****        46.0000  34.2500  30.5000 Du        
   2536 ****        46.0000  34.2500  30.7500 Du        
   2537 ****        46.0000  34.5000  29.0000 Du        
   2538 ****        46.0000  34.5000  29.2500 Du        
   2539 ****        46.0000  34.5000  29.5000 Du        
   2540 ****        46.0000  34.5000  29.7500 Du        
   2541 ****        46.0000  34.5000  30.0000 Du        
   2542 ****        46.0000  34.5000  30.2500 Du        
   2543 ****        46.2500  33.2500  28.7500 Du        
   2544 ****        46.2500  33.5000  29.0000 Du        
   2545 ****        46.2500  33.5000  29.2500 Du        
   2546 ****        46.2500  33.5000  29.5000 Du        
   2547 ****        46.2500  33.5000  29.7500 Du        
   2548 ****        46.2500  33.5000  30.0000 Du        
   2549 ****        46.2500  33.5000  30.2500 Du        
   2550 ****        46.2500  33.7500  28.7500 Du        
   2551 ****        46.2500  33.7500  29.0000 Du        
   2552 ****        46.2500  33.7500  29.2500 Du        
   2553 ****        46.2500  33.7500  29.5000 Du        
   2554 ****        46.2500  33.7500  29.7500 Du        
   2555 ****        46.2500  33.7500  30.0000 Du        
   2556 ****        46.2500  33.7500  30.2500 Du        
   2557 ****        46.2500  34.0000  28.7500 Du        
   2558 ****        46.2500  34.0000  29.0000 Du        
   2559 ****        46.2500  34.0000  29.2500 Du        
   2560 ****        46.2500  34.0000  29.5000 Du        
   2561 ****        46.2500  34.0000  29.7500 Du        
   2562 ****        46.2500  34.0000  30.0000 Du        
   2563 ****        46.2500  34.0000  30.2500 Du        
   2564 ****        46.2500  34.0000  30.5000 Du        
   2565 ****        46.2500  34.0000  30.7500 Du        
   2566 ****        46.2500  34.2500  28.7500 Du        
   2567 ****        46.2500  34.2500  29.0000 Du        
   2568 ****        46.2500  34.2500  29.2500 Du        
   2569 ****        46.2500  34.2500  29.5000 Du        
   2570 ****        46.2500  34.2500  29.7500 Du        
   2571 ****        46.2500  34.2500  30.0000 Du        
   2572 ****        46.2500  34.2500  30.2500 Du        
   2573 ****        46.2500  34.2500  30.5000 Du        
   2574 ****        46.2500  34.5000  28.7500 Du        
   2575 ****        46.2500  34.5000  29.0000 Du        
   2576 ****        46.2500  34.5000  29.2500 Du        
   2577 ****        46.2500  34.5000  29.5000 Du        
   2578 ****        46.2500  34.5000  29.7500 Du        
   2579 ****        46.2500  34.5000  30.0000 Du        
   2580 ****        46.2500  34.5000  30.2500 Du        
   2581 ****        46.5000  29.2500  33.5000 Du        
   2582 ****        46.5000  29.2500  33.7500 Du        
   2583 ****        46.5000  29.5000  33.5000 Du        
   2584 ****        46.5000  33.5000  29.0000 Du        
   2585 ****        46.5000  33.7500  28.7500 Du        
   2586 ****        46.5000  33.7500  29.0000 Du        
   2587 ****        46.5000  33.7500  29.2500 Du        
   2588 ****        46.5000  34.0000  28.7500 Du        
   2589 ****        46.5000  34.0000  29.0000 Du        
   2590 ****        46.5000  34.0000  29.2500 Du        
   2591 ****        46.5000  34.0000  29.7500 Du        
   2592 ****        46.5000  34.0000  30.0000 Du        
   2593 ****        46.5000  34.0000  30.2500 Du        
   2594 ****        46.5000  34.0000  30.7500 Du        
   2595 ****        46.5000  34.2500  28.7500 Du        
   2596 ****        46.5000  34.2500  29.0000 Du        
   2597 ****        46.5000  34.2500  29.2500 Du        
   2598 ****        46.5000  34.2500  29.5000 Du        
   2599 ****        46.5000  34.2500  29.7500 Du        
   2600 ****        46.5000  34.2500  30.0000 Du        
   2601 ****        46.5000  34.2500  30.2500 Du        
   2602 ****        46.5000  34.5000  28.7500 Du        
   2603 ****        46.5000  34.5000  29.0000 Du        
   2604 ****        46.5000  34.5000  29.2500 Du        
   2605 ****        46.5000  34.5000  29.5000 Du        
   2606 ****        46.5000  34.5000  29.7500 Du        
   2607 ****        46.5000  34.5000  30.0000 Du        
   2608 ****        46.5000  34.7500  29.0000 Du        
   2609 ****        46.5000  34.7500  29.2500 Du        
   2610 ****        46.7500  29.0000  33.5000 Du        
   2611 ****        46.7500  29.0000  33.7500 Du        
   2612 ****        46.7500  29.2500  33.2500 Du        
   2613 ****        46.7500  29.2500  33.5000 Du        
   2614 ****        46.7500  29.2500  33.7500 Du        
   2615 ****        46.7500  29.2500  34.0000 Du        
   2616 ****        46.7500  29.5000  33.5000 Du        
   2617 ****        46.7500  29.5000  33.7500 Du        
   2618 ****        46.7500  29.7500  33.5000 Du        
   2619 ****        46.7500  33.7500  28.7500 Du        
   2620 ****        46.7500  33.7500  29.0000 Du        
   2621 ****        46.7500  33.7500  29.2500 Du        
   2622 ****        46.7500  34.0000  28.7500 Du        
   2623 ****        46.7500  34.0000  29.0000 Du        
   2624 ****        46.7500  34.0000  29.2500 Du        
   2625 ****        46.7500  34.0000  29.7500 Du        
   2626 ****        46.7500  34.0000  30.0000 Du        
   2627 ****        46.7500  34.0000  30.2500 Du        
   2628 ****        46.7500  34.2500  28.7500 Du        
   2629 ****        46.7500  34.2500  29.0000 Du        
   2630 ****        46.7500  34.2500  29.2500 Du        
   2631 ****        46.7500  34.2500  29.5000 Du        
   2632 ****        46.7500  34.2500  29.7500 Du        
   2633 ****        46.7500  34.2500  30.0000 Du        
   2634 ****        46.7500  34.2500  30.2500 Du        
   2635 ****        46.7500  34.5000  28.7500 Du        
   2636 ****        46.7500  34.5000  29.0000 Du        
   2637 ****        46.7500  34.5000  29.2500 Du        
   2638 ****        46.7500  34.5000  29.5000 Du        
   2639 ****        46.7500  34.5000  29.7500 Du        
   2640 ****        46.7500  34.7500  28.7500 Du        
   2641 ****        46.7500  34.7500  29.0000 Du        
   2642 ****        46.7500  34.7500  29.2500 Du        
   2643 ****        46.7500  34.7500  29.5000 Du        
   2644 ****        47.0000  28.7500  33.5000 Du        
   2645 ****        47.0000  29.0000  33.2500 Du        
   2646 ****        47.0000  29.0000  33.5000 Du        
   2647 ****        47.0000  29.0000  33.7500 Du        
   2648 ****        47.0000  29.0000  34.0000 Du        
   2649 ****        47.0000  29.2500  33.2500 Du        
   2650 ****        47.0000  29.2500  33.5000 Du        
   2651 ****        47.0000  29.2500  33.7500 Du        
   2652 ****        47.0000  29.2500  34.0000 Du        
   2653 ****        47.0000  29.5000  33.0000 Du        
   2654 ****        47.0000  29.5000  33.2500 Du        
   2655 ****        47.0000  29.5000  33.5000 Du        
   2656 ****        47.0000  29.5000  33.7500 Du        
   2657 ****        47.0000  29.5000  34.0000 Du        
   2658 ****        47.0000  29.7500  33.2500 Du        
   2659 ****        47.0000  29.7500  33.5000 Du        
   2660 ****        47.0000  29.7500  33.7500 Du        
   2661 ****        47.0000  30.0000  33.5000 Du        
   2662 ****        47.0000  34.0000  28.7500 Du        
   2663 ****        47.0000  34.0000  29.0000 Du        
   2664 ****        47.0000  34.0000  29.2500 Du        
   2665 ****        47.0000  34.0000  30.0000 Du        
   2666 ****        47.0000  34.0000  30.2500 Du        
   2667 ****        47.0000  34.2500  28.5000 Du        
   2668 ****        47.0000  34.2500  28.7500 Du        
   2669 ****        47.0000  34.2500  29.0000 Du        
   2670 ****        47.0000  34.2500  29.2500 Du        
   2671 ****        47.0000  34.2500  29.5000 Du        
   2672 ****        47.0000  34.2500  29.7500 Du        
   2673 ****        47.0000  34.2500  30.0000 Du        
   2674 ****        47.0000  34.5000  28.5000 Du        
   2675 ****        47.0000  34.5000  28.7500 Du        
   2676 ****        47.0000  34.5000  29.0000 Du        
   2677 ****        47.0000  34.5000  29.2500 Du        
   2678 ****        47.0000  34.5000  29.5000 Du        
   2679 ****        47.0000  34.5000  29.7500 Du        
   2680 ****        47.0000  34.7500  28.5000 Du        
   2681 ****        47.0000  34.7500  28.7500 Du        
   2682 ****        47.0000  34.7500  29.0000 Du        
   2683 ****        47.0000  34.7500  29.2500 Du        
   2684 ****        47.0000  34.7500  29.5000 Du        
   2685 ****        47.0000  35.0000  28.7500 Du        
   2686 ****        47.2500  28.5000  33.5000 Du        
   2687 ****        47.2500  28.7500  33.2500 Du        
   2688 ****        47.2500  28.7500  33.5000 Du        
   2689 ****        47.2500  28.7500  33.7500 Du        
   2690 ****        47.2500  29.0000  33.2500 Du        
   2691 ****        47.2500  29.0000  33.5000 Du        
   2692 ****        47.2500  29.0000  33.7500 Du        
   2693 ****        47.2500  29.2500  33.2500 Du        
   2694 ****        47.2500  29.2500  33.5000 Du        
   2695 ****        47.2500  29.2500  33.7500 Du        
   2696 ****        47.2500  29.2500  34.0000 Du        
   2697 ****        47.2500  29.5000  33.0000 Du        
   2698 ****        47.2500  29.5000  33.2500 Du        
   2699 ****        47.2500  29.5000  33.5000 Du        
   2700 ****        47.2500  29.5000  33.7500 Du        
   2701 ****        47.2500  29.7500  33.0000 Du        
   2702 ****        47.2500  29.7500  33.2500 Du        
   2703 ****        47.2500  29.7500  33.5000 Du        
   2704 ****        47.2500  29.7500  33.7500 Du        
   2705 ****        47.2500  30.0000  33.5000 Du        
   2706 ****        47.2500  34.2500  28.7500 Du        
   2707 ****        47.2500  34.2500  29.0000 Du        
   2708 ****        47.2500  34.5000  28.5000 Du        
   2709 ****        47.2500  34.5000  28.7500 Du        
   2710 ****        47.2500  34.5000  29.0000 Du        
   2711 ****        47.2500  34.5000  29.2500 Du        
   2712 ****        47.2500  34.5000  29.5000 Du        
   2713 ****        47.2500  34.7500  28.5000 Du        
   2714 ****        47.2500  34.7500  28.7500 Du        
   2715 ****        47.2500  34.7500  29.0000 Du        
   2716 ****        47.2500  34.7500  29.2500 Du        
   2717 ****        47.2500  35.0000  28.7500 Du        
   2718 ****        47.2500  35.0000  29.0000 Du        
   2719 ****        47.5000  28.5000  33.5000 Du        
   2720 ****        47.5000  28.7500  33.0000 Du        
   2721 ****        47.5000  28.7500  33.2500 Du        
   2722 ****        47.5000  28.7500  33.5000 Du        
   2723 ****        47.5000  29.0000  33.0000 Du        
   2724 ****        47.5000  29.0000  33.2500 Du        
   2725 ****        47.5000  29.0000  33.5000 Du        
   2726 ****        47.5000  29.2500  33.0000 Du        
   2727 ****        47.5000  29.2500  33.2500 Du        
   2728 ****        47.5000  29.2500  33.5000 Du        
   2729 ****        47.5000  29.5000  33.0000 Du        
   2730 ****        47.5000  29.5000  33.2500 Du        
   2731 ****        47.5000  29.5000  33.5000 Du        
   2732 ****        47.5000  29.5000  33.7500 Du        
   2733 ****        47.5000  29.7500  33.0000 Du        
   2734 ****        47.5000  29.7500  33.2500 Du        
   2735 ****        47.5000  29.7500  33.5000 Du        
   2736 ****        47.5000  29.7500  33.7500 Du        
   2737 ****        47.5000  30.0000  33.2500 Du        
   2738 ****        47.5000  30.0000  33.5000 Du        
   2739 ****        47.5000  33.0000  32.5000 Du        
   2740 ****        47.5000  34.5000  28.5000 Du        
   2741 ****        47.5000  34.5000  28.7500 Du        
   2742 ****        47.5000  34.5000  29.0000 Du        
   2743 ****        47.5000  34.7500  28.5000 Du        
   2744 ****        47.5000  34.7500  28.7500 Du        
   2745 ****        47.5000  34.7500  29.0000 Du        
   2746 ****        47.5000  34.7500  29.2500 Du        
   2747 ****        47.5000  35.0000  28.5000 Du        
   2748 ****        47.5000  35.0000  28.7500 Du        
   2749 ****        47.5000  35.0000  29.0000 Du        
   2750 ****        47.7500  28.7500  33.0000 Du        
   2751 ****        47.7500  28.7500  33.2500 Du        
   2752 ****        47.7500  29.0000  33.0000 Du        
   2753 ****        47.7500  29.0000  33.2500 Du        
   2754 ****        47.7500  29.2500  33.0000 Du        
   2755 ****        47.7500  29.2500  33.2500 Du        
   2756 ****        47.7500  29.5000  33.5000 Du        
   2757 ****        47.7500  29.7500  33.5000 Du        
   2758 ****        47.7500  30.0000  33.2500 Du        
   2759 ****        47.7500  30.0000  33.5000 Du        
   2760 ****        47.7500  32.5000  32.7500 Du        
   2761 ****        47.7500  32.7500  32.7500 Du        
   2762 ****        47.7500  32.7500  33.0000 Du        
   2763 ****        47.7500  32.7500  33.2500 Du        
   2764 ****        47.7500  33.0000  32.5000 Du        
   2765 ****        47.7500  33.0000  32.7500 Du        
   2766 ****        47.7500  33.0000  33.0000 Du        
   2767 ****        47.7500  33.0000  33.2500 Du        
   2768 ****        47.7500  33.2500  32.5000 Du        
   2769 ****        47.7500  33.2500  32.7500 Du        
   2770 ****        47.7500  33.2500  33.0000 Du        
   2771 ****        47.7500  34.5000  28.7500 Du        
   2772 ****        47.7500  34.7500  28.2500 Du        
   2773 ****        47.7500  34.7500  28.5000 Du        
   2774 ****        47.7500  34.7500  28.7500 Du        
   2775 ****        47.7500  34.7500  29.0000 Du        
   2776 ****        47.7500  35.0000  28.2500 Du        
   2777 ****        47.7500  35.0000  28.5000 Du        
   2778 ****        47.7500  35.0000  28.7500 Du        
   2779 ****        47.7500  35.0000  29.0000 Du        
   2780 ****        47.7500  35.2500  28.5000 Du        
   2781 ****        48.0000  28.7500  33.0000 Du        
   2782 ****        48.0000  30.5000  33.5000 Du        
   2783 ****        48.0000  30.7500  33.2500 Du        
   2784 ****        48.0000  30.7500  33.5000 Du        
   2785 ****        48.0000  31.0000  33.2500 Du        
   2786 ****        48.0000  31.0000  33.5000 Du        
   2787 ****        48.0000  31.2500  33.5000 Du        
   2788 ****        48.0000  32.0000  33.0000 Du        
   2789 ****        48.0000  32.2500  33.0000 Du        
   2790 ****        48.0000  32.2500  33.2500 Du        
   2791 ****        48.0000  32.2500  33.5000 Du        
   2792 ****        48.0000  32.5000  32.7500 Du        
   2793 ****        48.0000  32.5000  33.0000 Du        
   2794 ****        48.0000  32.5000  33.2500 Du        
   2795 ****        48.0000  32.5000  33.5000 Du        
   2796 ****        48.0000  32.7500  32.5000 Du        
   2797 ****        48.0000  32.7500  32.7500 Du        
   2798 ****        48.0000  32.7500  33.0000 Du        
   2799 ****        48.0000  32.7500  33.2500 Du        
   2800 ****        48.0000  32.7500  33.5000 Du        
   2801 ****        48.0000  32.7500  33.7500 Du        
   2802 ****        48.0000  33.0000  32.2500 Du        
   2803 ****        48.0000  33.0000  32.5000 Du        
   2804 ****        48.0000  33.0000  32.7500 Du        
   2805 ****        48.0000  33.0000  33.0000 Du        
   2806 ****        48.0000  33.0000  33.2500 Du        
   2807 ****        48.0000  33.0000  33.5000 Du        
   2808 ****        48.0000  33.0000  33.7500 Du        
   2809 ****        48.0000  33.2500  32.0000 Du        
   2810 ****        48.0000  33.2500  32.2500 Du        
   2811 ****        48.0000  33.2500  32.5000 Du        
   2812 ****        48.0000  33.2500  32.7500 Du        
   2813 ****        48.0000  33.2500  33.0000 Du        
   2814 ****        48.0000  33.2500  33.2500 Du        
   2815 ****        48.0000  33.2500  33.5000 Du        
   2816 ****        48.0000  33.2500  33.7500 Du        
   2817 ****        48.0000  34.7500  28.2500 Du        
   2818 ****        48.0000  34.7500  28.5000 Du        
   2819 ****        48.0000  34.7500  28.7500 Du        
   2820 ****        48.0000  35.0000  28.2500 Du        
   2821 ****        48.0000  35.0000  28.5000 Du        
   2822 ****        48.0000  35.0000  28.7500 Du        
   2823 ****        48.0000  35.2500  28.2500 Du        
   2824 ****        48.0000  35.2500  28.5000 Du        
   2825 ****        48.0000  35.2500  28.7500 Du        
   2826 ****        48.0000  35.5000  28.2500 Du        
   2827 ****        48.2500  26.0000  33.0000 Du        
   2828 ****        48.2500  26.0000  33.2500 Du        
   2829 ****        48.2500  26.0000  33.5000 Du        
   2830 ****        48.2500  26.2500  33.0000 Du        
   2831 ****        48.2500  26.2500  33.2500 Du        
   2832 ****        48.2500  26.2500  33.5000 Du        
   2833 ****        48.2500  26.5000  33.0000 Du        
   2834 ****        48.2500  26.5000  33.2500 Du        
   2835 ****        48.2500  26.5000  33.5000 Du        
   2836 ****        48.2500  26.7500  33.0000 Du        
   2837 ****        48.2500  26.7500  33.2500 Du        
   2838 ****        48.2500  26.7500  33.5000 Du        
   2839 ****        48.2500  27.0000  33.2500 Du        
   2840 ****        48.2500  27.0000  33.5000 Du        
   2841 ****        48.2500  30.5000  33.5000 Du        
   2842 ****        48.2500  30.7500  33.2500 Du        
   2843 ****        48.2500  30.7500  33.5000 Du        
   2844 ****        48.2500  30.7500  33.7500 Du        
   2845 ****        48.2500  31.0000  33.2500 Du        
   2846 ****        48.2500  31.0000  33.5000 Du        
   2847 ****        48.2500  31.0000  33.7500 Du        
   2848 ****        48.2500  31.0000  34.0000 Du        
   2849 ****        48.2500  31.2500  33.2500 Du        
   2850 ****        48.2500  31.2500  33.5000 Du        
   2851 ****        48.2500  31.2500  33.7500 Du        
   2852 ****        48.2500  31.2500  34.0000 Du        
   2853 ****        48.2500  31.5000  33.5000 Du        
   2854 ****        48.2500  31.5000  33.7500 Du        
   2855 ****        48.2500  31.7500  33.0000 Du        
   2856 ****        48.2500  31.7500  33.2500 Du        
   2857 ****        48.2500  31.7500  33.5000 Du        
   2858 ****        48.2500  31.7500  33.7500 Du        
   2859 ****        48.2500  32.0000  33.0000 Du        
   2860 ****        48.2500  32.0000  33.2500 Du        
   2861 ****        48.2500  32.0000  33.5000 Du        
   2862 ****        48.2500  32.0000  33.7500 Du        
   2863 ****        48.2500  32.2500  33.0000 Du        
   2864 ****        48.2500  32.2500  33.2500 Du        
   2865 ****        48.2500  32.2500  33.5000 Du        
   2866 ****        48.2500  32.2500  33.7500 Du        
   2867 ****        48.2500  32.5000  32.7500 Du        
   2868 ****        48.2500  32.5000  33.0000 Du        
   2869 ****        48.2500  32.5000  33.2500 Du        
   2870 ****        48.2500  32.5000  33.5000 Du        
   2871 ****        48.2500  32.5000  33.7500 Du        
   2872 ****        48.2500  32.5000  34.0000 Du        
   2873 ****        48.2500  32.7500  32.2500 Du        
   2874 ****        48.2500  32.7500  32.5000 Du        
   2875 ****        48.2500  32.7500  32.7500 Du        
   2876 ****        48.2500  32.7500  33.0000 Du        
   2877 ****        48.2500  32.7500  33.2500 Du        
   2878 ****        48.2500  32.7500  33.5000 Du        
   2879 ****        48.2500  32.7500  33.7500 Du        
   2880 ****        48.2500  32.7500  34.0000 Du        
   2881 ****        48.2500  33.0000  32.0000 Du        
   2882 ****        48.2500  33.0000  32.2500 Du        
   2883 ****        48.2500  33.0000  32.5000 Du        
   2884 ****        48.2500  33.0000  32.7500 Du        
   2885 ****        48.2500  33.0000  33.0000 Du        
   2886 ****        48.2500  33.0000  33.2500 Du        
   2887 ****        48.2500  33.0000  33.5000 Du        
   2888 ****        48.2500  33.0000  33.7500 Du        
   2889 ****        48.2500  33.0000  34.0000 Du        
   2890 ****        48.2500  33.0000  34.2500 Du        
   2891 ****        48.2500  33.2500  32.0000 Du        
   2892 ****        48.2500  33.2500  32.2500 Du        
   2893 ****        48.2500  33.2500  32.5000 Du        
   2894 ****        48.2500  33.2500  32.7500 Du        
   2895 ****        48.2500  33.2500  33.0000 Du        
   2896 ****        48.2500  33.2500  33.2500 Du        
   2897 ****        48.2500  33.2500  33.5000 Du        
   2898 ****        48.2500  33.2500  33.7500 Du        
   2899 ****        48.2500  33.2500  34.0000 Du        
   2900 ****        48.2500  33.2500  34.2500 Du        
   2901 ****        48.2500  33.5000  32.0000 Du        
   2902 ****        48.2500  33.5000  32.2500 Du        
   2903 ****        48.2500  33.5000  32.5000 Du        
   2904 ****        48.2500  33.5000  32.7500 Du        
   2905 ****        48.2500  33.5000  33.0000 Du        
   2906 ****        48.2500  33.5000  33.2500 Du        
   2907 ****        48.2500  33.5000  33.5000 Du        
   2908 ****        48.2500  33.5000  33.7500 Du        
   2909 ****        48.2500  33.5000  34.0000 Du        
   2910 ****        48.2500  33.7500  31.7500 Du        
   2911 ****        48.2500  35.0000  28.2500 Du        
   2912 ****        48.2500  35.0000  28.5000 Du        
   2913 ****        48.2500  35.2500  28.2500 Du        
   2914 ****        48.2500  35.5000  28.2500 Du        
   2915 ****        48.5000  26.0000  33.2500 Du        
   2916 ****        48.5000  26.0000  33.5000 Du        
   2917 ****        48.5000  26.2500  33.2500 Du        
   2918 ****        48.5000  26.2500  33.5000 Du        
   2919 ****        48.5000  26.5000  33.5000 Du        
   2920 ****        48.5000  26.7500  33.2500 Du        
   2921 ****        48.5000  26.7500  33.5000 Du        
   2922 ****        48.5000  30.7500  33.5000 Du        
   2923 ****        48.5000  31.0000  33.0000 Du        
   2924 ****        48.5000  31.0000  33.2500 Du        
   2925 ****        48.5000  31.0000  33.5000 Du        
   2926 ****        48.5000  31.0000  33.7500 Du        
   2927 ****        48.5000  31.2500  33.0000 Du        
   2928 ****        48.5000  31.2500  33.2500 Du        
   2929 ****        48.5000  31.2500  33.5000 Du        
   2930 ****        48.5000  31.2500  33.7500 Du        
   2931 ****        48.5000  31.2500  34.0000 Du        
   2932 ****        48.5000  31.5000  33.0000 Du        
   2933 ****        48.5000  31.5000  33.2500 Du        
   2934 ****        48.5000  31.5000  33.5000 Du        
   2935 ****        48.5000  31.5000  33.7500 Du        
   2936 ****        48.5000  31.5000  34.0000 Du        
   2937 ****        48.5000  31.7500  33.0000 Du        
   2938 ****        48.5000  31.7500  33.2500 Du        
   2939 ****        48.5000  31.7500  33.5000 Du        
   2940 ****        48.5000  31.7500  33.7500 Du        
   2941 ****        48.5000  31.7500  34.0000 Du        
   2942 ****        48.5000  32.0000  32.7500 Du        
   2943 ****        48.5000  32.0000  33.0000 Du        
   2944 ****        48.5000  32.0000  33.2500 Du        
   2945 ****        48.5000  32.0000  33.5000 Du        
   2946 ****        48.5000  32.0000  33.7500 Du        
   2947 ****        48.5000  32.0000  34.0000 Du        
   2948 ****        48.5000  32.0000  34.2500 Du        
   2949 ****        48.5000  32.2500  32.7500 Du        
   2950 ****        48.5000  32.2500  33.0000 Du        
   2951 ****        48.5000  32.2500  33.2500 Du        
   2952 ****        48.5000  32.2500  33.5000 Du        
   2953 ****        48.5000  32.2500  33.7500 Du        
   2954 ****        48.5000  32.2500  34.0000 Du        
   2955 ****        48.5000  32.5000  32.5000 Du        
   2956 ****        48.5000  32.5000  32.7500 Du        
   2957 ****        48.5000  32.5000  33.0000 Du        
   2958 ****        48.5000  32.5000  33.2500 Du        
   2959 ****        48.5000  32.5000  33.5000 Du        
   2960 ****        48.5000  32.5000  33.7500 Du        
   2961 ****        48.5000  32.5000  34.0000 Du        
   2962 ****        48.5000  32.5000  34.2500 Du        
   2963 ****        48.5000  32.7500  32.5000 Du        
   2964 ****        48.5000  32.7500  32.7500 Du        
   2965 ****        48.5000  32.7500  33.0000 Du        
   2966 ****        48.5000  32.7500  33.2500 Du        
   2967 ****        48.5000  32.7500  33.5000 Du        
   2968 ****        48.5000  32.7500  33.7500 Du        
   2969 ****        48.5000  32.7500  34.0000 Du        
   2970 ****        48.5000  32.7500  34.2500 Du        
   2971 ****        48.5000  33.0000  32.0000 Du        
   2972 ****        48.5000  33.0000  32.2500 Du        
   2973 ****        48.5000  33.0000  32.5000 Du        
   2974 ****        48.5000  33.0000  32.7500 Du        
   2975 ****        48.5000  33.0000  33.0000 Du        
   2976 ****        48.5000  33.0000  33.2500 Du        
   2977 ****        48.5000  33.0000  33.5000 Du        
   2978 ****        48.5000  33.0000  33.7500 Du        
   2979 ****        48.5000  33.0000  34.0000 Du        
   2980 ****        48.5000  33.0000  34.2500 Du        
   2981 ****        48.5000  33.0000  34.5000 Du        
   2982 ****        48.5000  33.2500  32.0000 Du        
   2983 ****        48.5000  33.2500  32.2500 Du        
   2984 ****        48.5000  33.2500  32.5000 Du        
   2985 ****        48.5000  33.2500  32.7500 Du        
   2986 ****        48.5000  33.2500  33.0000 Du        
   2987 ****        48.5000  33.2500  33.2500 Du        
   2988 ****        48.5000  33.2500  33.5000 Du        
   2989 ****        48.5000  33.2500  33.7500 Du        
   2990 ****        48.5000  33.2500  34.0000 Du        
   2991 ****        48.5000  33.2500  34.2500 Du        
   2992 ****        48.5000  33.5000  31.7500 Du        
   2993 ****        48.5000  33.5000  32.0000 Du        
   2994 ****        48.5000  33.5000  32.2500 Du        
   2995 ****        48.5000  33.5000  32.5000 Du        
   2996 ****        48.5000  33.5000  32.7500 Du        
   2997 ****        48.5000  33.5000  33.0000 Du        
   2998 ****        48.5000  33.5000  33.2500 Du        
   2999 ****        48.5000  33.5000  33.5000 Du        
   3000 ****        48.5000  33.5000  33.7500 Du        
   3001 ****        48.5000  33.5000  34.0000 Du        
   3002 ****        48.5000  33.5000  34.2500 Du        
   3003 ****        48.5000  33.7500  31.7500 Du        
   3004 ****        48.5000  33.7500  32.0000 Du        
   3005 ****        48.5000  33.7500  32.2500 Du        
   3006 ****        48.5000  33.7500  32.5000 Du        
   3007 ****        48.5000  33.7500  32.7500 Du        
   3008 ****        48.5000  33.7500  33.0000 Du        
   3009 ****        48.5000  33.7500  33.2500 Du        
   3010 ****        48.5000  33.7500  33.5000 Du        
   3011 ****        48.5000  33.7500  33.7500 Du        
   3012 ****        48.5000  33.7500  34.0000 Du        
   3013 ****        48.5000  33.7500  34.2500 Du        
   3014 ****        48.7500  26.0000  33.2500 Du        
   3015 ****        48.7500  26.0000  33.5000 Du        
   3016 ****        48.7500  26.2500  33.2500 Du        
   3017 ****        48.7500  26.2500  33.5000 Du        
   3018 ****        48.7500  26.5000  33.2500 Du        
   3019 ****        48.7500  31.0000  33.0000 Du        
   3020 ****        48.7500  31.0000  33.2500 Du        
   3021 ****        48.7500  31.0000  33.5000 Du        
   3022 ****        48.7500  31.0000  33.7500 Du        
   3023 ****        48.7500  31.2500  33.0000 Du        
   3024 ****        48.7500  31.2500  33.2500 Du        
   3025 ****        48.7500  31.2500  33.5000 Du        
   3026 ****        48.7500  31.2500  33.7500 Du        
   3027 ****        48.7500  31.5000  33.0000 Du        
   3028 ****        48.7500  31.5000  33.2500 Du        
   3029 ****        48.7500  31.5000  33.5000 Du        
   3030 ****        48.7500  31.5000  33.7500 Du        
   3031 ****        48.7500  31.7500  33.0000 Du        
   3032 ****        48.7500  31.7500  33.2500 Du        
   3033 ****        48.7500  31.7500  33.5000 Du        
   3034 ****        48.7500  31.7500  33.7500 Du        
   3035 ****        48.7500  32.0000  32.7500 Du        
   3036 ****        48.7500  32.0000  33.0000 Du        
   3037 ****        48.7500  32.0000  33.2500 Du        
   3038 ****        48.7500  32.0000  33.5000 Du        
   3039 ****        48.7500  32.0000  33.7500 Du        
   3040 ****        48.7500  32.2500  32.7500 Du        
   3041 ****        48.7500  32.2500  33.0000 Du        
   3042 ****        48.7500  32.2500  33.2500 Du        
   3043 ****        48.7500  32.2500  33.5000 Du        
   3044 ****        48.7500  32.2500  33.7500 Du        
   3045 ****        48.7500  32.5000  32.5000 Du        
   3046 ****        48.7500  32.5000  32.7500 Du        
   3047 ****        48.7500  32.5000  33.0000 Du        
   3048 ****        48.7500  32.5000  33.2500 Du        
   3049 ****        48.7500  32.5000  33.5000 Du        
   3050 ****        48.7500  32.5000  33.7500 Du        
   3051 ****        48.7500  32.7500  32.2500 Du        
   3052 ****        48.7500  32.7500  32.5000 Du        
   3053 ****        48.7500  32.7500  32.7500 Du        
   3054 ****        48.7500  32.7500  33.0000 Du        
   3055 ****        48.7500  32.7500  33.2500 Du        
   3056 ****        48.7500  32.7500  33.5000 Du        
   3057 ****        48.7500  32.7500  33.7500 Du        
   3058 ****        48.7500  32.7500  34.0000 Du        
   3059 ****        48.7500  33.0000  32.0000 Du        
   3060 ****        48.7500  33.0000  32.2500 Du        
   3061 ****        48.7500  33.0000  32.5000 Du        
   3062 ****        48.7500  33.0000  32.7500 Du        
   3063 ****        48.7500  33.0000  33.0000 Du        
   3064 ****        48.7500  33.0000  33.2500 Du        
   3065 ****        48.7500  33.0000  33.5000 Du        
   3066 ****        48.7500  33.0000  33.7500 Du        
   3067 ****        48.7500  33.0000  34.0000 Du        
   3068 ****        48.7500  33.2500  31.7500 Du        
   3069 ****        48.7500  33.2500  32.0000 Du        
   3070 ****        48.7500  33.2500  32.2500 Du        
   3071 ****        48.7500  33.2500  32.5000 Du        
   3072 ****        48.7500  33.2500  32.7500 Du        
   3073 ****        48.7500  33.2500  33.0000 Du        
   3074 ****        48.7500  33.2500  33.2500 Du        
   3075 ****        48.7500  33.2500  33.5000 Du        
   3076 ****        48.7500  33.2500  33.7500 Du        
   3077 ****        48.7500  33.2500  34.0000 Du        
   3078 ****        48.7500  33.2500  34.2500 Du        
   3079 ****        48.7500  33.5000  31.7500 Du        
   3080 ****        48.7500  33.5000  32.0000 Du        
   3081 ****        48.7500  33.5000  32.2500 Du        
   3082 ****        48.7500  33.5000  32.5000 Du        
   3083 ****        48.7500  33.5000  32.7500 Du        
   3084 ****        48.7500  33.5000  33.0000 Du        
   3085 ****        48.7500  33.5000  33.2500 Du        
   3086 ****        48.7500  33.5000  33.5000 Du        
   3087 ****        48.7500  33.5000  33.7500 Du        
   3088 ****        48.7500  33.5000  34.0000 Du        
   3089 ****        48.7500  33.5000  34.2500 Du        
   3090 ****        48.7500  33.7500  31.5000 Du        
   3091 ****        48.7500  33.7500  31.7500 Du        
   3092 ****        48.7500  33.7500  32.0000 Du        
   3093 ****        48.7500  33.7500  32.2500 Du        
   3094 ****        48.7500  33.7500  32.5000 Du        
   3095 ****        48.7500  33.7500  32.7500 Du        
   3096 ****        48.7500  33.7500  33.0000 Du        
   3097 ****        48.7500  33.7500  33.2500 Du        
   3098 ****        48.7500  33.7500  33.5000 Du        
   3099 ****        48.7500  33.7500  33.7500 Du        
   3100 ****        48.7500  33.7500  34.0000 Du        
   3101 ****        48.7500  33.7500  34.2500 Du        
   3102 ****        48.7500  34.0000  31.7500 Du        
   3103 ****        48.7500  34.0000  32.0000 Du        
   3104 ****        48.7500  34.0000  32.2500 Du        
   3105 ****        48.7500  34.0000  32.5000 Du        
   3106 ****        48.7500  34.0000  32.7500 Du        
   3107 ****        48.7500  34.0000  33.0000 Du        
   3108 ****        48.7500  34.0000  33.2500 Du        
   3109 ****        48.7500  34.0000  33.5000 Du        
   3110 ****        48.7500  34.0000  33.7500 Du        
   3111 ****        48.7500  34.0000  34.0000 Du        
   3112 ****        48.7500  34.0000  34.2500 Du        
   3113 ****        49.0000  31.7500  33.0000 Du        
   3114 ****        49.0000  31.7500  33.2500 Du        
   3115 ****        49.0000  32.0000  32.7500 Du        
   3116 ****        49.0000  32.0000  33.0000 Du        
   3117 ****        49.0000  32.0000  33.2500 Du        
   3118 ****        49.0000  32.2500  32.5000 Du        
   3119 ****        49.0000  32.2500  32.7500 Du        
   3120 ****        49.0000  32.2500  33.0000 Du        
   3121 ****        49.0000  32.2500  33.2500 Du        
   3122 ****        49.0000  32.5000  32.5000 Du        
   3123 ****        49.0000  32.5000  32.7500 Du        
   3124 ****        49.0000  32.5000  33.0000 Du        
   3125 ****        49.0000  32.7500  32.2500 Du        
   3126 ****        49.0000  32.7500  32.5000 Du        
   3127 ****        49.0000  32.7500  32.7500 Du        
   3128 ****        49.0000  32.7500  33.0000 Du        
   3129 ****        49.0000  32.7500  33.2500 Du        
   3130 ****        49.0000  32.7500  33.5000 Du        
   3131 ****        49.0000  33.0000  32.0000 Du        
   3132 ****        49.0000  33.0000  32.2500 Du        
   3133 ****        49.0000  33.0000  32.5000 Du        
   3134 ****        49.0000  33.0000  32.7500 Du        
   3135 ****        49.0000  33.0000  33.0000 Du        
   3136 ****        49.0000  33.0000  33.2500 Du        
   3137 ****        49.0000  33.0000  33.5000 Du        
   3138 ****        49.0000  33.2500  31.7500 Du        
   3139 ****        49.0000  33.2500  32.0000 Du        
   3140 ****        49.0000  33.2500  32.2500 Du        
   3141 ****        49.0000  33.2500  32.5000 Du        
   3142 ****        49.0000  33.2500  32.7500 Du        
   3143 ****        49.0000  33.2500  33.0000 Du        
   3144 ****        49.0000  33.2500  33.2500 Du        
   3145 ****        49.0000  33.2500  33.5000 Du        
   3146 ****        49.0000  33.2500  33.7500 Du        
   3147 ****        49.0000  33.5000  31.5000 Du        
   3148 ****        49.0000  33.5000  31.7500 Du        
   3149 ****        49.0000  33.5000  32.0000 Du        
   3150 ****        49.0000  33.5000  32.2500 Du        
   3151 ****        49.0000  33.5000  32.5000 Du        
   3152 ****        49.0000  33.5000  32.7500 Du        
   3153 ****        49.0000  33.5000  33.0000 Du        
   3154 ****        49.0000  33.5000  33.2500 Du        
   3155 ****        49.0000  33.5000  33.5000 Du        
   3156 ****        49.0000  33.5000  33.7500 Du        
   3157 ****        49.0000  33.5000  34.0000 Du        
   3158 ****        49.0000  33.7500  31.5000 Du        
   3159 ****        49.0000  33.7500  31.7500 Du        
   3160 ****        49.0000  33.7500  32.0000 Du        
   3161 ****        49.0000  33.7500  32.2500 Du        
   3162 ****        49.0000  33.7500  32.5000 Du        
   3163 ****        49.0000  33.7500  32.7500 Du        
   3164 ****        49.0000  33.7500  33.0000 Du        
   3165 ****        49.0000  33.7500  33.2500 Du        
   3166 ****        49.0000  33.7500  33.5000 Du        
   3167 ****        49.0000  33.7500  33.7500 Du        
   3168 ****        49.0000  33.7500  34.0000 Du        
   3169 ****        49.0000  34.0000  31.5000 Du        
   3170 ****        49.0000  34.0000  31.7500 Du        
   3171 ****        49.0000  34.0000  32.0000 Du        
   3172 ****        49.0000  34.0000  32.2500 Du        
   3173 ****        49.0000  34.0000  32.5000 Du        
   3174 ****        49.0000  34.0000  32.7500 Du        
   3175 ****        49.0000  34.0000  33.0000 Du        
   3176 ****        49.0000  34.0000  33.2500 Du        
   3177 ****        49.0000  34.0000  33.5000 Du        
   3178 ****        49.0000  34.0000  33.7500 Du        
   3179 ****        49.0000  34.0000  34.0000 Du        
   3180 ****        49.0000  34.0000  34.2500 Du        
   3181 ****        49.0000  34.2500  32.0000 Du        
   3182 ****        49.0000  34.2500  32.2500 Du        
   3183 ****        49.0000  34.2500  32.5000 Du        
   3184 ****        49.0000  34.2500  32.7500 Du        
   3185 ****        49.0000  34.2500  33.0000 Du        
   3186 ****        49.0000  34.2500  33.2500 Du        
   3187 ****        49.0000  34.2500  33.5000 Du        
   3188 ****        49.0000  34.2500  33.7500 Du        
   3189 ****        49.0000  34.2500  34.0000 Du        
   3190 ****        49.0000  36.5000  28.0000 Du        
   3191 ****        49.0000  36.7500  28.0000 Du        
   3192 ****        49.2500  32.5000  32.7500 Du        
   3193 ****        49.2500  32.7500  32.2500 Du        
   3194 ****        49.2500  32.7500  32.5000 Du        
   3195 ****        49.2500  32.7500  32.7500 Du        
   3196 ****        49.2500  32.7500  33.0000 Du        
   3197 ****        49.2500  33.0000  32.0000 Du        
   3198 ****        49.2500  33.0000  32.2500 Du        
   3199 ****        49.2500  33.0000  32.5000 Du        
   3200 ****        49.2500  33.0000  32.7500 Du        
   3201 ****        49.2500  33.0000  33.0000 Du        
   3202 ****        49.2500  33.2500  31.7500 Du        
   3203 ****        49.2500  33.2500  32.0000 Du        
   3204 ****        49.2500  33.2500  32.2500 Du        
   3205 ****        49.2500  33.2500  32.5000 Du        
   3206 ****        49.2500  33.2500  32.7500 Du        
   3207 ****        49.2500  33.2500  33.0000 Du        
   3208 ****        49.2500  33.2500  33.2500 Du        
   3209 ****        49.2500  33.5000  31.5000 Du        
   3210 ****        49.2500  33.5000  31.7500 Du        
   3211 ****        49.2500  33.5000  32.0000 Du        
   3212 ****        49.2500  33.5000  32.2500 Du        
   3213 ****        49.2500  33.5000  32.5000 Du        
   3214 ****        49.2500  33.5000  32.7500 Du        
   3215 ****        49.2500  33.5000  33.0000 Du        
   3216 ****        49.2500  33.5000  33.2500 Du        
   3217 ****        49.2500  33.5000  33.5000 Du        
   3218 ****        49.2500  33.7500  31.5000 Du        
   3219 ****        49.2500  33.7500  31.7500 Du        
   3220 ****        49.2500  33.7500  32.0000 Du        
   3221 ****        49.2500  33.7500  32.2500 Du        
   3222 ****        49.2500  33.7500  32.5000 Du        
   3223 ****        49.2500  33.7500  32.7500 Du        
   3224 ****        49.2500  33.7500  33.0000 Du        
   3225 ****        49.2500  33.7500  33.2500 Du        
   3226 ****        49.2500  33.7500  33.5000 Du        
   3227 ****        49.2500  33.7500  33.7500 Du        
   3228 ****        49.2500  34.0000  31.5000 Du        
   3229 ****        49.2500  34.0000  31.7500 Du        
   3230 ****        49.2500  34.0000  32.0000 Du        
   3231 ****        49.2500  34.0000  32.2500 Du        
   3232 ****        49.2500  34.0000  32.5000 Du        
   3233 ****        49.2500  34.0000  32.7500 Du        
   3234 ****        49.2500  34.0000  33.0000 Du        
   3235 ****        49.2500  34.0000  33.2500 Du        
   3236 ****        49.2500  34.0000  33.5000 Du        
   3237 ****        49.2500  34.0000  33.7500 Du        
   3238 ****        49.2500  34.2500  31.7500 Du        
   3239 ****        49.2500  34.2500  32.0000 Du        
   3240 ****        49.2500  34.2500  32.2500 Du        
   3241 ****        49.2500  34.2500  32.5000 Du        
   3242 ****        49.2500  34.2500  32.7500 Du        
   3243 ****        49.2500  34.2500  33.0000 Du        
   3244 ****        49.2500  34.2500  33.2500 Du        
   3245 ****        49.2500  34.2500  33.5000 Du        
   3246 ****        49.2500  34.2500  33.7500 Du        
   3247 ****        49.2500  34.5000  32.5000 Du        
   3248 ****        49.2500  34.5000  32.7500 Du        
   3249 ****        49.2500  34.5000  33.0000 Du        
   3250 ****        49.2500  34.5000  33.2500 Du        
   3251 ****        49.2500  34.5000  33.5000 Du        
   3252 ****        49.2500  36.7500  28.0000 Du        
   3253 ****        49.5000  32.7500  32.5000 Du        
   3254 ****        49.5000  33.0000  32.0000 Du        
   3255 ****        49.5000  33.0000  32.2500 Du        
   3256 ****        49.5000  33.0000  32.5000 Du        
   3257 ****        49.5000  33.0000  32.7500 Du        
   3258 ****        49.5000  33.2500  31.7500 Du        
   3259 ****        49.5000  33.2500  32.0000 Du        
   3260 ****        49.5000  33.2500  32.2500 Du        
   3261 ****        49.5000  33.2500  32.5000 Du        
   3262 ****        49.5000  33.2500  32.7500 Du        
   3263 ****        49.5000  33.2500  33.0000 Du        
   3264 ****        49.5000  33.5000  31.5000 Du        
   3265 ****        49.5000  33.5000  31.7500 Du        
   3266 ****        49.5000  33.5000  32.0000 Du        
   3267 ****        49.5000  33.5000  32.2500 Du        
   3268 ****        49.5000  33.5000  32.5000 Du        
   3269 ****        49.5000  33.5000  32.7500 Du        
   3270 ****        49.5000  33.5000  33.0000 Du        
   3271 ****        49.5000  33.7500  31.5000 Du        
   3272 ****        49.5000  33.7500  31.7500 Du        
   3273 ****        49.5000  33.7500  32.0000 Du        
   3274 ****        49.5000  33.7500  32.2500 Du        
   3275 ****        49.5000  33.7500  32.5000 Du        
   3276 ****        49.5000  33.7500  32.7500 Du        
   3277 ****        49.5000  33.7500  33.0000 Du        
   3278 ****        49.5000  33.7500  33.2500 Du        
   3279 ****        49.5000  34.0000  31.5000 Du        
   3280 ****        49.5000  34.0000  31.7500 Du        
   3281 ****        49.5000  34.0000  32.0000 Du        
   3282 ****        49.5000  34.0000  32.2500 Du        
   3283 ****        49.5000  34.0000  32.5000 Du        
   3284 ****        49.5000  34.0000  32.7500 Du        
   3285 ****        49.5000  34.0000  33.0000 Du        
   3286 ****        49.5000  34.0000  33.2500 Du        
   3287 ****        49.5000  34.0000  33.5000 Du        
   3288 ****        49.5000  34.2500  31.5000 Du        
   3289 ****        49.5000  34.2500  31.7500 Du        
   3290 ****        49.5000  34.2500  32.0000 Du        
   3291 ****        49.5000  34.2500  32.2500 Du        
   3292 ****        49.5000  34.2500  32.5000 Du        
   3293 ****        49.5000  34.2500  32.7500 Du        
   3294 ****        49.5000  34.2500  33.0000 Du        
   3295 ****        49.5000  34.2500  33.2500 Du        
   3296 ****        49.5000  34.2500  33.5000 Du        
   3297 ****        49.5000  34.5000  32.2500 Du        
   3298 ****        49.5000  34.5000  32.5000 Du        
   3299 ****        49.5000  34.5000  32.7500 Du        
   3300 ****        49.5000  34.5000  33.0000 Du        
   3301 ****        49.5000  34.5000  33.2500 Du        
   3302 ****        49.7500  33.0000  32.0000 Du        
   3303 ****        49.7500  33.0000  32.2500 Du        
   3304 ****        49.7500  33.0000  32.5000 Du        
   3305 ****        49.7500  33.2500  31.7500 Du        
   3306 ****        49.7500  33.2500  32.0000 Du        
   3307 ****        49.7500  33.2500  32.2500 Du        
   3308 ****        49.7500  33.2500  32.5000 Du        
   3309 ****        49.7500  33.2500  32.7500 Du        
   3310 ****        49.7500  33.5000  31.5000 Du        
   3311 ****        49.7500  33.5000  31.7500 Du        
   3312 ****        49.7500  33.5000  32.0000 Du        
   3313 ****        49.7500  33.5000  32.2500 Du        
   3314 ****        49.7500  33.5000  32.5000 Du        
   3315 ****        49.7500  33.5000  32.7500 Du        
   3316 ****        49.7500  33.7500  31.5000 Du        
   3317 ****        49.7500  33.7500  31.7500 Du        
   3318 ****        49.7500  33.7500  32.0000 Du        
   3319 ****        49.7500  33.7500  32.2500 Du        
   3320 ****        49.7500  33.7500  32.5000 Du        
   3321 ****        49.7500  33.7500  32.7500 Du        
   3322 ****        49.7500  33.7500  33.0000 Du        
   3323 ****        49.7500  34.0000  31.5000 Du        
   3324 ****        49.7500  34.0000  31.7500 Du        
   3325 ****        49.7500  34.0000  32.0000 Du        
   3326 ****        49.7500  34.0000  32.2500 Du        
   3327 ****        49.7500  34.0000  32.5000 Du        
   3328 ****        49.7500  34.0000  32.7500 Du        
   3329 ****        49.7500  34.0000  33.0000 Du        
   3330 ****        49.7500  34.0000  33.2500 Du        
   3331 ****        49.7500  34.2500  31.5000 Du        
   3332 ****        49.7500  34.2500  31.7500 Du        
   3333 ****        49.7500  34.2500  32.0000 Du        
   3334 ****        49.7500  34.2500  32.2500 Du        
   3335 ****        49.7500  34.2500  32.5000 Du        
   3336 ****        49.7500  34.2500  32.7500 Du        
   3337 ****        49.7500  34.2500  33.0000 Du        
   3338 ****        49.7500  34.2500  33.2500 Du        
   3339 ****        49.7500  34.5000  32.0000 Du        
   3340 ****        49.7500  34.5000  32.2500 Du        
   3341 ****        49.7500  34.5000  32.5000 Du        
   3342 ****        49.7500  34.5000  32.7500 Du        
   3343 ****        49.7500  34.5000  33.0000 Du        
   3344 ****        50.0000  33.0000  32.0000 Du        
   3345 ****        50.0000  33.0000  32.2500 Du        
   3346 ****        50.0000  33.2500  31.7500 Du        
   3347 ****        50.0000  33.2500  32.0000 Du        
   3348 ****        50.0000  33.2500  32.2500 Du        
   3349 ****        50.0000  33.2500  32.5000 Du        
   3350 ****        50.0000  33.5000  31.5000 Du        
   3351 ****        50.0000  33.5000  31.7500 Du        
   3352 ****        50.0000  33.5000  32.0000 Du        
   3353 ****        50.0000  33.5000  32.2500 Du        
   3354 ****        50.0000  33.5000  32.5000 Du        
   3355 ****        50.0000  33.5000  32.7500 Du        
   3356 ****        50.0000  33.7500  31.5000 Du        
   3357 ****        50.0000  33.7500  31.7500 Du        
   3358 ****        50.0000  33.7500  32.0000 Du        
   3359 ****        50.0000  33.7500  32.2500 Du        
   3360 ****        50.0000  33.7500  32.5000 Du        
   3361 ****        50.0000  33.7500  32.7500 Du        
   3362 ****        50.0000  34.0000  31.5000 Du        
   3363 ****        50.0000  34.0000  31.7500 Du        
   3364 ****        50.0000  34.0000  32.0000 Du        
   3365 ****        50.0000  34.0000  32.2500 Du        
   3366 ****        50.0000  34.0000  32.5000 Du        
   3367 ****        50.0000  34.0000  32.7500 Du        
   3368 ****        50.0000  34.0000  33.0000 Du        
   3369 ****        50.0000  34.2500  31.5000 Du        
   3370 ****        50.0000  34.2500  31.7500 Du        
   3371 ****        50.0000  34.2500  32.0000 Du        
   3372 ****        50.0000  34.2500  32.2500 Du        
   3373 ****        50.0000  34.2500  32.5000 Du        
   3374 ****        50.0000  34.2500  32.7500 Du        
   3375 ****        50.0000  34.2500  33.0000 Du        
   3376 ****        50.0000  34.5000  32.0000 Du        
   3377 ****        50.0000  34.5000  32.2500 Du        
   3378 ****        50.0000  34.5000  32.5000 Du        
   3379 ****        50.2500  33.0000  32.0000 Du        
   3380 ****        50.2500  33.0000  32.2500 Du        
   3381 ****        50.2500  33.2500  31.7500 Du        
   3382 ****        50.2500  33.2500  32.0000 Du        
   3383 ****        50.2500  33.2500  32.2500 Du        
   3384 ****        50.2500  33.5000  31.5000 Du        
   3385 ****        50.2500  33.5000  31.7500 Du        
   3386 ****        50.2500  33.5000  32.0000 Du        
   3387 ****        50.2500  33.5000  32.2500 Du        
   3388 ****        50.2500  33.5000  32.5000 Du        
   3389 ****        50.2500  33.7500  31.5000 Du        
   3390 ****        50.2500  33.7500  31.7500 Du        
   3391 ****        50.2500  33.7500  32.0000 Du        
   3392 ****        50.2500  33.7500  32.2500 Du        
   3393 ****        50.2500  33.7500  32.5000 Du        
   3394 ****        50.2500  34.0000  31.5000 Du        
   3395 ****        50.2500  34.0000  31.7500 Du        
   3396 ****        50.2500  34.0000  32.0000 Du        
   3397 ****        50.2500  34.0000  32.2500 Du        
   3398 ****        50.2500  34.0000  32.5000 Du        
   3399 ****        50.2500  34.0000  32.7500 Du        
   3400 ****        50.2500  34.2500  31.7500 Du        
   3401 ****        50.2500  34.2500  32.0000 Du        
   3402 ****        50.2500  34.2500  32.2500 Du        
   3403 ****        50.2500  34.2500  32.5000 Du        
   3404 ****        50.5000  33.2500  31.7500 Du        
   3405 ****        50.5000  33.2500  32.0000 Du        
   3406 ****        50.5000  33.5000  31.5000 Du        
   3407 ****        50.5000  33.5000  31.7500 Du        
   3408 ****        50.5000  33.5000  32.0000 Du        
   3409 ****        50.5000  33.5000  32.2500 Du        
   3410 ****        50.5000  33.7500  31.5000 Du        
   3411 ****        50.5000  33.7500  31.7500 Du        
   3412 ****        50.5000  33.7500  32.0000 Du        
   3413 ****        50.5000  33.7500  32.2500 Du        
   3414 ****        50.5000  33.7500  32.5000 Du        
   3415 ****        50.5000  34.0000  31.5000 Du        
   3416 ****        50.5000  34.0000  31.7500 Du        
   3417 ****        50.5000  34.0000  32.0000 Du        
   3418 ****        50.5000  34.0000  32.2500 Du        
   3419 ****        50.5000  34.0000  32.5000 Du        
   3420 ****        50.7500  33.0000  31.7500 Du        
   3421 ****        50.7500  33.2500  31.7500 Du        
   3422 ****        50.7500  33.2500  32.0000 Du        
   3423 ****        50.7500  33.5000  31.5000 Du        
   3424 ****        50.7500  33.5000  31.7500 Du        
   3425 ****        50.7500  33.5000  32.0000 Du        
   3426 ****        50.7500  33.5000  32.2500 Du        
   3427 ****        50.7500  33.7500  31.5000 Du        
   3428 ****        50.7500  33.7500  31.7500 Du        
   3429 ****        50.7500  33.7500  32.0000 Du        
   3430 ****        50.7500  33.7500  32.2500 Du        
   3431 ****        50.7500  34.0000  31.7500 Du        
   3432 ****        50.7500  34.0000  32.0000 Du        
   3433 ****        51.0000  33.2500  31.5000 Du        
   3434 ****        51.0000  33.2500  31.7500 Du        
   3435 ****        51.0000  33.2500  32.0000 Du        
   3436 ****        51.0000  33.5000  31.5000 Du        
   3437 ****        51.0000  33.5000  31.7500 Du        
   3438 ****        51.0000  33.5000  32.0000 Du        
   3439 ****        51.0000  33.5000  32.2500 Du        
   3440 ****        51.0000  33.7500  31.2500 Du        
   3441 ****        51.0000  33.7500  31.5000 Du        
   3442 ****        51.0000  33.7500  31.7500 Du        
   3443 ****        51.0000  33.7500  32.0000 Du        
   3444 ****        51.0000  34.0000  31.7500 Du        
   3445 ****        51.2500  33.2500  31.5000 Du        
   3446 ****        51.2500  33.2500  31.7500 Du        
   3447 ****        51.2500  33.5000  31.5000 Du        
   3448 ****        51.2500  33.5000  31.7500 Du        
   3449 ****        51.2500  33.5000  32.0000 Du        
   3450 ****        51.2500  33.7500  31.5000 Du        
   3451 ****        51.2500  33.7500  31.7500 Du        
   3452 ****        51.2500  33.7500  32.0000 Du        
   3453 ****        51.5000  33.2500  31.5000 Du        
   3454 ****        51.5000  33.2500  31.7500 Du        
   3455 ****        51.5000  33.5000  31.2500 Du        
   3456 ****        51.5000  33.5000  31.5000 Du        
   3457 ****        51.5000  33.5000  31.7500 Du        
   3458 ****        51.5000  33.5000  32.0000 Du        
   3459 ****        51.5000  33.7500  31.2500 Du        
   3460 ****        51.5000  33.7500  31.5000 Du        
   3461 ****        51.5000  33.7500  31.7500 Du        
   3462 ****        51.7500  33.2500  31.5000 Du        
   3463 ****        51.7500  33.2500  31.7500 Du        
   3464 ****        51.7500  33.5000  31.2500 Du        
   3465 ****        51.7500  33.5000  31.5000 Du        
   3466 ****        51.7500  33.5000  31.7500 Du        
   3467 ****        51.7500  33.7500  31.2500 Du        
   3468 ****        51.7500  33.7500  31.5000 Du        
   3469 ****        52.0000  33.2500  31.5000 Du        
   3470 ****        52.0000  33.5000  31.2500 Du        
   3471 ****        52.0000  33.5000  31.5000 Du        
