#       Name:                CT1002167954
#       Creating user name   hitesit
#       Creation time:       Sun Apr 16 02:21:21 2023


#       File generated by GOLD software.
#

@<TRIPOS>MOLECULE
CT1002167954|ligand_prepared|mol2|1|dock9
    29    30     1
SMALL
NO_CHARGES


@<TRIPOS>ATOM
      1 C1          48.1649  30.0753  32.4024 C.3            1 RES1               0.0000
      2 C2          48.4436  31.3703  33.1923 C.ar           1 RES1               0.0000
      3 C3          49.4859  29.3134  32.3488 C.2            1 RES1               0.0000
      4 C4          47.0567  29.3468  33.1547 C.2            1 RES1               0.0000
      5 C5          47.6792  30.3188  30.9546 C.3            1 RES1               0.0000
      6 C6          48.3238  31.3944  34.5786 C.ar           1 RES1               0.0000
      7 C7          48.8233  32.5459  32.5501 C.ar           1 RES1               0.0000
      8 N8          49.6102  28.2080  33.1377 N.am           1 RES1               0.0000
      9 O9          50.4183  29.6993  31.6546 O.2            1 RES1               0.0000
     10 N10         47.3591  28.1434  33.7363 N.am           1 RES1               0.0000
     11 O11         45.9289  29.8120  33.2634 O.2            1 RES1               0.0000
     12 C12         47.0914  29.0843  30.2892 C.3            1 RES1               0.0000
     13 C13         48.5773  32.5510  35.2972 C.ar           1 RES1               0.0000
     14 C14         49.0761  33.7015  33.2706 C.ar           1 RES1               0.0000
     15 C15         48.5937  27.5557  33.7880 C.2            1 RES1               0.0000
     16 C16         48.9540  33.7051  34.6439 C.ar           1 RES1               0.0000
     17 O17         48.7981  26.4982  34.3771 O.2            1 RES1               0.0000
     18 H18         46.9191  31.1098  30.9654 H              1 RES1               0.0000
     19 H19         48.5250  30.6748  30.3535 H              1 RES1               0.0000
     20 H20         48.0261  30.4966  35.1098 H              1 RES1               0.0000
     21 H21         48.9247  32.5667  31.4703 H              1 RES1               0.0000
     22 H22         50.5455  27.8315  33.2551 H              1 RES1               0.0000
     23 H23         46.5929  27.6390  34.1707 H              1 RES1               0.0000
     24 H24         46.7664  29.3102  29.2758 H              1 RES1               0.0000
     25 H25         47.8283  28.2855  30.2387 H              1 RES1               0.0000
     26 H26         46.2320  28.7179  30.8469 H              1 RES1               0.0000
     27 H27         48.4784  32.5490  36.3777 H              1 RES1               0.0000
     28 H28         49.3717  34.6076  32.7522 H              1 RES1               0.0000
     29 H29         49.1528  34.6109  35.2070 H              1 RES1               0.0000
@<TRIPOS>BOND
    1    1    2 1     
    2    1    3 1     
    3    1    4 1     
    4    1    5 1     
    5    2    6 ar    
    6    2    7 ar    
    7    3    8 1     
    8    3    9 2     
    9    4   10 1     
   10    4   11 2     
   11    5   12 1     
   12    5   18 1     
   13    5   19 1     
   14    6   13 ar    
   15    6   20 1     
   16    7   14 ar    
   17    7   21 1     
   18    8   15 1     
   19    8   22 1     
   20   10   15 1     
   21   10   23 1     
   22   12   24 1     
   23   12   25 1     
   24   12   26 1     
   25   13   16 ar    
   26   13   27 1     
   27   14   16 ar    
   28   14   28 1     
   29   15   17 2     
   30   16   29 1     
@<TRIPOS>SUBSTRUCTURE
      1 RES1           1
@<TRIPOS>SET
DONOR_HYDROGENS      STATIC     ATOMS    <user>   **** ""
2 22 23
ATOM$RED        STATIC     ATOMS    COLORGROUP SYSTEM
2 22 23
@<TRIPOS>COMMENT
> <Gold.Version>
2022.3.0

> <Gold.Id.Protein>
unknown|2zaz_clean|pdb

> <Gold.Protein.RotatedTorsions>
[ 2465 2462 2458 2455 ] final   71.59 input  -12.99 | X-H torsion
[ 2449 2444 2443 2440 ] final   -0.93 input   60.00 | X-H torsion
[ 1651 1646 1644 1641 ] final  104.80 input   60.01 | X-H torsion

> <Gold.Protein.ActiveResidues>
 VAL30   GLY31   VAL38   ALA51   ILE84   THR106  HIS107  LEU108  MET109  GLY110 
 ALA111  ASP112  LEU113  ASN114  ASN115  PRO153  SER154  ASN155  LEU156  ALA157 
 VAL158  LYS165  LEU167  ASP168 

> <Gold.Protein.RotatedAtoms>
   40.7643   35.7526   32.6646 H   0  0  0  0  0  0  0  0  0  0  0  0  # atno 1651 bound_to 1646
   50.9732   26.0445   36.8505 H   0  0  0  0  0  0  0  0  0  0  0  0  # atno 2449 bound_to 2444
   48.1539   26.5894   36.9877 H   0  0  0  0  0  0  0  0  0  0  0  0  # atno 2465 bound_to 2455 2458 2462
   46.8888   26.9734   35.9170 LP  0  0  0  0  0  0  0  0  0  0  0  0  # atno 5611 bound_to 2462
   47.5802   25.4974   35.8161 LP  0  0  0  0  0  0  0  0  0  0  0  0  # atno 5612 bound_to 2462

> <Gold.Score>
     Fitness  S(hb_ext) S(vdw_ext)  S(hb_int)    S(int)      intcor
     34.06       4.37      21.90       0.00      -0.42      -0.76

> <Gold.Goldscore.Fitness>
34.0615

> <Gold.Goldscore.Internal.Vdw>
-0.5189

> <Gold.Goldscore.Internal.Torsion>
-0.6597

> <Gold.Goldscore.External.Vdw>
21.8970

> <Gold.Goldscore.Internal.HBond>
0.0000

> <Gold.Goldscore.External.HBond>
4.3731

> <Gold.Goldscore.Internal.Correction>
-0.7585

> <Gold.Goldscore.Hbonds>
donor molecule, donor type, donor heavy atom, donor atom, acceptor molecule, acceptor atom, score
      L1  H    10    23       P1  2671  0.73

> <Gold.Goldscore.Internal.Vdw.Weighted>
-0.5189

> <Gold.Goldscore.Internal.Torsion.Weighted>
-0.6597

> <Gold.Goldscore.External.Vdw.Weighted>
30.1084

> <Gold.Goldscore.Internal.HBond.Weighted>
0.0000

> <Gold.Goldscore.External.HBond.Weighted>
4.3731

> <Gold.Goldscore.Internal.Correction.Weighted>
-0.7585

> <Gold.Rescore>
     Score     S(PLP)   S(hbond)     S(cho)   S(metal)  DE(clash)   DE(tors)     intcor
     30.36     -28.70       1.00       0.00       0.00       0.00       0.67       ----

> <Gold.PLP.Fitness>
30.3645

> <Gold.PLP.PLP>
-28.6987

> <Gold.PLP.part.hbond>
-3.0000

> <Gold.PLP.part.metal>
0.0000

> <Gold.PLP.part.buried>
-1.7026

> <Gold.PLP.part.nonpolar>
-24.6575

> <Gold.PLP.part.repulsive>
0.4088

> <Gold.PLP.ligand.clash>
0.0000

> <Gold.PLP.ligand.torsion>
0.6671

> <Gold.PLP.Chemscore.Hbond>
1.0000

> <Gold.PLP.Chemscore.CHOScore>
0.0000

> <Gold.PLP.Chemscore.Metal>
0.0000

> <Gold.Chemscore.Hbonds>
donor molecule, donor type, donor heavy atom, donor atom, acceptor molecule, acceptor atom, score
      L1  H    10    23       P1  2671  1.00

> <Gold.PLP.Chemscore.Internal.Correction>
   9.000000E+99

