#       Name:                CT1002167954
#       Creating user name   hitesit
#       Creation time:       Sun Apr 16 02:21:22 2023


#       File generated by GOLD software.
#

@<TRIPOS>MOLECULE
CT1002167954|ligand_prepared|mol2|1|dock10
    29    30     1
SMALL
NO_CHARGES


@<TRIPOS>ATOM
      1 C1          43.3712  32.0332  31.4790 C.3            1 RES1               0.0000
      2 C2          44.7521  32.6950  31.6638 C.ar           1 RES1               0.0000
      3 C3          43.5114  30.6007  31.9852 C.2            1 RES1               0.0000
      4 C4          42.3827  32.8798  32.2732 C.2            1 RES1               0.0000
      5 C5          42.8907  31.9902  30.0097 C.3            1 RES1               0.0000
      6 C6          45.6518  32.2058  32.6061 C.ar           1 RES1               0.0000
      7 C7          45.1407  33.7916  30.8990 C.ar           1 RES1               0.0000
      8 N8          42.9371  30.2951  33.1838 N.am           1 RES1               0.0000
      9 O9          44.1499  29.7620  31.3613 O.2            1 RES1               0.0000
     10 N10         41.7763  32.3078  33.3608 N.am           1 RES1               0.0000
     11 O11         42.1360  34.0424  31.9769 O.2            1 RES1               0.0000
     12 C12         41.6147  31.1889  29.8052 C.3            1 RES1               0.0000
     13 C13         46.8962  32.7898  32.7757 C.ar           1 RES1               0.0000
     14 C14         46.3856  34.3743  31.0704 C.ar           1 RES1               0.0000
     15 C15         42.0318  31.0638  33.8702 C.2            1 RES1               0.0000
     16 C16         47.2641  33.8741  32.0078 C.ar           1 RES1               0.0000
     17 O17         41.4855  30.6401  34.8847 O.2            1 RES1               0.0000
     18 H18         42.7222  33.0172  29.6631 H              1 RES1               0.0000
     19 H19         43.6846  31.5536  29.3912 H              1 RES1               0.0000
     20 H20         45.3789  31.3548  33.2213 H              1 RES1               0.0000
     21 H21         44.4655  34.2027  30.1563 H              1 RES1               0.0000
     22 H22         43.2055  29.4134  33.6092 H              1 RES1               0.0000
     23 H23         41.0688  32.8605  33.8344 H              1 RES1               0.0000
     24 H24         41.3217  31.1909  28.7574 H              1 RES1               0.0000
     25 H25         41.7540  30.1556  30.1162 H              1 RES1               0.0000
     26 H26         40.7972  31.6105  30.3864 H              1 RES1               0.0000
     27 H27         47.5834  32.3932  33.5157 H              1 RES1               0.0000
     28 H28         46.6706  35.2279  30.4642 H              1 RES1               0.0000
     29 H29         48.2391  34.3312  32.1405 H              1 RES1               0.0000
@<TRIPOS>BOND
    1    1    2 1     
    2    1    3 1     
    3    1    4 1     
    4    1    5 1     
    5    2    6 ar    
    6    2    7 ar    
    7    3    8 1     
    8    3    9 2     
    9    4   10 1     
   10    4   11 2     
   11    5   12 1     
   12    5   18 1     
   13    5   19 1     
   14    6   13 ar    
   15    6   20 1     
   16    7   14 ar    
   17    7   21 1     
   18    8   15 1     
   19    8   22 1     
   20   10   15 1     
   21   10   23 1     
   22   12   24 1     
   23   12   25 1     
   24   12   26 1     
   25   13   16 ar    
   26   13   27 1     
   27   14   16 ar    
   28   14   28 1     
   29   15   17 2     
   30   16   29 1     
@<TRIPOS>SUBSTRUCTURE
      1 RES1           1
@<TRIPOS>SET
DONOR_HYDROGENS      STATIC     ATOMS    <user>   **** ""
2 22 23
ATOM$RED        STATIC     ATOMS    COLORGROUP SYSTEM
2 22 23
@<TRIPOS>COMMENT
> <Gold.Version>
2022.3.0

> <Gold.Id.Protein>
unknown|2zaz_clean|pdb

> <Gold.Protein.RotatedTorsions>
[ 2465 2462 2458 2455 ] final  124.80 input  -12.99 | X-H torsion
[ 2449 2444 2443 2440 ] final -101.64 input   60.00 | X-H torsion
[ 1651 1646 1644 1641 ] final  170.53 input   60.01 | X-H torsion

> <Gold.Protein.ActiveResidues>
 VAL30   GLY31   VAL38   ALA51   ILE84   THR106  HIS107  LEU108  MET109  GLY110 
 ALA111  ASP112  LEU113  ASN114  ASN115  PRO153  SER154  ASN155  LEU156  ALA157 
 VAL158  LYS165  LEU167  ASP168 

> <Gold.Protein.RotatedAtoms>
   40.5448   34.7643   32.7454 H   0  0  0  0  0  0  0  0  0  0  0  0  # atno 1651 bound_to 1646
   52.1339   25.3166   36.3998 H   0  0  0  0  0  0  0  0  0  0  0  0  # atno 2449 bound_to 2444
   48.1355   25.8372   36.8950 H   0  0  0  0  0  0  0  0  0  0  0  0  # atno 2465 bound_to 2455 2458 2462
   47.6220   27.2071   36.0268 LP  0  0  0  0  0  0  0  0  0  0  0  0  # atno 5611 bound_to 2462
   46.8598   25.7858   35.7706 LP  0  0  0  0  0  0  0  0  0  0  0  0  # atno 5612 bound_to 2462

> <Gold.Score>
     Fitness  S(hb_ext) S(vdw_ext)  S(hb_int)    S(int)      intcor
     31.90       4.13      20.96       0.00      -1.05      -0.76

> <Gold.Goldscore.Fitness>
31.9022

> <Gold.Goldscore.Internal.Vdw>
-1.3554

> <Gold.Goldscore.Internal.Torsion>
-0.4503

> <Gold.Goldscore.External.Vdw>
20.9606

> <Gold.Goldscore.Internal.HBond>
0.0000

> <Gold.Goldscore.External.HBond>
4.1286

> <Gold.Goldscore.Internal.Correction>
-0.7585

> <Gold.Goldscore.Hbonds>
donor molecule, donor type, donor heavy atom, donor atom, acceptor molecule, acceptor atom, score
      P1  H  2664  2672       L1    17  0.78
      P1  H  1646  1651       L1    11  0.02
      L1  H     8    22       P1  2670  0.42

> <Gold.Goldscore.Internal.Vdw.Weighted>
-1.3554

> <Gold.Goldscore.Internal.Torsion.Weighted>
-0.4503

> <Gold.Goldscore.External.Vdw.Weighted>
28.8208

> <Gold.Goldscore.Internal.HBond.Weighted>
0.0000

> <Gold.Goldscore.External.HBond.Weighted>
4.1286

> <Gold.Goldscore.Internal.Correction.Weighted>
-0.7585

> <Gold.Rescore>
     Score     S(PLP)   S(hbond)     S(cho)   S(metal)  DE(clash)   DE(tors)     intcor
     36.51     -30.35       2.75       0.00       0.00       0.10       1.00       ----

> <Gold.PLP.Fitness>
36.5103

> <Gold.PLP.PLP>
-30.3478

> <Gold.PLP.part.hbond>
-2.5974

> <Gold.PLP.part.metal>
0.0000

> <Gold.PLP.part.buried>
-5.0494

> <Gold.PLP.part.nonpolar>
-24.5874

> <Gold.PLP.part.repulsive>
0.2657

> <Gold.PLP.ligand.clash>
0.1008

> <Gold.PLP.ligand.torsion>
0.9964

> <Gold.PLP.Chemscore.Hbond>
2.7520

> <Gold.PLP.Chemscore.CHOScore>
0.0000

> <Gold.PLP.Chemscore.Metal>
0.0000

> <Gold.Chemscore.Hbonds>
donor molecule, donor type, donor heavy atom, donor atom, acceptor molecule, acceptor atom, score
      L1  H     8    22       P1  2670  1.00
      P1  H  2664  2672       L1    17  0.52
      P1  H  1646  1651       L1    11  0.42

> <Gold.PLP.Chemscore.Internal.Correction>
   9.000000E+99

