#       Name:                CT1002167954
#       Creating user name   hitesit
#       Creation time:       Sun Apr 16 02:21:16 2023


#       File generated by GOLD software.
#

@<TRIPOS>MOLECULE
CT1002167954|ligand_prepared|mol2|1|dock3
    29    30     1
SMALL
NO_CHARGES


@<TRIPOS>ATOM
      1 C1          48.8737  33.3913  32.3091 C.3            1 RES1               0.0000
      2 C2          47.5785  33.8594  31.6150 C.ar           1 RES1               0.0000
      3 C3          49.1726  34.4191  33.3966 C.2            1 RES1               0.0000
      4 C4          48.5914  31.9896  32.8386 C.2            1 RES1               0.0000
      5 C5          50.0944  33.3078  31.3633 C.3            1 RES1               0.0000
      6 C6          47.6243  34.4622  30.3615 C.ar           1 RES1               0.0000
      7 C7          46.3323  33.6931  32.2133 C.ar           1 RES1               0.0000
      8 N8          48.9445  34.0543  34.6907 N.am           1 RES1               0.0000
      9 O9          49.5648  35.5461  33.1202 O.2            1 RES1               0.0000
     10 N10         48.5809  31.8063  34.1966 N.am           1 RES1               0.0000
     11 O11         48.3615  31.0458  32.0925 O.2            1 RES1               0.0000
     12 C12         51.3262  32.6891  32.0052 C.3            1 RES1               0.0000
     13 C13         46.4662  34.8809  29.7277 C.ar           1 RES1               0.0000
     14 C14         45.1753  34.1128  31.5779 C.ar           1 RES1               0.0000
     15 C15         48.7142  32.7814  35.1472 C.2            1 RES1               0.0000
     16 C16         45.2410  34.7062  30.3352 C.ar           1 RES1               0.0000
     17 O17         48.6390  32.5467  36.3499 O.2            1 RES1               0.0000
     18 H18         49.8190  32.7140  30.4830 H              1 RES1               0.0000
     19 H19         50.3453  34.3192  31.0205 H              1 RES1               0.0000
     20 H20         48.5796  34.6103  29.8690 H              1 RES1               0.0000
     21 H21         46.2566  33.2298  33.1912 H              1 RES1               0.0000
     22 H22         48.9452  34.7965  35.3831 H              1 RES1               0.0000
     23 H23         48.4628  30.8547  34.5297 H              1 RES1               0.0000
     24 H24         52.1531  32.6545  31.2989 H              1 RES1               0.0000
     25 H25         51.6431  33.2688  32.8698 H              1 RES1               0.0000
     26 H26         51.1199  31.6731  32.3355 H              1 RES1               0.0000
     27 H27         46.5234  35.3486  28.7504 H              1 RES1               0.0000
     28 H28         44.2133  33.9738  32.0600 H              1 RES1               0.0000
     29 H29         44.3338  35.0340  29.8384 H              1 RES1               0.0000
@<TRIPOS>BOND
    1    1    2 1     
    2    1    3 1     
    3    1    4 1     
    4    1    5 1     
    5    2    6 ar    
    6    2    7 ar    
    7    3    8 1     
    8    3    9 2     
    9    4   10 1     
   10    4   11 2     
   11    5   12 1     
   12    5   18 1     
   13    5   19 1     
   14    6   13 ar    
   15    6   20 1     
   16    7   14 ar    
   17    7   21 1     
   18    8   15 1     
   19    8   22 1     
   20   10   15 1     
   21   10   23 1     
   22   12   24 1     
   23   12   25 1     
   24   12   26 1     
   25   13   16 ar    
   26   13   27 1     
   27   14   16 ar    
   28   14   28 1     
   29   15   17 2     
   30   16   29 1     
@<TRIPOS>SUBSTRUCTURE
      1 RES1           1
@<TRIPOS>SET
DONOR_HYDROGENS      STATIC     ATOMS    <user>   **** ""
2 22 23
ATOM$RED        STATIC     ATOMS    COLORGROUP SYSTEM
2 22 23
@<TRIPOS>COMMENT
> <Gold.Version>
2022.3.0

> <Gold.Id.Protein>
unknown|2zaz_clean|pdb

> <Gold.Protein.RotatedTorsions>
[ 2465 2462 2458 2455 ] final   91.14 input  -12.99 | X-H torsion
[ 2449 2444 2443 2440 ] final  120.42 input   60.00 | X-H torsion
[ 1651 1646 1644 1641 ] final  110.98 input   60.01 | X-H torsion

> <Gold.Protein.ActiveResidues>
 VAL30   GLY31   VAL38   ALA51   ILE84   THR106  HIS107  LEU108  MET109  GLY110 
 ALA111  ASP112  LEU113  ASN114  ASN115  PRO153  SER154  ASN155  LEU156  ALA157 
 VAL158  LYS165  LEU167  ASP168 

> <Gold.Protein.RotatedAtoms>
   40.7724   35.6648   32.7137 H   0  0  0  0  0  0  0  0  0  0  0  0  # atno 1651 bound_to 1646
   50.8103   25.5895   35.2906 H   0  0  0  0  0  0  0  0  0  0  0  0  # atno 2449 bound_to 2444
   48.2299   26.3133   36.9629 H   0  0  0  0  0  0  0  0  0  0  0  0  # atno 2465 bound_to 2455 2458 2462
   47.1281   27.1390   35.9636 LP  0  0  0  0  0  0  0  0  0  0  0  0  # atno 5611 bound_to 2462
   47.2881   25.5235   35.7867 LP  0  0  0  0  0  0  0  0  0  0  0  0  # atno 5612 bound_to 2462

> <Gold.Score>
     Fitness  S(hb_ext) S(vdw_ext)  S(hb_int)    S(int)      intcor
     36.43       0.07      26.94       0.00      -0.69      -0.76

> <Gold.Goldscore.Fitness>
36.4321

> <Gold.Goldscore.Internal.Vdw>
-1.0154

> <Gold.Goldscore.Internal.Torsion>
-0.4408

> <Gold.Goldscore.External.Vdw>
26.9449

> <Gold.Goldscore.Internal.HBond>
0.0000

> <Gold.Goldscore.External.HBond>
0.0741

> <Gold.Goldscore.Internal.Correction>
-0.7650

> <Gold.Goldscore.Hbonds>
donor molecule, donor type, donor heavy atom, donor atom, acceptor molecule, acceptor atom, score
      L1  H    10    23       P1  2442  0.04

> <Gold.Goldscore.Internal.Vdw.Weighted>
-1.0154

> <Gold.Goldscore.Internal.Torsion.Weighted>
-0.4408

> <Gold.Goldscore.External.Vdw.Weighted>
37.0493

> <Gold.Goldscore.Internal.HBond.Weighted>
0.0000

> <Gold.Goldscore.External.HBond.Weighted>
0.0741

> <Gold.Goldscore.Internal.Correction.Weighted>
-0.7650

> <Gold.Rescore>
     Score     S(PLP)   S(hbond)     S(cho)   S(metal)  DE(clash)   DE(tors)     intcor
     28.54     -29.56       0.00       0.00       0.00       0.00       0.51       ----

> <Gold.PLP.Fitness>
28.5414

> <Gold.PLP.PLP>
-29.5636

> <Gold.PLP.part.hbond>
-0.6629

> <Gold.PLP.part.metal>
0.0000

> <Gold.PLP.part.buried>
-5.9220

> <Gold.PLP.part.nonpolar>
-24.7836

> <Gold.PLP.part.repulsive>
1.7613

> <Gold.PLP.ligand.clash>
0.0000

> <Gold.PLP.ligand.torsion>
0.5111

> <Gold.PLP.Chemscore.Hbond>
0.0000

> <Gold.PLP.Chemscore.CHOScore>
0.0000

> <Gold.PLP.Chemscore.Metal>
0.0000

> <Gold.Chemscore.Hbonds>
donor molecule, donor type, donor heavy atom, donor atom, acceptor molecule, acceptor atom, score
      L1  H     8    22       P1  1717  0.15
      L1  H    10    23       P1  2442  0.11

> <Gold.PLP.Chemscore.Internal.Correction>
   9.000000E+99

