#       Name:                CT1002167954
#       Creating user name   hitesit
#       Creation time:       Sun Apr 16 02:21:14 2023


#       File generated by GOLD software.
#

@<TRIPOS>MOLECULE
CT1002167954|ligand_prepared|mol2|1|dock1
    29    30     1
SMALL
NO_CHARGES


@<TRIPOS>ATOM
      1 C1          48.5066  32.9969  32.5644 C.3            1 RES1               0.0000
      2 C2          47.1490  33.4314  31.9754 C.ar           1 RES1               0.0000
      3 C3          48.9318  34.1049  33.5236 C.2            1 RES1               0.0000
      4 C4          48.2682  31.6495  33.2369 C.2            1 RES1               0.0000
      5 C5          49.6171  32.8120  31.5043 C.3            1 RES1               0.0000
      6 C6          47.0894  34.3698  30.9494 C.ar           1 RES1               0.0000
      7 C7          45.9500  32.9018  32.4451 C.ar           1 RES1               0.0000
      8 N8          48.8408  33.8524  34.8607 N.am           1 RES1               0.0000
      9 O9          49.3038  35.1973  33.1132 O.2            1 RES1               0.0000
     10 N10         48.4022  31.5789  34.5988 N.am           1 RES1               0.0000
     11 O11         47.9492  30.6521  32.6015 O.2            1 RES1               0.0000
     12 C12         50.9313  32.3029  32.0753 C.3            1 RES1               0.0000
     13 C13         45.8755  34.7622  30.4103 C.ar           1 RES1               0.0000
     14 C14         44.7371  33.2959  31.9047 C.ar           1 RES1               0.0000
     15 C15         48.6477  32.6262  35.4445 C.2            1 RES1               0.0000
     16 C16         44.6986  34.2253  30.8872 C.ar           1 RES1               0.0000
     17 O17         48.7001  32.4929  36.6637 O.2            1 RES1               0.0000
     18 H18         49.2649  32.1043  30.7437 H              1 RES1               0.0000
     19 H19         49.7966  33.7744  31.0092 H              1 RES1               0.0000
     20 H20         48.0049  34.8050  30.5629 H              1 RES1               0.0000
     21 H21         45.9560  32.1700  33.2457 H              1 RES1               0.0000
     22 H22         48.9240  34.6490  35.4842 H              1 RES1               0.0000
     23 H23         48.3107  30.6605  35.0213 H              1 RES1               0.0000
     24 H24         51.6756  32.1909  31.2897 H              1 RES1               0.0000
     25 H25         51.3234  32.9953  32.8174 H              1 RES1               0.0000
     26 H26         50.7949  31.3351  32.5534 H              1 RES1               0.0000
     27 H27         45.8505  35.4951  29.6106 H              1 RES1               0.0000
     28 H28         43.8133  32.8712  32.2836 H              1 RES1               0.0000
     29 H29         43.7478  34.5327  30.4645 H              1 RES1               0.0000
@<TRIPOS>BOND
    1    1    2 1     
    2    1    3 1     
    3    1    4 1     
    4    1    5 1     
    5    2    6 ar    
    6    2    7 ar    
    7    3    8 1     
    8    3    9 2     
    9    4   10 1     
   10    4   11 2     
   11    5   12 1     
   12    5   18 1     
   13    5   19 1     
   14    6   13 ar    
   15    6   20 1     
   16    7   14 ar    
   17    7   21 1     
   18    8   15 1     
   19    8   22 1     
   20   10   15 1     
   21   10   23 1     
   22   12   24 1     
   23   12   25 1     
   24   12   26 1     
   25   13   16 ar    
   26   13   27 1     
   27   14   16 ar    
   28   14   28 1     
   29   15   17 2     
   30   16   29 1     
@<TRIPOS>SUBSTRUCTURE
      1 RES1           1
@<TRIPOS>SET
DONOR_HYDROGENS      STATIC     ATOMS    <user>   **** ""
2 22 23
ATOM$RED        STATIC     ATOMS    COLORGROUP SYSTEM
2 22 23
@<TRIPOS>COMMENT
> <Gold.Version>
2022.3.0

> <Gold.Id.Protein>
unknown|2zaz_clean|pdb

> <Gold.Protein.RotatedTorsions>
[ 2465 2462 2458 2455 ] final    3.22 input  -12.99 | X-H torsion
[ 2449 2444 2443 2440 ] final  -47.45 input   60.00 | X-H torsion
[ 1651 1646 1644 1641 ] final  173.42 input   60.01 | X-H torsion

> <Gold.Protein.ActiveResidues>
 VAL30   GLY31   VAL38   ALA51   ILE84   THR106  HIS107  LEU108  MET109  GLY110 
 ALA111  ASP112  LEU113  ASN114  ASN115  PRO153  SER154  ASN155  LEU156  ALA157 
 VAL158  LYS165  LEU167  ASP168 

> <Gold.Protein.RotatedAtoms>
   40.5220   34.7277   32.7261 H   0  0  0  0  0  0  0  0  0  0  0  0  # atno 1651 bound_to 1646
   51.6434   25.7474   36.9490 H   0  0  0  0  0  0  0  0  0  0  0  0  # atno 2449 bound_to 2444
   47.3403   27.0809   36.9563 H   0  0  0  0  0  0  0  0  0  0  0  0  # atno 2465 bound_to 2455 2458 2462
   46.7069   26.0250   35.7824 LP  0  0  0  0  0  0  0  0  0  0  0  0  # atno 5611 bound_to 2462
   48.3268   26.1047   35.9724 LP  0  0  0  0  0  0  0  0  0  0  0  0  # atno 5612 bound_to 2462

> <Gold.Score>
     Fitness  S(hb_ext) S(vdw_ext)  S(hb_int)    S(int)      intcor
     32.78       0.10      24.82       0.00      -1.44      -0.76

> <Gold.Goldscore.Fitness>
32.7831

> <Gold.Goldscore.Internal.Vdw>
-1.8239

> <Gold.Goldscore.Internal.Torsion>
-0.3843

> <Gold.Goldscore.External.Vdw>
24.8156

> <Gold.Goldscore.Internal.HBond>
0.0000

> <Gold.Goldscore.External.HBond>
0.1048

> <Gold.Goldscore.Internal.Correction>
-0.7650

> <Gold.Goldscore.Hbonds>
donor molecule, donor type, donor heavy atom, donor atom, acceptor molecule, acceptor atom, score
      L1  H     8    22       P1  1717  0.01
      L1  H    10    23       P1  2442  0.04

> <Gold.Goldscore.Internal.Vdw.Weighted>
-1.8239

> <Gold.Goldscore.Internal.Torsion.Weighted>
-0.3843

> <Gold.Goldscore.External.Vdw.Weighted>
34.1215

> <Gold.Goldscore.Internal.HBond.Weighted>
0.0000

> <Gold.Goldscore.External.HBond.Weighted>
0.1048

> <Gold.Goldscore.Internal.Correction.Weighted>
-0.7650

> <Gold.Rescore>
     Score     S(PLP)   S(hbond)     S(cho)   S(metal)  DE(clash)   DE(tors)     intcor
     24.70     -25.47       0.23       0.00       0.00       1.44       0.02       ----

> <Gold.PLP.Fitness>
24.6952

> <Gold.PLP.PLP>
-25.4730

> <Gold.PLP.part.hbond>
-2.4215

> <Gold.PLP.part.metal>
0.0000

> <Gold.PLP.part.buried>
-4.2681

> <Gold.PLP.part.nonpolar>
-22.5312

> <Gold.PLP.part.repulsive>
3.0982

> <Gold.PLP.ligand.clash>
1.4374

> <Gold.PLP.ligand.torsion>
0.0196

> <Gold.PLP.Chemscore.Hbond>
0.2330

> <Gold.PLP.Chemscore.CHOScore>
0.0000

> <Gold.PLP.Chemscore.Metal>
0.0000

> <Gold.Chemscore.Hbonds>
donor molecule, donor type, donor heavy atom, donor atom, acceptor molecule, acceptor atom, score
      L1  H     8    22       P1  1717  0.09
      L1  H    10    23       P1  2442  0.53

> <Gold.PLP.Chemscore.Internal.Correction>
   9.000000E+99

