#       Name:                CT1002167954
#       Creating user name   hitesit
#       Creation time:       Sun Apr 16 02:21:17 2023


#       File generated by GOLD software.
#

@<TRIPOS>MOLECULE
CT1002167954|ligand_prepared|mol2|1|dock5
    29    30     1
SMALL
NO_CHARGES


@<TRIPOS>ATOM
      1 C1          45.4021  33.1549  30.9694 C.3            1 RES1               0.0000
      2 C2          43.8851  32.8780  30.9991 C.ar           1 RES1               0.0000
      3 C3          46.0159  32.0827  30.0740 C.2            1 RES1               0.0000
      4 C4          45.5661  34.5756  30.4408 C.2            1 RES1               0.0000
      5 C5          46.0780  33.0810  32.3584 C.3            1 RES1               0.0000
      6 C6          43.0861  33.4163  32.0034 C.ar           1 RES1               0.0000
      7 C7          43.2711  32.0898  30.0294 C.ar           1 RES1               0.0000
      8 N8          46.4328  32.4598  28.8315 N.am           1 RES1               0.0000
      9 O9          46.0967  30.9159  30.4378 O.2            1 RES1               0.0000
     10 N10         46.1809  34.7422  29.2275 N.am           1 RES1               0.0000
     11 O11         45.1536  35.5510  31.0562 O.2            1 RES1               0.0000
     12 C12         47.5932  33.1997  32.3100 C.3            1 RES1               0.0000
     13 C13         41.7221  33.1777  32.0354 C.ar           1 RES1               0.0000
     14 C14         41.9069  31.8523  30.0635 C.ar           1 RES1               0.0000
     15 C15         46.5942  33.7467  28.3847 C.2            1 RES1               0.0000
     16 C16         41.1316  32.3961  31.0654 C.ar           1 RES1               0.0000
     17 O17         47.0895  33.9749  27.2849 O.2            1 RES1               0.0000
     18 H18         45.6806  33.8868  32.9878 H              1 RES1               0.0000
     19 H19         45.8136  32.1262  32.8294 H              1 RES1               0.0000
     20 H20         43.5334  34.0318  32.7766 H              1 RES1               0.0000
     21 H21         43.8615  31.6508  29.2323 H              1 RES1               0.0000
     22 H22         46.6441  31.7162  28.1736 H              1 RES1               0.0000
     23 H23         46.3459  35.6969  28.9246 H              1 RES1               0.0000
     24 H24         48.0168  33.1417  33.3105 H              1 RES1               0.0000
     25 H25         48.0240  32.3989  31.7126 H              1 RES1               0.0000
     26 H26         47.8918  34.1490  31.8701 H              1 RES1               0.0000
     27 H27         41.1165  33.6068  32.8269 H              1 RES1               0.0000
     28 H28         41.4465  31.2360  29.2983 H              1 RES1               0.0000
     29 H29         40.0630  32.2097  31.0905 H              1 RES1               0.0000
@<TRIPOS>BOND
    1    1    2 1     
    2    1    3 1     
    3    1    4 1     
    4    1    5 1     
    5    2    6 ar    
    6    2    7 ar    
    7    3    8 1     
    8    3    9 2     
    9    4   10 1     
   10    4   11 2     
   11    5   12 1     
   12    5   18 1     
   13    5   19 1     
   14    6   13 ar    
   15    6   20 1     
   16    7   14 ar    
   17    7   21 1     
   18    8   15 1     
   19    8   22 1     
   20   10   15 1     
   21   10   23 1     
   22   12   24 1     
   23   12   25 1     
   24   12   26 1     
   25   13   16 ar    
   26   13   27 1     
   27   14   16 ar    
   28   14   28 1     
   29   15   17 2     
   30   16   29 1     
@<TRIPOS>SUBSTRUCTURE
      1 RES1           1
@<TRIPOS>SET
DONOR_HYDROGENS      STATIC     ATOMS    <user>   **** ""
2 22 23
ATOM$RED        STATIC     ATOMS    COLORGROUP SYSTEM
2 22 23
@<TRIPOS>COMMENT
> <Gold.Version>
2022.3.0

> <Gold.Id.Protein>
unknown|2zaz_clean|pdb

> <Gold.Protein.RotatedTorsions>
[ 2465 2462 2458 2455 ] final -126.66 input  -12.99 | X-H torsion
[ 2449 2444 2443 2440 ] final  -68.50 input   60.00 | X-H torsion
[ 1651 1646 1644 1641 ] final  -27.44 input   60.01 | X-H torsion

> <Gold.Protein.ActiveResidues>
 VAL30   GLY31   VAL38   ALA51   ILE84   THR106  HIS107  LEU108  MET109  GLY110 
 ALA111  ASP112  LEU113  ASN114  ASN115  PRO153  SER154  ASN155  LEU156  ALA157 
 VAL158  LYS165  LEU167  ASP168 

> <Gold.Protein.RotatedAtoms>
   39.7944   35.5791   31.2654 H   0  0  0  0  0  0  0  0  0  0  0  0  # atno 1651 bound_to 1646
   51.9003   25.5717   36.8068 H   0  0  0  0  0  0  0  0  0  0  0  0  # atno 2449 bound_to 2444
   46.7821   25.6717   36.7243 H   0  0  0  0  0  0  0  0  0  0  0  0  # atno 2465 bound_to 2455 2458 2462
   48.2687   25.9581   35.9483 LP  0  0  0  0  0  0  0  0  0  0  0  0  # atno 5611 bound_to 2462
   47.1523   27.1497   35.9676 LP  0  0  0  0  0  0  0  0  0  0  0  0  # atno 5612 bound_to 2462

> <Gold.Score>
     Fitness  S(hb_ext) S(vdw_ext)  S(hb_int)    S(int)      intcor
     25.45       1.11      18.56       0.00      -1.18      -0.76

> <Gold.Goldscore.Fitness>
25.4548

> <Gold.Goldscore.Internal.Vdw>
-1.4990

> <Gold.Goldscore.Internal.Torsion>
-0.4377

> <Gold.Goldscore.External.Vdw>
18.5645

> <Gold.Goldscore.Internal.HBond>
0.0000

> <Gold.Goldscore.External.HBond>
1.1067

> <Gold.Goldscore.Internal.Correction>
-0.7585

> <Gold.Goldscore.Hbonds>
donor molecule, donor type, donor heavy atom, donor atom, acceptor molecule, acceptor atom, score
      P1  H  1690  1698       L1    11  0.55

> <Gold.Goldscore.Internal.Vdw.Weighted>
-1.4990

> <Gold.Goldscore.Internal.Torsion.Weighted>
-0.4377

> <Gold.Goldscore.External.Vdw.Weighted>
25.5262

> <Gold.Goldscore.Internal.HBond.Weighted>
0.0000

> <Gold.Goldscore.External.HBond.Weighted>
1.1067

> <Gold.Goldscore.Internal.Correction.Weighted>
-0.7585

> <Gold.Rescore>
     Score     S(PLP)   S(hbond)     S(cho)   S(metal)  DE(clash)   DE(tors)     intcor
     24.57     -23.31       1.00       0.00       0.00       0.00       0.87       ----

> <Gold.PLP.Fitness>
24.5745

> <Gold.PLP.PLP>
-23.3108

> <Gold.PLP.part.hbond>
-1.0000

> <Gold.PLP.part.metal>
0.0000

> <Gold.PLP.part.buried>
-2.4601

> <Gold.PLP.part.nonpolar>
-20.4477

> <Gold.PLP.part.repulsive>
0.1951

> <Gold.PLP.ligand.clash>
0.0000

> <Gold.PLP.ligand.torsion>
0.8681

> <Gold.PLP.Chemscore.Hbond>
1.0000

> <Gold.PLP.Chemscore.CHOScore>
0.0000

> <Gold.PLP.Chemscore.Metal>
0.0000

> <Gold.Chemscore.Hbonds>
donor molecule, donor type, donor heavy atom, donor atom, acceptor molecule, acceptor atom, score
      P1  H  1690  1698       L1    11  0.84

> <Gold.PLP.Chemscore.Internal.Correction>
   9.000000E+99

