#       Name:                CT1002167954
#       Creating user name   hitesit
#       Creation time:       Sun Apr 16 02:21:15 2023


#       File generated by GOLD software.
#

@<TRIPOS>MOLECULE
CT1002167954|ligand_prepared|mol2|1|dock2
    29    30     1
SMALL
NO_CHARGES


@<TRIPOS>ATOM
      1 C1          42.0614  31.5609  31.2418 C.3            1 RES1               0.0000
      2 C2          43.2455  32.5111  30.9701 C.ar           1 RES1               0.0000
      3 C3          41.8729  30.7371  29.9714 C.2            1 RES1               0.0000
      4 C4          42.4474  30.7376  32.4657 C.2            1 RES1               0.0000
      5 C5          40.7344  32.2903  31.5558 C.3            1 RES1               0.0000
      6 C6          44.0686  32.3193  29.8644 C.ar           1 RES1               0.0000
      7 C7          43.5252  33.5834  31.8130 C.ar           1 RES1               0.0000
      8 N8          42.2719  29.4333  29.9988 N.am           1 RES1               0.0000
      9 O9          41.4175  31.2346  28.9489 O.2            1 RES1               0.0000
     10 N10         42.6337  29.3901  32.3003 N.am           1 RES1               0.0000
     11 O11         42.6081  31.2462  33.5683 O.2            1 RES1               0.0000
     12 C12         39.5347  31.3620  31.6614 C.3            1 RES1               0.0000
     13 C13         45.1310  33.1704  29.6090 C.ar           1 RES1               0.0000
     14 C14         44.5883  34.4332  31.5558 C.ar           1 RES1               0.0000
     15 C15         42.5935  28.7056  31.1162 C.2            1 RES1               0.0000
     16 C16         45.3913  34.2281  30.4541 C.ar           1 RES1               0.0000
     17 O17         42.8259  27.5025  31.0400 O.2            1 RES1               0.0000
     18 H18         40.8453  32.8331  32.5026 H              1 RES1               0.0000
     19 H19         40.5417  33.0279  30.7670 H              1 RES1               0.0000
     20 H20         43.8808  31.4909  29.1895 H              1 RES1               0.0000
     21 H21         42.9075  33.7635  32.6863 H              1 RES1               0.0000
     22 H22         42.3374  28.9552  29.1058 H              1 RES1               0.0000
     23 H23         42.8194  28.8470  33.1375 H              1 RES1               0.0000
     24 H24         38.6301  31.9245  31.8828 H              1 RES1               0.0000
     25 H25         39.3796  30.8244  30.7283 H              1 RES1               0.0000
     26 H26         39.6814  30.6307  32.4536 H              1 RES1               0.0000
     27 H27         45.7609  33.0038  28.7414 H              1 RES1               0.0000
     28 H28         44.7898  35.2640  32.2240 H              1 RES1               0.0000
     29 H29         46.2234  34.8949  30.2536 H              1 RES1               0.0000
@<TRIPOS>BOND
    1    1    2 1     
    2    1    3 1     
    3    1    4 1     
    4    1    5 1     
    5    2    6 ar    
    6    2    7 ar    
    7    3    8 1     
    8    3    9 2     
    9    4   10 1     
   10    4   11 2     
   11    5   12 1     
   12    5   18 1     
   13    5   19 1     
   14    6   13 ar    
   15    6   20 1     
   16    7   14 ar    
   17    7   21 1     
   18    8   15 1     
   19    8   22 1     
   20   10   15 1     
   21   10   23 1     
   22   12   24 1     
   23   12   25 1     
   24   12   26 1     
   25   13   16 ar    
   26   13   27 1     
   27   14   16 ar    
   28   14   28 1     
   29   15   17 2     
   30   16   29 1     
@<TRIPOS>SUBSTRUCTURE
      1 RES1           1
@<TRIPOS>SET
DONOR_HYDROGENS      STATIC     ATOMS    <user>   **** ""
2 22 23
ATOM$RED        STATIC     ATOMS    COLORGROUP SYSTEM
2 22 23
@<TRIPOS>COMMENT
> <Gold.Version>
2022.3.0

> <Gold.Id.Protein>
unknown|2zaz_clean|pdb

> <Gold.Protein.RotatedTorsions>
[ 2465 2462 2458 2455 ] final  -47.08 input  -12.99 | X-H torsion
[ 2449 2444 2443 2440 ] final   19.43 input   60.00 | X-H torsion
[ 1651 1646 1644 1641 ] final  166.94 input   60.01 | X-H torsion

> <Gold.Protein.ActiveResidues>
 VAL30   GLY31   VAL38   ALA51   ILE84   THR106  HIS107  LEU108  MET109  GLY110 
 ALA111  ASP112  LEU113  ASN114  ASN115  PRO153  SER154  ASN155  LEU156  ALA157 
 VAL158  LYS165  LEU167  ASP168 

> <Gold.Protein.RotatedAtoms>
   40.5720   34.8116   32.7668 H   0  0  0  0  0  0  0  0  0  0  0  0  # atno 1651 bound_to 1646
   50.7221   26.0966   36.6410 H   0  0  0  0  0  0  0  0  0  0  0  0  # atno 2449 bound_to 2444
   46.7133   26.7459   36.8461 H   0  0  0  0  0  0  0  0  0  0  0  0  # atno 2465 bound_to 2455 2458 2462
   47.2560   25.5326   35.7842 LP  0  0  0  0  0  0  0  0  0  0  0  0  # atno 5611 bound_to 2462
   48.2129   26.8295   36.0471 LP  0  0  0  0  0  0  0  0  0  0  0  0  # atno 5612 bound_to 2462

> <Gold.Score>
     Fitness  S(hb_ext) S(vdw_ext)  S(hb_int)    S(int)      intcor
     30.08       4.74      19.74       0.00      -1.80      -0.76

> <Gold.Goldscore.Fitness>
30.0773

> <Gold.Goldscore.Internal.Vdw>
-2.1219

> <Gold.Goldscore.Internal.Torsion>
-0.4439

> <Gold.Goldscore.External.Vdw>
19.7370

> <Gold.Goldscore.Internal.HBond>
0.0000

> <Gold.Goldscore.External.HBond>
4.7398

> <Gold.Goldscore.Internal.Correction>
-0.7650

> <Gold.Goldscore.Hbonds>
donor molecule, donor type, donor heavy atom, donor atom, acceptor molecule, acceptor atom, score
      L1  H    10    23       P1  2670  0.79

> <Gold.Goldscore.Internal.Vdw.Weighted>
-2.1219

> <Gold.Goldscore.Internal.Torsion.Weighted>
-0.4439

> <Gold.Goldscore.External.Vdw.Weighted>
27.1384

> <Gold.Goldscore.Internal.HBond.Weighted>
0.0000

> <Gold.Goldscore.External.HBond.Weighted>
4.7398

> <Gold.Goldscore.Internal.Correction.Weighted>
-0.7650

> <Gold.Rescore>
     Score     S(PLP)   S(hbond)     S(cho)   S(metal)  DE(clash)   DE(tors)     intcor
     27.13     -26.32       0.99       0.00       0.00       1.84       0.16       ----

> <Gold.PLP.Fitness>
27.1274

> <Gold.PLP.PLP>
-26.3150

> <Gold.PLP.part.hbond>
-1.0000

> <Gold.PLP.part.metal>
0.0000

> <Gold.PLP.part.buried>
-1.9913

> <Gold.PLP.part.nonpolar>
-24.3705

> <Gold.PLP.part.repulsive>
0.2391

> <Gold.PLP.ligand.clash>
1.8431

> <Gold.PLP.ligand.torsion>
0.1603

> <Gold.PLP.Chemscore.Hbond>
0.9920

> <Gold.PLP.Chemscore.CHOScore>
0.0000

> <Gold.PLP.Chemscore.Metal>
0.0000

> <Gold.Chemscore.Hbonds>
donor molecule, donor type, donor heavy atom, donor atom, acceptor molecule, acceptor atom, score
      L1  H    10    23       P1  2670  1.00

> <Gold.PLP.Chemscore.Internal.Correction>
   9.000000E+99

