#       Name:                CT1002167954
#       Creating user name   hitesit
#       Creation time:       Sun Apr 16 02:21:16 2023


#       File generated by GOLD software.
#

@<TRIPOS>MOLECULE
CT1002167954|ligand_prepared|mol2|1|dock4
    29    30     1
SMALL
NO_CHARGES


@<TRIPOS>ATOM
      1 C1          41.5181  31.0695  31.7703 C.3            1 RES1               0.0000
      2 C2          42.4278  32.3022  31.9479 C.ar           1 RES1               0.0000
      3 C3          41.8526  30.4838  30.4015 C.2            1 RES1               0.0000
      4 C4          41.8278  30.1389  32.9376 C.2            1 RES1               0.0000
      5 C5          40.0073  31.3972  31.8084 C.3            1 RES1               0.0000
      6 C6          43.7981  32.2099  31.7232 C.ar           1 RES1               0.0000
      7 C7          41.9119  33.5368  32.3328 C.ar           1 RES1               0.0000
      8 N8          42.5752  29.3277  30.3684 N.am           1 RES1               0.0000
      9 O9          41.5214  31.0489  29.3665 O.2            1 RES1               0.0000
     10 N10         42.4067  28.9287  32.6580 N.am           1 RES1               0.0000
     11 O11         41.5911  30.4496  34.0985 O.2            1 RES1               0.0000
     12 C12         39.1136  30.2064  31.4996 C.3            1 RES1               0.0000
     13 C13         44.6224  33.3125  31.8749 C.ar           1 RES1               0.0000
     14 C14         42.7381  34.6382  32.4841 C.ar           1 RES1               0.0000
     15 C15         42.8226  28.4938  31.4291 C.2            1 RES1               0.0000
     16 C16         44.0930  34.5274  32.2549 C.ar           1 RES1               0.0000
     17 O17         43.3851  27.4150  31.2653 O.2            1 RES1               0.0000
     18 H18         39.7540  31.7797  32.8049 H              1 RES1               0.0000
     19 H19         39.7999  32.1921  31.0814 H              1 RES1               0.0000
     20 H20         44.2331  31.2615  31.4259 H              1 RES1               0.0000
     21 H21         40.8491  33.6471  32.5196 H              1 RES1               0.0000
     22 H22         42.9680  29.0582  29.4721 H              1 RES1               0.0000
     23 H23         42.5399  28.2932  33.4382 H              1 RES1               0.0000
     24 H24         38.0642  30.4910  31.5397 H              1 RES1               0.0000
     25 H25         39.3210  29.8160  30.5054 H              1 RES1               0.0000
     26 H26         39.2753  29.4060  32.2186 H              1 RES1               0.0000
     27 H27         45.6883  33.2198  31.6946 H              1 RES1               0.0000
     28 H28         42.3171  35.5922  32.7840 H              1 RES1               0.0000
     29 H29         44.7389  35.3911  32.3733 H              1 RES1               0.0000
@<TRIPOS>BOND
    1    1    2 1     
    2    1    3 1     
    3    1    4 1     
    4    1    5 1     
    5    2    6 ar    
    6    2    7 ar    
    7    3    8 1     
    8    3    9 2     
    9    4   10 1     
   10    4   11 2     
   11    5   12 1     
   12    5   18 1     
   13    5   19 1     
   14    6   13 ar    
   15    6   20 1     
   16    7   14 ar    
   17    7   21 1     
   18    8   15 1     
   19    8   22 1     
   20   10   15 1     
   21   10   23 1     
   22   12   24 1     
   23   12   25 1     
   24   12   26 1     
   25   13   16 ar    
   26   13   27 1     
   27   14   16 ar    
   28   14   28 1     
   29   15   17 2     
   30   16   29 1     
@<TRIPOS>SUBSTRUCTURE
      1 RES1           1
@<TRIPOS>SET
DONOR_HYDROGENS      STATIC     ATOMS    <user>   **** ""
2 22 23
ATOM$RED        STATIC     ATOMS    COLORGROUP SYSTEM
2 22 23
@<TRIPOS>COMMENT
> <Gold.Version>
2022.3.0

> <Gold.Id.Protein>
unknown|2zaz_clean|pdb

> <Gold.Protein.RotatedTorsions>
[ 2465 2462 2458 2455 ] final  -89.71 input  -12.99 | X-H torsion
[ 2449 2444 2443 2440 ] final   33.92 input   60.00 | X-H torsion
[ 1651 1646 1644 1641 ] final  -20.42 input   60.01 | X-H torsion

> <Gold.Protein.ActiveResidues>
 VAL30   GLY31   VAL38   ALA51   ILE84   THR106  HIS107  LEU108  MET109  GLY110 
 ALA111  ASP112  LEU113  ASN114  ASN115  PRO153  SER154  ASN155  LEU156  ALA157 
 VAL158  LYS165  LEU167  ASP168 

> <Gold.Protein.RotatedAtoms>
   39.8374   35.6831   31.2871 H   0  0  0  0  0  0  0  0  0  0  0  0  # atno 1651 bound_to 1646
   50.5863   26.0973   36.4478 H   0  0  0  0  0  0  0  0  0  0  0  0  # atno 2449 bound_to 2444
   46.5570   26.1573   36.7577 H   0  0  0  0  0  0  0  0  0  0  0  0  # atno 2465 bound_to 2455 2458 2462
   47.8807   25.5787   35.8594 LP  0  0  0  0  0  0  0  0  0  0  0  0  # atno 5611 bound_to 2462
   47.6966   27.1920   36.0333 LP  0  0  0  0  0  0  0  0  0  0  0  0  # atno 5612 bound_to 2462

> <Gold.Score>
     Fitness  S(hb_ext) S(vdw_ext)  S(hb_int)    S(int)      intcor
     30.14       1.97      20.54       0.00      -0.06      -0.76

> <Gold.Goldscore.Fitness>
30.1412

> <Gold.Goldscore.Internal.Vdw>
-0.4086

> <Gold.Goldscore.Internal.Torsion>
-0.4193

> <Gold.Goldscore.External.Vdw>
20.5355

> <Gold.Goldscore.Internal.HBond>
0.0000

> <Gold.Goldscore.External.HBond>
1.9678

> <Gold.Goldscore.Internal.Correction>
-0.7650

> <Gold.Goldscore.Hbonds>
donor molecule, donor type, donor heavy atom, donor atom, acceptor molecule, acceptor atom, score
      P1  H  2664  2672       L1    11  0.29
      L1  H    10    23       P1  2670  0.23

> <Gold.Goldscore.Internal.Vdw.Weighted>
-0.4086

> <Gold.Goldscore.Internal.Torsion.Weighted>
-0.4193

> <Gold.Goldscore.External.Vdw.Weighted>
28.2363

> <Gold.Goldscore.Internal.HBond.Weighted>
0.0000

> <Gold.Goldscore.External.HBond.Weighted>
1.9678

> <Gold.Goldscore.Internal.Correction.Weighted>
-0.7650

> <Gold.Rescore>
     Score     S(PLP)   S(hbond)     S(cho)   S(metal)  DE(clash)   DE(tors)     intcor
     29.41     -26.51       1.00       0.00       0.00       0.00       0.05       ----

> <Gold.PLP.Fitness>
29.4132

> <Gold.PLP.PLP>
-26.5090

> <Gold.PLP.part.hbond>
-1.2432

> <Gold.PLP.part.metal>
0.0000

> <Gold.PLP.part.buried>
-1.2749

> <Gold.PLP.part.nonpolar>
-25.2626

> <Gold.PLP.part.repulsive>
0.3000

> <Gold.PLP.ligand.clash>
0.0000

> <Gold.PLP.ligand.torsion>
0.0479

> <Gold.PLP.Chemscore.Hbond>
1.0000

> <Gold.PLP.Chemscore.CHOScore>
0.0000

> <Gold.PLP.Chemscore.Metal>
0.0000

> <Gold.Chemscore.Hbonds>
donor molecule, donor type, donor heavy atom, donor atom, acceptor molecule, acceptor atom, score
      L1  H    10    23       P1  2670  0.17

> <Gold.PLP.Chemscore.Internal.Correction>
   9.000000E+99

