#       Name:                CT1002167954
#       Creating user name   hitesit
#       Creation time:       Sun Apr 16 02:21:19 2023


#       File generated by GOLD software.
#

@<TRIPOS>MOLECULE
CT1002167954|ligand_prepared|mol2|1|dock7
    29    30     1
SMALL
NO_CHARGES


@<TRIPOS>ATOM
      1 C1          45.9046  33.0474  30.1214 C.3            1 RES1               0.0000
      2 C2          44.5291  33.1615  30.8098 C.ar           1 RES1               0.0000
      3 C3          46.4994  34.4525  30.1168 C.2            1 RES1               0.0000
      4 C4          46.7054  32.0355  30.9334 C.2            1 RES1               0.0000
      5 C5          45.8328  32.5396  28.6624 C.3            1 RES1               0.0000
      6 C6          44.3663  33.9570  31.9400 C.ar           1 RES1               0.0000
      7 C7          43.4153  32.4807  30.3256 C.ar           1 RES1               0.0000
      8 N8          47.5183  34.7102  30.9859 N.am           1 RES1               0.0000
      9 O9          46.0548  35.3322  29.3897 O.2            1 RES1               0.0000
     10 N10         47.8149  32.4825  31.6019 N.am           1 RES1               0.0000
     11 O11         46.3761  30.8584  31.0139 O.2            1 RES1               0.0000
     12 C12         47.1724  32.5502  27.9429 C.3            1 RES1               0.0000
     13 C13         43.1339  34.0702  32.5620 C.ar           1 RES1               0.0000
     14 C14         42.1839  32.5951  30.9493 C.ar           1 RES1               0.0000
     15 C15         48.2402  33.7801  31.6899 C.2            1 RES1               0.0000
     16 C16         42.0419  33.3898  32.0669 C.ar           1 RES1               0.0000
     17 O17         49.2168  34.1119  32.3555 O.2            1 RES1               0.0000
     18 H18         45.4410  31.5150  28.6640 H              1 RES1               0.0000
     19 H19         45.1273  33.1675  28.1043 H              1 RES1               0.0000
     20 H20         45.2148  34.4980  32.3455 H              1 RES1               0.0000
     21 H21         43.5037  31.8490  29.4483 H              1 RES1               0.0000
     22 H22         47.7664  35.6845  31.1254 H              1 RES1               0.0000
     23 H23         48.3759  31.7832  32.0780 H              1 RES1               0.0000
     24 H24         47.0657  32.1848  26.9237 H              1 RES1               0.0000
     25 H25         47.5795  33.5583  27.9006 H              1 RES1               0.0000
     26 H26         47.8913  31.9156  28.4570 H              1 RES1               0.0000
     27 H27         43.0278  34.6959  33.4421 H              1 RES1               0.0000
     28 H28         41.3273  32.0574  30.5565 H              1 RES1               0.0000
     29 H29         41.0766  33.4790  32.5541 H              1 RES1               0.0000
@<TRIPOS>BOND
    1    1    2 1     
    2    1    3 1     
    3    1    4 1     
    4    1    5 1     
    5    2    6 ar    
    6    2    7 ar    
    7    3    8 1     
    8    3    9 2     
    9    4   10 1     
   10    4   11 2     
   11    5   12 1     
   12    5   18 1     
   13    5   19 1     
   14    6   13 ar    
   15    6   20 1     
   16    7   14 ar    
   17    7   21 1     
   18    8   15 1     
   19    8   22 1     
   20   10   15 1     
   21   10   23 1     
   22   12   24 1     
   23   12   25 1     
   24   12   26 1     
   25   13   16 ar    
   26   13   27 1     
   27   14   16 ar    
   28   14   28 1     
   29   15   17 2     
   30   16   29 1     
@<TRIPOS>SUBSTRUCTURE
      1 RES1           1
@<TRIPOS>SET
DONOR_HYDROGENS      STATIC     ATOMS    <user>   **** ""
2 22 23
ATOM$RED        STATIC     ATOMS    COLORGROUP SYSTEM
2 22 23
@<TRIPOS>COMMENT
> <Gold.Version>
2022.3.0

> <Gold.Id.Protein>
unknown|2zaz_clean|pdb

> <Gold.Protein.RotatedTorsions>
[ 2465 2462 2458 2455 ] final  -69.08 input  -12.99 | X-H torsion
[ 2449 2444 2443 2440 ] final   -9.40 input   60.00 | X-H torsion
[ 1651 1646 1644 1641 ] final  106.80 input   60.01 | X-H torsion

> <Gold.Protein.ActiveResidues>
 VAL30   GLY31   VAL38   ALA51   ILE84   THR106  HIS107  LEU108  MET109  GLY110 
 ALA111  ASP112  LEU113  ASN114  ASN115  PRO153  SER154  ASN155  LEU156  ALA157 
 VAL158  LYS165  LEU167  ASP168 

> <Gold.Protein.RotatedAtoms>
   40.7677   35.7246   32.6814 H   0  0  0  0  0  0  0  0  0  0  0  0  # atno 1651 bound_to 1646
   51.0919   26.0065   36.9106 H   0  0  0  0  0  0  0  0  0  0  0  0  # atno 2449 bound_to 2444
   46.5769   26.4573   36.7961 H   0  0  0  0  0  0  0  0  0  0  0  0  # atno 2465 bound_to 2455 2458 2462
   47.5838   25.4977   35.8165 LP  0  0  0  0  0  0  0  0  0  0  0  0  # atno 5611 bound_to 2462
   47.9797   27.0648   36.0495 LP  0  0  0  0  0  0  0  0  0  0  0  0  # atno 5612 bound_to 2462

> <Gold.Score>
     Fitness  S(hb_ext) S(vdw_ext)  S(hb_int)    S(int)      intcor
     25.83       1.74      17.86       0.00      -0.47      -0.76

> <Gold.Goldscore.Fitness>
25.8329

> <Gold.Goldscore.Internal.Vdw>
-0.8179

> <Gold.Goldscore.Internal.Torsion>
-0.4151

> <Gold.Goldscore.External.Vdw>
17.8649

> <Gold.Goldscore.Internal.HBond>
0.0000

> <Gold.Goldscore.External.HBond>
1.7431

> <Gold.Goldscore.Internal.Correction>
-0.7585

> <Gold.Goldscore.Hbonds>
donor molecule, donor type, donor heavy atom, donor atom, acceptor molecule, acceptor atom, score
      P1  H  1690  1698       L1     9  0.02
      L1  H     8    22       P1  1693  0.85

> <Gold.Goldscore.Internal.Vdw.Weighted>
-0.8179

> <Gold.Goldscore.Internal.Torsion.Weighted>
-0.4151

> <Gold.Goldscore.External.Vdw.Weighted>
24.5643

> <Gold.Goldscore.Internal.HBond.Weighted>
0.0000

> <Gold.Goldscore.External.HBond.Weighted>
1.7431

> <Gold.Goldscore.Internal.Correction.Weighted>
-0.7585

> <Gold.Rescore>
     Score     S(PLP)   S(hbond)     S(cho)   S(metal)  DE(clash)   DE(tors)     intcor
     27.64     -24.73       1.00       0.00       0.00       0.00       0.04       ----

> <Gold.PLP.Fitness>
27.6435

> <Gold.PLP.PLP>
-24.7274

> <Gold.PLP.part.hbond>
-1.0000

> <Gold.PLP.part.metal>
0.0000

> <Gold.PLP.part.buried>
-2.1031

> <Gold.PLP.part.nonpolar>
-21.6311

> <Gold.PLP.part.repulsive>
0.2892

> <Gold.PLP.ligand.clash>
0.0000

> <Gold.PLP.ligand.torsion>
0.0420

> <Gold.PLP.Chemscore.Hbond>
1.0000

> <Gold.PLP.Chemscore.CHOScore>
0.0000

> <Gold.PLP.Chemscore.Metal>
0.0000

> <Gold.Chemscore.Hbonds>
donor molecule, donor type, donor heavy atom, donor atom, acceptor molecule, acceptor atom, score
      L1  H     8    22       P1  1693  0.50

> <Gold.PLP.Chemscore.Internal.Correction>
   9.000000E+99

