#       Name:                CT1002167954
#       Creating user name   hitesit
#       Creation time:       Sun Apr 16 02:21:18 2023


#       File generated by GOLD software.
#

@<TRIPOS>MOLECULE
CT1002167954|ligand_prepared|mol2|1|dock6
    29    30     1
SMALL
NO_CHARGES


@<TRIPOS>ATOM
      1 C1          42.5520  31.7111  31.5218 C.3            1 RES1               0.0000
      2 C2          41.0336  31.7478  31.2532 C.ar           1 RES1               0.0000
      3 C3          42.7524  30.7921  32.7233 C.2            1 RES1               0.0000
      4 C4          43.2004  31.2065  30.2375 C.2            1 RES1               0.0000
      5 C5          43.1613  33.0932  31.8536 C.3            1 RES1               0.0000
      6 C6          40.1605  30.9765  32.0144 C.ar           1 RES1               0.0000
      7 C7          40.4920  32.5486  30.2512 C.ar           1 RES1               0.0000
      8 N8          43.2731  29.5532  32.4912 N.am           1 RES1               0.0000
      9 O9          42.4217  31.1345  33.8519 O.2            1 RES1               0.0000
     10 N10         43.8333  29.9916  30.2722 N.am           1 RES1               0.0000
     11 O11         43.1546  31.8423  29.1916 O.2            1 RES1               0.0000
     12 C12         44.6804  33.0936  31.9199 C.3            1 RES1               0.0000
     13 C13         38.7951  31.0068  31.7843 C.ar           1 RES1               0.0000
     14 C14         39.1262  32.5772  30.0226 C.ar           1 RES1               0.0000
     15 C15         43.8725  29.1281  31.3329 C.2            1 RES1               0.0000
     16 C16         38.2770  31.8074  30.7887 C.ar           1 RES1               0.0000
     17 O17         44.4150  28.0286  31.2704 O.2            1 RES1               0.0000
     18 H18         42.8411  33.8128  31.0900 H              1 RES1               0.0000
     19 H19         42.7657  33.4310  32.8194 H              1 RES1               0.0000
     20 H20         40.5501  30.3385  32.8006 H              1 RES1               0.0000
     21 H21         41.1412  33.1618  29.6354 H              1 RES1               0.0000
     22 H22         43.2111  28.8807  33.2489 H              1 RES1               0.0000
     23 H23         44.3204  29.7044  29.4292 H              1 RES1               0.0000
     24 H24         45.0560  34.0871  32.1557 H              1 RES1               0.0000
     25 H25         45.0332  32.4071  32.6869 H              1 RES1               0.0000
     26 H26         45.1082  32.7867  30.9677 H              1 RES1               0.0000
     27 H27         38.1311  30.3980  32.3891 H              1 RES1               0.0000
     28 H28         38.7229  33.2083  29.2375 H              1 RES1               0.0000
     29 H29         37.2072  31.8313  30.6089 H              1 RES1               0.0000
@<TRIPOS>BOND
    1    1    2 1     
    2    1    3 1     
    3    1    4 1     
    4    1    5 1     
    5    2    6 ar    
    6    2    7 ar    
    7    3    8 1     
    8    3    9 2     
    9    4   10 1     
   10    4   11 2     
   11    5   12 1     
   12    5   18 1     
   13    5   19 1     
   14    6   13 ar    
   15    6   20 1     
   16    7   14 ar    
   17    7   21 1     
   18    8   15 1     
   19    8   22 1     
   20   10   15 1     
   21   10   23 1     
   22   12   24 1     
   23   12   25 1     
   24   12   26 1     
   25   13   16 ar    
   26   13   27 1     
   27   14   16 ar    
   28   14   28 1     
   29   15   17 2     
   30   16   29 1     
@<TRIPOS>SUBSTRUCTURE
      1 RES1           1
@<TRIPOS>SET
DONOR_HYDROGENS      STATIC     ATOMS    <user>   **** ""
2 22 23
ATOM$RED        STATIC     ATOMS    COLORGROUP SYSTEM
2 22 23
@<TRIPOS>COMMENT
> <Gold.Version>
2022.3.0

> <Gold.Id.Protein>
unknown|2zaz_clean|pdb

> <Gold.Protein.RotatedTorsions>
[ 2465 2462 2458 2455 ] final  -70.20 input  -12.99 | X-H torsion
[ 2449 2444 2443 2440 ] final   58.98 input   60.00 | X-H torsion
[ 1651 1646 1644 1641 ] final -175.42 input   60.01 | X-H torsion

> <Gold.Protein.ActiveResidues>
 VAL30   GLY31   VAL38   ALA51   ILE84   THR106  HIS107  LEU108  MET109  GLY110 
 ALA111  ASP112  LEU113  ASN114  ASN115  PRO153  SER154  ASN155  LEU156  ALA157 
 VAL158  LYS165  LEU167  ASP168 

> <Gold.Protein.RotatedAtoms>
   40.4277   34.6008   32.6360 H   0  0  0  0  0  0  0  0  0  0  0  0  # atno 1651 bound_to 1646
   50.4627   26.0276   36.0670 H   0  0  0  0  0  0  0  0  0  0  0  0  # atno 2449 bound_to 2444
   46.5731   26.4415   36.7938 H   0  0  0  0  0  0  0  0  0  0  0  0  # atno 2465 bound_to 2455 2458 2462
   47.6005   25.4993   35.8186 LP  0  0  0  0  0  0  0  0  0  0  0  0  # atno 5611 bound_to 2462
   47.9657   27.0741   36.0491 LP  0  0  0  0  0  0  0  0  0  0  0  0  # atno 5612 bound_to 2462

> <Gold.Score>
     Fitness  S(hb_ext) S(vdw_ext)  S(hb_int)    S(int)      intcor
     33.26       5.47      23.01       0.00      -3.84      -0.76

> <Gold.Goldscore.Fitness>
33.2632

> <Gold.Goldscore.Internal.Vdw>
-4.1270

> <Gold.Goldscore.Internal.Torsion>
-0.4749

> <Gold.Goldscore.External.Vdw>
23.0107

> <Gold.Goldscore.Internal.HBond>
0.0000

> <Gold.Goldscore.External.HBond>
5.4670

> <Gold.Goldscore.Internal.Correction>
-0.7585

> <Gold.Goldscore.Hbonds>
donor molecule, donor type, donor heavy atom, donor atom, acceptor molecule, acceptor atom, score
      L1  H     8    22       P1  2670  0.91

> <Gold.Goldscore.Internal.Vdw.Weighted>
-4.1270

> <Gold.Goldscore.Internal.Torsion.Weighted>
-0.4749

> <Gold.Goldscore.External.Vdw.Weighted>
31.6397

> <Gold.Goldscore.Internal.HBond.Weighted>
0.0000

> <Gold.Goldscore.External.HBond.Weighted>
5.4670

> <Gold.Goldscore.Internal.Correction.Weighted>
-0.7585

> <Gold.Rescore>
     Score     S(PLP)   S(hbond)     S(cho)   S(metal)  DE(clash)   DE(tors)     intcor
     36.84     -36.54       1.00       0.00       0.00       0.99       0.86       ----

> <Gold.PLP.Fitness>
36.8442

> <Gold.PLP.PLP>
-36.5419

> <Gold.PLP.part.hbond>
-1.0000

> <Gold.PLP.part.metal>
0.0000

> <Gold.PLP.part.buried>
-3.3116

> <Gold.PLP.part.nonpolar>
-32.5883

> <Gold.PLP.part.repulsive>
0.2227

> <Gold.PLP.ligand.clash>
0.9864

> <Gold.PLP.ligand.torsion>
0.8556

> <Gold.PLP.Chemscore.Hbond>
1.0000

> <Gold.PLP.Chemscore.CHOScore>
0.0000

> <Gold.PLP.Chemscore.Metal>
0.0000

> <Gold.Chemscore.Hbonds>
donor molecule, donor type, donor heavy atom, donor atom, acceptor molecule, acceptor atom, score
      L1  H     8    22       P1  2670  0.68

> <Gold.PLP.Chemscore.Internal.Correction>
   9.000000E+99

