#       Name:                CT1002167954
#       Creating user name   hitesit
#       Creation time:       Sun Apr 16 02:21:30 2023


#       File generated by GOLD software.
#

@<TRIPOS>MOLECULE
CT1002167954|ligand_prepared|mol2|1|dock10
    29    30     1
SMALL
NO_CHARGES


@<TRIPOS>ATOM
      1 C1         -31.2745   8.7206  12.7531 C.3            1 RES1               0.0000
      2 C2         -31.3054   9.2295  11.2975 C.ar           1 RES1               0.0000
      3 C3         -31.6515   7.2431  12.6985 C.2            1 RES1               0.0000
      4 C4         -29.8636   8.9841  13.2673 C.2            1 RES1               0.0000
      5 C5         -32.2678   9.4467  13.6900 C.3            1 RES1               0.0000
      6 C6         -30.1229   9.5157  10.6217 C.ar           1 RES1               0.0000
      7 C7         -32.5062   9.4149  10.6176 C.ar           1 RES1               0.0000
      8 N8         -30.6570   6.3297  12.8897 N.am           1 RES1               0.0000
      9 O9         -32.7965   6.8844  12.4522 O.2            1 RES1               0.0000
     10 N10        -29.0781   7.9027  13.5698 N.am           1 RES1               0.0000
     11 O11        -29.4191  10.1180  13.3975 O.2            1 RES1               0.0000
     12 C12        -32.0807   9.1103  15.1611 C.3            1 RES1               0.0000
     13 C13        -30.1402   9.9679   9.3127 C.ar           1 RES1               0.0000
     14 C14        -32.5212   9.8674   9.3087 C.ar           1 RES1               0.0000
     15 C15        -29.4001   6.5872  13.3752 C.2            1 RES1               0.0000
     16 C16        -31.3391  10.1437   8.6552 C.ar           1 RES1               0.0000
     17 O17        -28.6193   5.6722  13.6208 O.2            1 RES1               0.0000
     18 H18        -32.1509  10.5294  13.5577 H              1 RES1               0.0000
     19 H19        -33.2904   9.1813  13.3945 H              1 RES1               0.0000
     20 H20        -29.1700   9.3858  11.1236 H              1 RES1               0.0000
     21 H21        -33.4485   9.2049  11.1122 H              1 RES1               0.0000
     22 H22        -30.8671   5.3662  12.6494 H              1 RES1               0.0000
     23 H23        -28.1691   8.0964  13.9780 H              1 RES1               0.0000
     24 H24        -32.8024   9.6461  15.7741 H              1 RES1               0.0000
     25 H25        -32.2150   8.0444  15.3332 H              1 RES1               0.0000
     26 H26        -31.0823   9.3846  15.4954 H              1 RES1               0.0000
     27 H27        -29.2071  10.1852   8.8033 H              1 RES1               0.0000
     28 H28        -33.4671  10.0049   8.7953 H              1 RES1               0.0000
     29 H29        -31.3523  10.4976   7.6296 H              1 RES1               0.0000
@<TRIPOS>BOND
    1    1    2 1     
    2    1    3 1     
    3    1    4 1     
    4    1    5 1     
    5    2    6 ar    
    6    2    7 ar    
    7    3    8 1     
    8    3    9 2     
    9    4   10 1     
   10    4   11 2     
   11    5   12 1     
   12    5   18 1     
   13    5   19 1     
   14    6   13 ar    
   15    6   20 1     
   16    7   14 ar    
   17    7   21 1     
   18    8   15 1     
   19    8   22 1     
   20   10   15 1     
   21   10   23 1     
   22   12   24 1     
   23   12   25 1     
   24   12   26 1     
   25   13   16 ar    
   26   13   27 1     
   27   14   16 ar    
   28   14   28 1     
   29   15   17 2     
   30   16   29 1     
@<TRIPOS>SUBSTRUCTURE
      1 RES1           1
@<TRIPOS>SET
DONOR_HYDROGENS      STATIC     ATOMS    <user>   **** ""
2 22 23
ATOM$RED        STATIC     ATOMS    COLORGROUP SYSTEM
2 22 23
@<TRIPOS>COMMENT
> <Gold.Version>
2022.3.0

> <Gold.Id.Protein>
unknown|3ama_clean|pdb

> <Gold.Protein.RotatedTorsions>
[ 2011 2002 2001 1999 ] final    1.89 input   60.00 | X-H torsion
[ 2112 2107 2106 2103 ] final -174.33 input   60.00 | X-H torsion
[ 5355 5346 5345 5343 ] final -145.02 input   60.01 | X-H torsion
[  804  797  795  792 ] final   35.30 input   59.99 | X-H torsion
[ 2696 2687 2686 2684 ] final  -70.21 input   59.97 | X-H torsion
[ 5271 5265 5266 5267 ] final -134.64 input   60.00 | X-H torsion

> <Gold.Protein.ActiveResidues>
 ARG47   THR48   LEU49   GLY50   THR51   GLY52   ARG56   VAL57   MET58   LEU59  
 TYR69   ALA70   MET71   LYS72   GLN95   VAL104  LYS105  MET118  VAL119  LEU120 
 GLU121  TYR122  ALA123  PRO124  GLY125  GLY126  GLU127  MET128  PHE129  SER130 
 HIS131  TYR164  LYS168  PRO169  GLU170  ASN171  LEU172  LEU173  ILE174  ASP175 
 LYS181  VAL182  ALA183  ASP184  SER325  ASN326  PHE327  ASP328  ASP329  TYR330 

> <Gold.Protein.RotatedAtoms>
  -19.7135   13.1592    6.1615 H   0  0  0  0  0  0  0  0  0  0  0  0  # atno 804  bound_to 797 
  -34.2208   11.7358   10.4098 H   0  0  0  0  0  0  0  0  0  0  0  0  # atno 2011 bound_to 2002
  -26.4402    5.8026   12.1163 H   0  0  0  0  0  0  0  0  0  0  0  0  # atno 2112 bound_to 2107
  -25.4982    3.4102   -3.1448 H   0  0  0  0  0  0  0  0  0  0  0  0  # atno 2696 bound_to 2687
  -33.1964   15.1069   19.4043 H   0  0  0  0  0  0  0  0  0  0  0  0  # atno 5271 bound_to 5265
  -32.5550   13.8125   18.5917 H   0  0  0  0  0  0  0  0  0  0  0  0  # atno 5272 bound_to 5265
  -23.4339   12.0869    9.9962 H   0  0  0  0  0  0  0  0  0  0  0  0  # atno 5355 bound_to 5346
  -35.3682   10.6125   10.6717 LP  0  0  0  0  0  0  0  0  0  0  0  0  # atno 5697 bound_to 2002
  -35.7010   12.1939   10.9059 LP  0  0  0  0  0  0  0  0  0  0  0  0  # atno 5698 bound_to 2002
  -25.9284    4.7814   10.9575 LP  0  0  0  0  0  0  0  0  0  0  0  0  # atno 5727 bound_to 2107
  -24.9659    5.1238   12.2314 LP  0  0  0  0  0  0  0  0  0  0  0  0  # atno 5728 bound_to 2107
  -22.2151   11.8849   11.0549 LP  0  0  0  0  0  0  0  0  0  0  0  0  # atno 5742 bound_to 5346
  -21.9127   12.4623    9.5576 LP  0  0  0  0  0  0  0  0  0  0  0  0  # atno 5743 bound_to 5346
  -20.1324   13.9499    7.5200 LP  0  0  0  0  0  0  0  0  0  0  0  0  # atno 5778 bound_to 797 
  -18.7494   14.3342    6.7414 LP  0  0  0  0  0  0  0  0  0  0  0  0  # atno 5779 bound_to 797 
  -25.8172    2.0801   -2.2638 LP  0  0  0  0  0  0  0  0  0  0  0  0  # atno 5782 bound_to 2687
  -27.0415    2.9761   -2.8678 LP  0  0  0  0  0  0  0  0  0  0  0  0  # atno 5783 bound_to 2687

> <Gold.Score>
     Fitness  S(hb_ext) S(vdw_ext)  S(hb_int)    S(int)      intcor
     37.33       0.53      28.26       0.00      -2.05      -0.76

> <Gold.Goldscore.Fitness>
37.3340

> <Gold.Goldscore.Internal.Vdw>
-2.2980

> <Gold.Goldscore.Internal.Torsion>
-0.5071

> <Gold.Goldscore.External.Vdw>
28.2580

> <Gold.Goldscore.Internal.HBond>
0.0000

> <Gold.Goldscore.External.HBond>
0.5259

> <Gold.Goldscore.Internal.Correction>
-0.7585

> <Gold.Goldscore.Hbonds>
donor molecule, donor type, donor heavy atom, donor atom, acceptor molecule, acceptor atom, score
      P1  H  5311  5319       L1    11  0.17
      L1  H     8    22       P1  2122  0.09

> <Gold.Goldscore.Internal.Vdw.Weighted>
-2.2980

> <Gold.Goldscore.Internal.Torsion.Weighted>
-0.5071

> <Gold.Goldscore.External.Vdw.Weighted>
38.8547

> <Gold.Goldscore.Internal.HBond.Weighted>
0.0000

> <Gold.Goldscore.External.HBond.Weighted>
0.5259

> <Gold.Goldscore.Internal.Correction.Weighted>
-0.7585

> <Gold.Rescore>
     Score     S(PLP)   S(hbond)     S(cho)   S(metal)  DE(clash)   DE(tors)     intcor
     30.45     -27.60       1.74       0.00       0.00       1.63       0.38       ----

> <Gold.PLP.Fitness>
30.4459

> <Gold.PLP.PLP>
-27.6025

> <Gold.PLP.part.hbond>
-3.0000

> <Gold.PLP.part.metal>
0.0000

> <Gold.PLP.part.buried>
2.2057

> <Gold.PLP.part.nonpolar>
-32.0350

> <Gold.PLP.part.repulsive>
4.2026

> <Gold.PLP.ligand.clash>
1.6264

> <Gold.PLP.ligand.torsion>
0.3752

> <Gold.PLP.Chemscore.Hbond>
1.7401

> <Gold.PLP.Chemscore.CHOScore>
0.0000

> <Gold.PLP.Chemscore.Metal>
0.0000

> <Gold.Chemscore.Hbonds>
donor molecule, donor type, donor heavy atom, donor atom, acceptor molecule, acceptor atom, score
      L1  H     8    22       P1  2039  0.21
      P1  H  5311  5319       L1    11  0.37

> <Gold.PLP.Chemscore.Internal.Correction>
   9.000000E+99

