#       Name:                CT1002167954
#       Creating user name   hitesit
#       Creation time:       Sun Apr 16 02:21:26 2023


#       File generated by GOLD software.
#

@<TRIPOS>MOLECULE
CT1002167954|ligand_prepared|mol2|1|dock7
    29    30     1
SMALL
NO_CHARGES


@<TRIPOS>ATOM
      1 C1         -31.1387   7.8435  13.4003 C.3            1 RES1               0.0000
      2 C2         -31.2848   8.5919  12.0597 C.ar           1 RES1               0.0000
      3 C3         -32.3597   8.2180  14.2353 C.2            1 RES1               0.0000
      4 C4         -31.0525   6.3611  13.0543 C.2            1 RES1               0.0000
      5 C5         -29.8664   8.2238  14.1928 C.3            1 RES1               0.0000
      6 C6         -32.5330   9.0241  11.6217 C.ar           1 RES1               0.0000
      7 C7         -30.1821   8.8593  11.2527 C.ar           1 RES1               0.0000
      8 N8         -33.3318   7.2743  14.3916 N.am           1 RES1               0.0000
      9 O9         -32.4861   9.3373  14.7162 O.2            1 RES1               0.0000
     10 N10        -32.0731   5.5450  13.4668 N.am           1 RES1               0.0000
     11 O11        -30.1182   5.8953  12.4136 O.2            1 RES1               0.0000
     12 C12        -29.7901   7.5880  15.5720 C.3            1 RES1               0.0000
     13 C13        -32.6736   9.7016  10.4220 C.ar           1 RES1               0.0000
     14 C14        -30.3249   9.5368  10.0531 C.ar           1 RES1               0.0000
     15 C15        -33.2238   5.9398  14.0932 C.2            1 RES1               0.0000
     16 C16        -31.5697   9.9589   9.6371 C.ar           1 RES1               0.0000
     17 O17        -34.1210   5.1539  14.3841 O.2            1 RES1               0.0000
     18 H18        -28.9857   7.9189  13.6142 H              1 RES1               0.0000
     19 H19        -29.8329   9.3146  14.3046 H              1 RES1               0.0000
     20 H20        -33.4135   8.8286  12.2248 H              1 RES1               0.0000
     21 H21        -29.1932   8.5358  11.5594 H              1 RES1               0.0000
     22 H22        -34.2214   7.5901  14.7647 H              1 RES1               0.0000
     23 H23        -31.9649   4.5512  13.2909 H              1 RES1               0.0000
     24 H24        -28.8786   7.8876  16.0850 H              1 RES1               0.0000
     25 H25        -30.6379   7.8900  16.1834 H              1 RES1               0.0000
     26 H26        -29.7957   6.5026  15.4971 H              1 RES1               0.0000
     27 H27        -33.6556  10.0304  10.0984 H              1 RES1               0.0000
     28 H28        -29.4535   9.7366   9.4383 H              1 RES1               0.0000
     29 H29        -31.6800  10.4900   8.6975 H              1 RES1               0.0000
@<TRIPOS>BOND
    1    1    2 1     
    2    1    3 1     
    3    1    4 1     
    4    1    5 1     
    5    2    6 ar    
    6    2    7 ar    
    7    3    8 1     
    8    3    9 2     
    9    4   10 1     
   10    4   11 2     
   11    5   12 1     
   12    5   18 1     
   13    5   19 1     
   14    6   13 ar    
   15    6   20 1     
   16    7   14 ar    
   17    7   21 1     
   18    8   15 1     
   19    8   22 1     
   20   10   15 1     
   21   10   23 1     
   22   12   24 1     
   23   12   25 1     
   24   12   26 1     
   25   13   16 ar    
   26   13   27 1     
   27   14   16 ar    
   28   14   28 1     
   29   15   17 2     
   30   16   29 1     
@<TRIPOS>SUBSTRUCTURE
      1 RES1           1
@<TRIPOS>SET
DONOR_HYDROGENS      STATIC     ATOMS    <user>   **** ""
2 22 23
ATOM$RED        STATIC     ATOMS    COLORGROUP SYSTEM
2 22 23
@<TRIPOS>COMMENT
> <Gold.Version>
2022.3.0

> <Gold.Id.Protein>
unknown|3ama_clean|pdb

> <Gold.Protein.RotatedTorsions>
[ 2011 2002 2001 1999 ] final   64.93 input   60.00 | X-H torsion
[ 2112 2107 2106 2103 ] final  167.95 input   60.00 | X-H torsion
[ 5355 5346 5345 5343 ] final   24.13 input   60.01 | X-H torsion
[  804  797  795  792 ] final -147.14 input   59.99 | X-H torsion
[ 2696 2687 2686 2684 ] final  -30.58 input   59.97 | X-H torsion
[ 5271 5265 5266 5267 ] final  114.71 input   60.00 | X-H torsion

> <Gold.Protein.ActiveResidues>
 ARG47   THR48   LEU49   GLY50   THR51   GLY52   ARG56   VAL57   MET58   LEU59  
 TYR69   ALA70   MET71   LYS72   GLN95   VAL104  LYS105  MET118  VAL119  LEU120 
 GLU121  TYR122  ALA123  PRO124  GLY125  GLY126  GLU127  MET128  PHE129  SER130 
 HIS131  TYR164  LYS168  PRO169  GLU170  ASN171  LEU172  LEU173  ILE174  ASP175 
 LYS181  VAL182  ALA183  ASP184  SER325  ASN326  PHE327  ASP328  ASP329  TYR330 

> <Gold.Protein.RotatedAtoms>
  -19.3191   14.4774    7.4290 H   0  0  0  0  0  0  0  0  0  0  0  0  # atno 804  bound_to 797 
  -34.8686   12.4227   10.6665 H   0  0  0  0  0  0  0  0  0  0  0  0  # atno 2011 bound_to 2002
  -26.5768    5.7160   11.8776 H   0  0  0  0  0  0  0  0  0  0  0  0  # atno 2112 bound_to 2107
  -26.0881    3.6027   -3.2774 H   0  0  0  0  0  0  0  0  0  0  0  0  # atno 2696 bound_to 2687
  -34.2279   13.9904   18.9939 H   0  0  0  0  0  0  0  0  0  0  0  0  # atno 5271 bound_to 5265
  -33.0454   15.0900   19.3677 H   0  0  0  0  0  0  0  0  0  0  0  0  # atno 5272 bound_to 5265
  -21.5959   12.2658   10.2441 H   0  0  0  0  0  0  0  0  0  0  0  0  # atno 5355 bound_to 5346
  -34.4530   10.8705   10.4115 LP  0  0  0  0  0  0  0  0  0  0  0  0  # atno 5697 bound_to 2002
  -35.9634   11.2437   10.9076 LP  0  0  0  0  0  0  0  0  0  0  0  0  # atno 5698 bound_to 2002
  -25.6617    4.6827   11.0160 LP  0  0  0  0  0  0  0  0  0  0  0  0  # atno 5727 bound_to 2107
  -25.0950    5.3097   12.4132 LP  0  0  0  0  0  0  0  0  0  0  0  0  # atno 5728 bound_to 2107
  -22.9912   12.3574    9.4122 LP  0  0  0  0  0  0  0  0  0  0  0  0  # atno 5742 bound_to 5346
  -22.9887   11.8097   10.9506 LP  0  0  0  0  0  0  0  0  0  0  0  0  # atno 5743 bound_to 5346
  -18.9555   13.6455    6.0791 LP  0  0  0  0  0  0  0  0  0  0  0  0  # atno 5778 bound_to 797 
  -20.3238   13.3102    6.9050 LP  0  0  0  0  0  0  0  0  0  0  0  0  # atno 5779 bound_to 797 
  -25.3161    2.4131   -2.4800 LP  0  0  0  0  0  0  0  0  0  0  0  0  # atno 5782 bound_to 2687
  -26.9483    2.4492   -2.5181 LP  0  0  0  0  0  0  0  0  0  0  0  0  # atno 5783 bound_to 2687

> <Gold.Score>
     Fitness  S(hb_ext) S(vdw_ext)  S(hb_int)    S(int)      intcor
     34.64       1.09      25.28       0.00      -1.22      -0.76

> <Gold.Goldscore.Fitness>
34.6357

> <Gold.Goldscore.Internal.Vdw>
-1.5589

> <Gold.Goldscore.Internal.Torsion>
-0.4183

> <Gold.Goldscore.External.Vdw>
25.2840

> <Gold.Goldscore.Internal.HBond>
0.0000

> <Gold.Goldscore.External.HBond>
1.0889

> <Gold.Goldscore.Internal.Correction>
-0.7585

> <Gold.Goldscore.Hbonds>
donor molecule, donor type, donor heavy atom, donor atom, acceptor molecule, acceptor atom, score
      L1  H    10    23       P1  2122  0.54

> <Gold.Goldscore.Internal.Vdw.Weighted>
-1.5589

> <Gold.Goldscore.Internal.Torsion.Weighted>
-0.4183

> <Gold.Goldscore.External.Vdw.Weighted>
34.7655

> <Gold.Goldscore.Internal.HBond.Weighted>
0.0000

> <Gold.Goldscore.External.HBond.Weighted>
1.0889

> <Gold.Goldscore.Internal.Correction.Weighted>
-0.7585

> <Gold.Rescore>
     Score     S(PLP)   S(hbond)     S(cho)   S(metal)  DE(clash)   DE(tors)     intcor
     36.94     -39.26       0.00       0.00       0.00       0.00       1.16       ----

> <Gold.PLP.Fitness>
36.9355

> <Gold.PLP.PLP>
-39.2610

> <Gold.PLP.part.hbond>
-1.3803

> <Gold.PLP.part.metal>
0.0000

> <Gold.PLP.part.buried>
-4.8257

> <Gold.PLP.part.nonpolar>
-34.5620

> <Gold.PLP.part.repulsive>
0.6644

> <Gold.PLP.ligand.clash>
0.0000

> <Gold.PLP.ligand.torsion>
1.1627

> <Gold.PLP.Chemscore.Hbond>
0.0000

> <Gold.PLP.Chemscore.CHOScore>
0.0000

> <Gold.PLP.Chemscore.Metal>
0.0000

> <Gold.Chemscore.Hbonds>
donor molecule, donor type, donor heavy atom, donor atom, acceptor molecule, acceptor atom, score
      L1  H    10    23       P1  2122  0.18

> <Gold.PLP.Chemscore.Internal.Correction>
   9.000000E+99

