#       Name:                CT1002167954
#       Creating user name   hitesit
#       Creation time:       Sun Apr 16 02:21:25 2023


#       File generated by GOLD software.
#

@<TRIPOS>MOLECULE
CT1002167954|ligand_prepared|mol2|1|dock6
    29    30     1
SMALL
NO_CHARGES


@<TRIPOS>ATOM
      1 C1         -28.5694   9.1037  11.4981 C.3            1 RES1               0.0000
      2 C2         -30.0883   9.3118  11.3295 C.ar           1 RES1               0.0000
      3 C3         -28.2207   9.6063  12.8959 C.2            1 RES1               0.0000
      4 C4         -28.3174   7.6142  11.2917 C.2            1 RES1               0.0000
      5 C5         -27.7145   9.8799  10.4695 C.3            1 RES1               0.0000
      6 C6         -30.6358   9.5491  10.0723 C.ar           1 RES1               0.0000
      7 C7         -30.9535   9.2667  12.4195 C.ar           1 RES1               0.0000
      8 N8         -27.9451   8.6739  13.8522 N.am           1 RES1               0.0000
      9 O9         -28.2260  10.8012  13.1651 O.2            1 RES1               0.0000
     10 N10        -27.8679   6.8848  12.3612 N.am           1 RES1               0.0000
     11 O11        -28.5199   7.0623  10.2171 O.2            1 RES1               0.0000
     12 C12        -26.2292   9.8969  10.7950 C.3            1 RES1               0.0000
     13 C13        -31.9991   9.7318   9.9100 C.ar           1 RES1               0.0000
     14 C14        -32.3165   9.4499  12.2551 C.ar           1 RES1               0.0000
     15 C15        -27.6997   7.3410  13.6402 C.2            1 RES1               0.0000
     16 C16        -32.8404   9.6819  11.0011 C.ar           1 RES1               0.0000
     17 O17        -27.3441   6.6110  14.5609 O.2            1 RES1               0.0000
     18 H18        -27.8540   9.4264   9.4804 H              1 RES1               0.0000
     19 H19        -28.0765  10.9142  10.4181 H              1 RES1               0.0000
     20 H20        -29.9891   9.5943   9.2023 H              1 RES1               0.0000
     21 H21        -30.5635   9.0866  13.4155 H              1 RES1               0.0000
     22 H22        -27.9193   8.9974  14.8139 H              1 RES1               0.0000
     23 H23        -27.6373   5.9116  12.1877 H              1 RES1               0.0000
     24 H24        -25.6757  10.4542  10.0422 H              1 RES1               0.0000
     25 H25        -26.0515  10.3642  11.7613 H              1 RES1               0.0000
     26 H26        -25.8303   8.8852  10.8292 H              1 RES1               0.0000
     27 H27        -32.4062   9.9155   8.9212 H              1 RES1               0.0000
     28 H28        -32.9748   9.4104  13.1167 H              1 RES1               0.0000
     29 H29        -33.9084   9.8247  10.8737 H              1 RES1               0.0000
@<TRIPOS>BOND
    1    1    2 1     
    2    1    3 1     
    3    1    4 1     
    4    1    5 1     
    5    2    6 ar    
    6    2    7 ar    
    7    3    8 1     
    8    3    9 2     
    9    4   10 1     
   10    4   11 2     
   11    5   12 1     
   12    5   18 1     
   13    5   19 1     
   14    6   13 ar    
   15    6   20 1     
   16    7   14 ar    
   17    7   21 1     
   18    8   15 1     
   19    8   22 1     
   20   10   15 1     
   21   10   23 1     
   22   12   24 1     
   23   12   25 1     
   24   12   26 1     
   25   13   16 ar    
   26   13   27 1     
   27   14   16 ar    
   28   14   28 1     
   29   15   17 2     
   30   16   29 1     
@<TRIPOS>SUBSTRUCTURE
      1 RES1           1
@<TRIPOS>SET
DONOR_HYDROGENS      STATIC     ATOMS    <user>   **** ""
2 22 23
ATOM$RED        STATIC     ATOMS    COLORGROUP SYSTEM
2 22 23
@<TRIPOS>COMMENT
> <Gold.Version>
2022.3.0

> <Gold.Id.Protein>
unknown|3ama_clean|pdb

> <Gold.Protein.RotatedTorsions>
[ 2011 2002 2001 1999 ] final -178.10 input   60.00 | X-H torsion
[ 2112 2107 2106 2103 ] final  -21.37 input   60.00 | X-H torsion
[ 5355 5346 5345 5343 ] final -133.59 input   60.01 | X-H torsion
[  804  797  795  792 ] final   31.33 input   59.99 | X-H torsion
[ 2696 2687 2686 2684 ] final -151.42 input   59.97 | X-H torsion
[ 5271 5265 5266 5267 ] final  112.17 input   60.00 | X-H torsion

> <Gold.Protein.ActiveResidues>
 ARG47   THR48   LEU49   GLY50   THR51   GLY52   ARG56   VAL57   MET58   LEU59  
 TYR69   ALA70   MET71   LYS72   GLN95   VAL104  LYS105  MET118  VAL119  LEU120 
 GLU121  TYR122  ALA123  PRO124  GLY125  GLY126  GLU127  MET128  PHE129  SER130 
 HIS131  TYR164  LYS168  PRO169  GLU170  ASN171  LEU172  LEU173  ILE174  ASP175 
 LYS181  VAL182  ALA183  ASP184  SER325  ASN326  PHE327  ASP328  ASP329  TYR330 

> <Gold.Protein.RotatedAtoms>
  -19.7679   13.1455    6.1940 H   0  0  0  0  0  0  0  0  0  0  0  0  # atno 804  bound_to 797 
  -35.9689   11.2936   10.9112 H   0  0  0  0  0  0  0  0  0  0  0  0  # atno 2011 bound_to 2002
  -24.9420    4.8203   11.7937 H   0  0  0  0  0  0  0  0  0  0  0  0  # atno 2112 bound_to 2107
  -25.3293    2.4051   -2.4777 H   0  0  0  0  0  0  0  0  0  0  0  0  # atno 2696 bound_to 2687
  -34.2171   13.9551   18.9730 H   0  0  0  0  0  0  0  0  0  0  0  0  # atno 5271 bound_to 5265
  -33.0859   15.0966   19.3787 H   0  0  0  0  0  0  0  0  0  0  0  0  # atno 5272 bound_to 5265
  -23.3815   12.1537    9.8303 H   0  0  0  0  0  0  0  0  0  0  0  0  # atno 5355 bound_to 5346
  -34.8204   12.4167   10.6533 LP  0  0  0  0  0  0  0  0  0  0  0  0  # atno 5697 bound_to 2002
  -34.4874   10.8353   10.4191 LP  0  0  0  0  0  0  0  0  0  0  0  0  # atno 5698 bound_to 2002
  -26.0345    5.8244   12.4615 LP  0  0  0  0  0  0  0  0  0  0  0  0  # atno 5727 bound_to 2107
  -26.3687    5.0701   11.0523 LP  0  0  0  0  0  0  0  0  0  0  0  0  # atno 5728 bound_to 2107
  -22.3959   11.8469   11.0880 LP  0  0  0  0  0  0  0  0  0  0  0  0  # atno 5742 bound_to 5346
  -21.7847   12.4331    9.6918 LP  0  0  0  0  0  0  0  0  0  0  0  0  # atno 5743 bound_to 5346
  -20.0924   13.9969    7.5416 LP  0  0  0  0  0  0  0  0  0  0  0  0  # atno 5778 bound_to 797 
  -18.7346   14.3011    6.6870 LP  0  0  0  0  0  0  0  0  0  0  0  0  # atno 5779 bound_to 797 
  -26.9547    2.4594   -2.5249 LP  0  0  0  0  0  0  0  0  0  0  0  0  # atno 5782 bound_to 2687
  -26.0741    3.6094   -3.2789 LP  0  0  0  0  0  0  0  0  0  0  0  0  # atno 5783 bound_to 2687

> <Gold.Score>
     Fitness  S(hb_ext) S(vdw_ext)  S(hb_int)    S(int)      intcor
     37.41       3.13      25.51       0.00      -0.79      -0.76

> <Gold.Goldscore.Fitness>
37.4103

> <Gold.Goldscore.Internal.Vdw>
-0.9744

> <Gold.Goldscore.Internal.Torsion>
-0.5731

> <Gold.Goldscore.External.Vdw>
25.5058

> <Gold.Goldscore.Internal.HBond>
0.0000

> <Gold.Goldscore.External.HBond>
3.1288

> <Gold.Goldscore.Internal.Correction>
-0.7585

> <Gold.Goldscore.Hbonds>
donor molecule, donor type, donor heavy atom, donor atom, acceptor molecule, acceptor atom, score
      P1  H  2050  2059       L1    11  0.52
      P1  H  5311  5319       L1     9  0.96
      L1  H    10    23       P1  2107  0.09

> <Gold.Goldscore.Internal.Vdw.Weighted>
-0.9744

> <Gold.Goldscore.Internal.Torsion.Weighted>
-0.5731

> <Gold.Goldscore.External.Vdw.Weighted>
35.0705

> <Gold.Goldscore.Internal.HBond.Weighted>
0.0000

> <Gold.Goldscore.External.HBond.Weighted>
3.1288

> <Gold.Goldscore.Internal.Correction.Weighted>
-0.7585

> <Gold.Rescore>
     Score     S(PLP)   S(hbond)     S(cho)   S(metal)  DE(clash)   DE(tors)     intcor
     37.82     -32.15       1.99       0.00       0.00       0.00       0.15       ----

> <Gold.PLP.Fitness>
37.8168

> <Gold.PLP.PLP>
-32.1500

> <Gold.PLP.part.hbond>
-2.7236

> <Gold.PLP.part.metal>
0.0000

> <Gold.PLP.part.buried>
2.1505

> <Gold.PLP.part.nonpolar>
-34.2714

> <Gold.PLP.part.repulsive>
1.7893

> <Gold.PLP.ligand.clash>
0.0000

> <Gold.PLP.ligand.torsion>
0.1535

> <Gold.PLP.Chemscore.Hbond>
1.9913

> <Gold.PLP.Chemscore.CHOScore>
0.0000

> <Gold.PLP.Chemscore.Metal>
0.0000

> <Gold.Chemscore.Hbonds>
donor molecule, donor type, donor heavy atom, donor atom, acceptor molecule, acceptor atom, score
      L1  H    10    23       P1  2107  0.22
      P1  H  2050  2059       L1    11  1.00
      P1  H  5311  5319       L1     9  0.98

> <Gold.PLP.Chemscore.Internal.Correction>
   9.000000E+99

