#       Name:                CT1002167954
#       Creating user name   hitesit
#       Creation time:       Sun Apr 16 02:21:19 2023


#       File generated by GOLD software.
#

@<TRIPOS>MOLECULE
CT1002167954|ligand_prepared|mol2|1|dock1
    29    30     1
SMALL
NO_CHARGES


@<TRIPOS>ATOM
      1 C1         -29.3414   9.4696  11.7003 C.3            1 RES1               0.0000
      2 C2         -30.3243   9.5807  10.5170 C.ar           1 RES1               0.0000
      3 C3         -28.1846   8.6003  11.2162 C.2            1 RES1               0.0000
      4 C4         -28.9403  10.8966  12.0573 C.2            1 RES1               0.0000
      5 C5         -29.9529   8.8156  12.9613 C.3            1 RES1               0.0000
      6 C6         -29.8529   9.6949   9.2126 C.ar           1 RES1               0.0000
      7 C7         -31.7027   9.5679  10.7135 C.ar           1 RES1               0.0000
      8 N8         -27.0000   9.2191  10.9443 N.am           1 RES1               0.0000
      9 O9         -28.3211   7.3962  11.0379 O.2            1 RES1               0.0000
     10 N10        -27.6343  11.2638  11.8645 N.am           1 RES1               0.0000
     11 O11        -29.7472  11.7113  12.4881 O.2            1 RES1               0.0000
     12 C12        -28.9288   8.4704  14.0309 C.3            1 RES1               0.0000
     13 C13        -30.7277   9.7898   8.1430 C.ar           1 RES1               0.0000
     14 C14        -32.5757   9.6632   9.6424 C.ar           1 RES1               0.0000
     15 C15        -26.6528  10.4989  11.2953 C.2            1 RES1               0.0000
     16 C16        -32.0895   9.7735   8.3570 C.ar           1 RES1               0.0000
     17 O17        -25.5147  10.9182  11.1053 O.2            1 RES1               0.0000
     18 H18        -30.6942   9.5011  13.3903 H              1 RES1               0.0000
     19 H19        -30.4765   7.8984  12.6647 H              1 RES1               0.0000
     20 H20        -28.7845   9.7119   9.0249 H              1 RES1               0.0000
     21 H21        -32.1078   9.4830  11.7161 H              1 RES1               0.0000
     22 H22        -26.3085   8.6805  10.4325 H              1 RES1               0.0000
     23 H23        -27.3691  12.1934  12.1741 H              1 RES1               0.0000
     24 H24        -29.4105   8.0145  14.8933 H              1 RES1               0.0000
     25 H25        -28.1900   7.7705  13.6461 H              1 RES1               0.0000
     26 H26        -28.4065   9.3636  14.3673 H              1 RES1               0.0000
     27 H27        -30.3400   9.8778   7.1335 H              1 RES1               0.0000
     28 H28        -33.6468   9.6506   9.8156 H              1 RES1               0.0000
     29 H29        -32.7746   9.8475   7.5189 H              1 RES1               0.0000
@<TRIPOS>BOND
    1    1    2 1     
    2    1    3 1     
    3    1    4 1     
    4    1    5 1     
    5    2    6 ar    
    6    2    7 ar    
    7    3    8 1     
    8    3    9 2     
    9    4   10 1     
   10    4   11 2     
   11    5   12 1     
   12    5   18 1     
   13    5   19 1     
   14    6   13 ar    
   15    6   20 1     
   16    7   14 ar    
   17    7   21 1     
   18    8   15 1     
   19    8   22 1     
   20   10   15 1     
   21   10   23 1     
   22   12   24 1     
   23   12   25 1     
   24   12   26 1     
   25   13   16 ar    
   26   13   27 1     
   27   14   16 ar    
   28   14   28 1     
   29   15   17 2     
   30   16   29 1     
@<TRIPOS>SUBSTRUCTURE
      1 RES1           1
@<TRIPOS>SET
DONOR_HYDROGENS      STATIC     ATOMS    <user>   **** ""
2 22 23
ATOM$RED        STATIC     ATOMS    COLORGROUP SYSTEM
2 22 23
@<TRIPOS>COMMENT
> <Gold.Version>
2022.3.0

> <Gold.Id.Protein>
unknown|3ama_clean|pdb

> <Gold.Protein.RotatedTorsions>
[ 2011 2002 2001 1999 ] final   16.40 input   60.00 | X-H torsion
[ 2112 2107 2106 2103 ] final -175.01 input   60.00 | X-H torsion
[ 5355 5346 5345 5343 ] final  133.20 input   60.01 | X-H torsion
[  804  797  795  792 ] final -170.33 input   59.99 | X-H torsion
[ 2696 2687 2686 2684 ] final  164.42 input   59.97 | X-H torsion
[ 5271 5265 5266 5267 ] final  -81.07 input   60.00 | X-H torsion

> <Gold.Protein.ActiveResidues>
 ARG47   THR48   LEU49   GLY50   THR51   GLY52   ARG56   VAL57   MET58   LEU59  
 TYR69   ALA70   MET71   LYS72   GLN95   VAL104  LYS105  MET118  VAL119  LEU120 
 GLU121  TYR122  ALA123  PRO124  GLY125  GLY126  GLU127  MET128  PHE129  SER130 
 HIS131  TYR164  LYS168  PRO169  GLU170  ASN171  LEU172  LEU173  ILE174  ASP175 
 LYS181  VAL182  ALA183  ASP184  SER325  ASN326  PHE327  ASP328  ASP329  TYR330 

> <Gold.Protein.RotatedAtoms>
  -19.0277   14.4994    7.1923 H   0  0  0  0  0  0  0  0  0  0  0  0  # atno 804  bound_to 797 
  -34.2964   11.9558   10.4514 H   0  0  0  0  0  0  0  0  0  0  0  0  # atno 2011 bound_to 2002
  -26.4467    5.8003   12.1077 H   0  0  0  0  0  0  0  0  0  0  0  0  # atno 2112 bound_to 2107
  -25.9037    2.0640   -2.2567 H   0  0  0  0  0  0  0  0  0  0  0  0  # atno 2696 bound_to 2687
  -32.4876   14.7394   19.0769 H   0  0  0  0  0  0  0  0  0  0  0  0  # atno 5271 bound_to 5265
  -33.3180   13.4176   18.5196 H   0  0  0  0  0  0  0  0  0  0  0  0  # atno 5272 bound_to 5265
  -22.8248   11.8098   11.0225 H   0  0  0  0  0  0  0  0  0  0  0  0  # atno 5355 bound_to 5346
  -35.1443   10.5752   10.5997 LP  0  0  0  0  0  0  0  0  0  0  0  0  # atno 5697 bound_to 2002
  -35.8487   12.0095   10.9360 LP  0  0  0  0  0  0  0  0  0  0  0  0  # atno 5698 bound_to 2002
  -25.9184    4.7768   10.9583 LP  0  0  0  0  0  0  0  0  0  0  0  0  # atno 5727 bound_to 2107
  -24.9695    5.1308   12.2393 LP  0  0  0  0  0  0  0  0  0  0  0  0  # atno 5728 bound_to 2107
  -21.6059   12.3227   10.0747 LP  0  0  0  0  0  0  0  0  0  0  0  0  # atno 5742 bound_to 5346
  -23.1357   12.3038    9.5038 LP  0  0  0  0  0  0  0  0  0  0  0  0  # atno 5743 bound_to 5346
  -19.2311   13.3929    6.0173 LP  0  0  0  0  0  0  0  0  0  0  0  0  # atno 5778 bound_to 797 
  -20.3418   13.5406    7.2052 LP  0  0  0  0  0  0  0  0  0  0  0  0  # atno 5779 bound_to 797 
  -27.0200    3.0476   -2.9150 LP  0  0  0  0  0  0  0  0  0  0  0  0  # atno 5782 bound_to 2687
  -25.4302    3.3649   -3.1114 LP  0  0  0  0  0  0  0  0  0  0  0  0  # atno 5783 bound_to 2687

> <Gold.Score>
     Fitness  S(hb_ext) S(vdw_ext)  S(hb_int)    S(int)      intcor
     37.07       0.66      26.65       0.00      -0.23      -0.79

> <Gold.Goldscore.Fitness>
37.0660

> <Gold.Goldscore.Internal.Vdw>
-0.4691

> <Gold.Goldscore.Internal.Torsion>
-0.5524

> <Gold.Goldscore.External.Vdw>
26.6468

> <Gold.Goldscore.Internal.HBond>
0.0000

> <Gold.Goldscore.External.HBond>
0.6573

> <Gold.Goldscore.Internal.Correction>
-0.7909

> <Gold.Goldscore.Hbonds>
donor molecule, donor type, donor heavy atom, donor atom, acceptor molecule, acceptor atom, score
      P1  H  2050  2059       L1     9  0.27
      P1  H  2107  2112       L1     9  0.06

> <Gold.Goldscore.Internal.Vdw.Weighted>
-0.4691

> <Gold.Goldscore.Internal.Torsion.Weighted>
-0.5524

> <Gold.Goldscore.External.Vdw.Weighted>
36.6393

> <Gold.Goldscore.Internal.HBond.Weighted>
0.0000

> <Gold.Goldscore.External.HBond.Weighted>
0.6573

> <Gold.Goldscore.Internal.Correction.Weighted>
-0.7909

> <Gold.Rescore>
     Score     S(PLP)   S(hbond)     S(cho)   S(metal)  DE(clash)   DE(tors)     intcor
     40.70     -39.90       0.79       0.00       0.00       0.00       0.78       ----

> <Gold.PLP.Fitness>
40.6965

> <Gold.PLP.PLP>
-39.9039

> <Gold.PLP.part.hbond>
-3.4500

> <Gold.PLP.part.metal>
0.0000

> <Gold.PLP.part.buried>
-0.5944

> <Gold.PLP.part.nonpolar>
-37.9208

> <Gold.PLP.part.repulsive>
0.9948

> <Gold.PLP.ligand.clash>
0.0000

> <Gold.PLP.ligand.torsion>
0.7821

> <Gold.PLP.Chemscore.Hbond>
0.7856

> <Gold.PLP.Chemscore.CHOScore>
0.0000

> <Gold.PLP.Chemscore.Metal>
0.0000

> <Gold.Chemscore.Hbonds>
donor molecule, donor type, donor heavy atom, donor atom, acceptor molecule, acceptor atom, score
      L1  H     8    22       P1  2058  0.83
      P1  H  2050  2059       L1     9  0.11

> <Gold.PLP.Chemscore.Internal.Correction>
   9.000000E+99

