#       Name:                CT1002167954
#       Creating user name   hitesit
#       Creation time:       Sun Apr 16 02:21:20 2023


#       File generated by GOLD software.
#

@<TRIPOS>MOLECULE
CT1002167954|ligand_prepared|mol2|1|dock2
    29    30     1
SMALL
NO_CHARGES


@<TRIPOS>ATOM
      1 C1         -29.6494   7.7969  13.6176 C.3            1 RES1               0.0000
      2 C2         -31.0114   8.4520  13.3100 C.ar           1 RES1               0.0000
      3 C3         -29.7802   6.3295  13.2203 C.2            1 RES1               0.0000
      4 C4         -28.6122   8.5699  12.8106 C.2            1 RES1               0.0000
      5 C5         -29.2445   7.8678  15.1085 C.3            1 RES1               0.0000
      6 C6         -31.9160   8.7199  14.3330 C.ar           1 RES1               0.0000
      7 C7         -31.3755   8.7958  12.0108 C.ar           1 RES1               0.0000
      8 N8         -29.1494   5.9248  12.0809 N.am           1 RES1               0.0000
      9 O9         -30.4591   5.5482  13.8752 O.2            1 RES1               0.0000
     10 N10        -27.9580   7.9083  11.8045 N.am           1 RES1               0.0000
     11 O11        -28.3675   9.7506  13.0259 O.2            1 RES1               0.0000
     12 C12        -27.7994   7.4740  15.3708 C.3            1 RES1               0.0000
     13 C13        -33.1392   9.3128  14.0673 C.ar           1 RES1               0.0000
     14 C14        -32.5994   9.3885  11.7474 C.ar           1 RES1               0.0000
     15 C15        -28.2017   6.6295  11.3831 C.2            1 RES1               0.0000
     16 C16        -33.4815   9.6479  12.7746 C.ar           1 RES1               0.0000
     17 O17        -27.6096   6.1219  10.4350 O.2            1 RES1               0.0000
     18 H18        -29.4024   8.8918  15.4689 H              1 RES1               0.0000
     19 H19        -29.9013   7.2045  15.6847 H              1 RES1               0.0000
     20 H20        -31.6651   8.4610  15.3562 H              1 RES1               0.0000
     21 H21        -30.6978   8.6001  11.1868 H              1 RES1               0.0000
     22 H22        -29.4061   5.0140  11.7137 H              1 RES1               0.0000
     23 H23        -27.2211   8.4160  11.3255 H              1 RES1               0.0000
     24 H24        -27.5678   7.5412  16.4317 H              1 RES1               0.0000
     25 H25        -27.6134   6.4519  15.0474 H              1 RES1               0.0000
     26 H26        -27.1174   8.1292  14.8328 H              1 RES1               0.0000
     27 H27        -33.8305   9.5137  14.8792 H              1 RES1               0.0000
     28 H28        -32.8649   9.6500  10.7283 H              1 RES1               0.0000
     29 H29        -34.4396  10.1127  12.5668 H              1 RES1               0.0000
@<TRIPOS>BOND
    1    1    2 1     
    2    1    3 1     
    3    1    4 1     
    4    1    5 1     
    5    2    6 ar    
    6    2    7 ar    
    7    3    8 1     
    8    3    9 2     
    9    4   10 1     
   10    4   11 2     
   11    5   12 1     
   12    5   18 1     
   13    5   19 1     
   14    6   13 ar    
   15    6   20 1     
   16    7   14 ar    
   17    7   21 1     
   18    8   15 1     
   19    8   22 1     
   20   10   15 1     
   21   10   23 1     
   22   12   24 1     
   23   12   25 1     
   24   12   26 1     
   25   13   16 ar    
   26   13   27 1     
   27   14   16 ar    
   28   14   28 1     
   29   15   17 2     
   30   16   29 1     
@<TRIPOS>SUBSTRUCTURE
      1 RES1           1
@<TRIPOS>SET
DONOR_HYDROGENS      STATIC     ATOMS    <user>   **** ""
2 22 23
ATOM$RED        STATIC     ATOMS    COLORGROUP SYSTEM
2 22 23
@<TRIPOS>COMMENT
> <Gold.Version>
2022.3.0

> <Gold.Id.Protein>
unknown|3ama_clean|pdb

> <Gold.Protein.RotatedTorsions>
[ 2011 2002 2001 1999 ] final    6.67 input   60.00 | X-H torsion
[ 2112 2107 2106 2103 ] final    4.14 input   60.00 | X-H torsion
[ 5355 5346 5345 5343 ] final  138.14 input   60.01 | X-H torsion
[  804  797  795  792 ] final   37.29 input   59.99 | X-H torsion
[ 2696 2687 2686 2684 ] final -172.47 input   59.97 | X-H torsion
[ 5271 5265 5266 5267 ] final  145.49 input   60.00 | X-H torsion

> <Gold.Protein.ActiveResidues>
 ARG47   THR48   LEU49   GLY50   THR51   GLY52   ARG56   VAL57   MET58   LEU59  
 TYR69   ALA70   MET71   LYS72   GLN95   VAL104  LYS105  MET118  VAL119  LEU120 
 GLU121  TYR122  ALA123  PRO124  GLY125  GLY126  GLU127  MET128  PHE129  SER130 
 HIS131  TYR164  LYS168  PRO169  GLU170  ASN171  LEU172  LEU173  ILE174  ASP175 
 LYS181  VAL182  ALA183  ASP184  SER325  ASN326  PHE327  ASP328  ASP329  TYR330 

> <Gold.Protein.RotatedAtoms>
  -19.6859   13.1672    6.1464 H   0  0  0  0  0  0  0  0  0  0  0  0  # atno 804  bound_to 797 
  -34.2397   11.8105   10.4219 H   0  0  0  0  0  0  0  0  0  0  0  0  # atno 2011 bound_to 2002
  -25.1062    4.6746   11.4435 H   0  0  0  0  0  0  0  0  0  0  0  0  # atno 2112 bound_to 2107
  -25.5632    2.1963   -2.3414 H   0  0  0  0  0  0  0  0  0  0  0  0  # atno 2696 bound_to 2687
  -34.2135   14.4390   19.2322 H   0  0  0  0  0  0  0  0  0  0  0  0  # atno 5271 bound_to 5265
  -32.6188   14.8879   19.1809 H   0  0  0  0  0  0  0  0  0  0  0  0  # atno 5272 bound_to 5265
  -22.8991   11.8102   10.9914 H   0  0  0  0  0  0  0  0  0  0  0  0  # atno 5355 bound_to 5346
  -35.2957   10.5936   10.6479 LP  0  0  0  0  0  0  0  0  0  0  0  0  # atno 5697 bound_to 2002
  -35.7544   12.1375   10.9176 LP  0  0  0  0  0  0  0  0  0  0  0  0  # atno 5698 bound_to 2002
  -25.6531    5.7049   12.5780 LP  0  0  0  0  0  0  0  0  0  0  0  0  # atno 5727 bound_to 2107
  -26.5847    5.3363   11.2884 LP  0  0  0  0  0  0  0  0  0  0  0  0  # atno 5728 bound_to 2107
  -21.5939   12.2973   10.1508 LP  0  0  0  0  0  0  0  0  0  0  0  0  # atno 5742 bound_to 5346
  -23.0728   12.3288    9.4590 LP  0  0  0  0  0  0  0  0  0  0  0  0  # atno 5743 bound_to 5346
  -20.1514   13.9262    7.5079 LP  0  0  0  0  0  0  0  0  0  0  0  0  # atno 5778 bound_to 797 
  -18.7583   14.3499    6.7687 LP  0  0  0  0  0  0  0  0  0  0  0  0  # atno 5779 bound_to 797 
  -27.0545    2.7339   -2.7075 LP  0  0  0  0  0  0  0  0  0  0  0  0  # atno 5782 bound_to 2687
  -25.7387    3.5454   -3.2336 LP  0  0  0  0  0  0  0  0  0  0  0  0  # atno 5783 bound_to 2687

> <Gold.Score>
     Fitness  S(hb_ext) S(vdw_ext)  S(hb_int)    S(int)      intcor
     37.53       1.99      26.27       0.00      -0.58      -0.78

> <Gold.Goldscore.Fitness>
37.5347

> <Gold.Goldscore.Internal.Vdw>
-0.7948

> <Gold.Goldscore.Internal.Torsion>
-0.5636

> <Gold.Goldscore.External.Vdw>
26.2733

> <Gold.Goldscore.Internal.HBond>
0.0000

> <Gold.Goldscore.External.HBond>
1.9853

> <Gold.Goldscore.Internal.Correction>
-0.7819

> <Gold.Goldscore.Hbonds>
donor molecule, donor type, donor heavy atom, donor atom, acceptor molecule, acceptor atom, score
      P1  H  2050  2059       L1    17  0.43
      P1  H  5311  5319       L1    11  0.56

> <Gold.Goldscore.Internal.Vdw.Weighted>
-0.7948

> <Gold.Goldscore.Internal.Torsion.Weighted>
-0.5636

> <Gold.Goldscore.External.Vdw.Weighted>
36.1258

> <Gold.Goldscore.Internal.HBond.Weighted>
0.0000

> <Gold.Goldscore.External.HBond.Weighted>
1.9853

> <Gold.Goldscore.Internal.Correction.Weighted>
-0.7819

> <Gold.Rescore>
     Score     S(PLP)   S(hbond)     S(cho)   S(metal)  DE(clash)   DE(tors)     intcor
     25.64     -21.27       2.00       0.00       0.00       0.00       0.82       ----

> <Gold.PLP.Fitness>
25.6381

> <Gold.PLP.PLP>
-21.2739

> <Gold.PLP.part.hbond>
-3.3037

> <Gold.PLP.part.metal>
0.0000

> <Gold.PLP.part.buried>
6.9730

> <Gold.PLP.part.nonpolar>
-31.6231

> <Gold.PLP.part.repulsive>
6.0438

> <Gold.PLP.ligand.clash>
0.0000

> <Gold.PLP.ligand.torsion>
0.8179

> <Gold.PLP.Chemscore.Hbond>
2.0000

> <Gold.PLP.Chemscore.CHOScore>
0.0000

> <Gold.PLP.Chemscore.Metal>
0.0000

> <Gold.Chemscore.Hbonds>
donor molecule, donor type, donor heavy atom, donor atom, acceptor molecule, acceptor atom, score
      P1  H  2050  2059       L1    17  1.00
      P1  H  5311  5319       L1    11  0.54

> <Gold.PLP.Chemscore.Internal.Correction>
   9.000000E+99

