#       Name:                CT1002167954
#       Creating user name   hitesit
#       Creation time:       Sun Apr 16 02:21:22 2023


#       File generated by GOLD software.
#

@<TRIPOS>MOLECULE
CT1002167954|ligand_prepared|mol2|1|dock4
    29    30     1
SMALL
NO_CHARGES


@<TRIPOS>ATOM
      1 C1         -29.6090   7.9234  13.7457 C.3            1 RES1               0.0000
      2 C2         -31.0219   8.5146  13.5642 C.ar           1 RES1               0.0000
      3 C3         -29.7019   6.4572  13.3336 C.2            1 RES1               0.0000
      4 C4         -28.6815   8.7583  12.8697 C.2            1 RES1               0.0000
      5 C5         -29.0845   7.9930  15.1988 C.3            1 RES1               0.0000
      6 C6         -31.6170   8.5551  12.3068 C.ar           1 RES1               0.0000
      7 C7         -31.7424   9.0199  14.6431 C.ar           1 RES1               0.0000
      8 N8         -29.1500   6.1005  12.1386 N.am           1 RES1               0.0000
      9 O9         -30.2852   5.6340  14.0282 O.2            1 RES1               0.0000
     10 N10        -28.0829   8.1443  11.8009 N.am           1 RES1               0.0000
     11 O11        -28.4767   9.9464  13.0857 O.2            1 RES1               0.0000
     12 C12        -27.6854   7.4237  15.3736 C.3            1 RES1               0.0000
     13 C13        -32.8875   9.0790  12.1347 C.ar           1 RES1               0.0000
     14 C14        -33.0128   9.5437  14.4687 C.ar           1 RES1               0.0000
     15 C15        -28.2991   6.8612  11.3776 C.2            1 RES1               0.0000
     16 C16        -33.5864   9.5732  13.2154 C.ar           1 RES1               0.0000
     17 O17        -27.7648   6.3972  10.3745 O.2            1 RES1               0.0000
     18 H18        -29.0826   9.0407  15.5238 H              1 RES1               0.0000
     19 H19        -29.7740   7.4413  15.8499 H              1 RES1               0.0000
     20 H20        -31.0813   8.1730  11.4442 H              1 RES1               0.0000
     21 H21        -31.3107   9.0080  15.6381 H              1 RES1               0.0000
     22 H22        -29.3924   5.1835  11.7773 H              1 RES1               0.0000
     23 H23        -27.4139   8.6947  11.2718 H              1 RES1               0.0000
     24 H24        -27.3660   7.4971  16.4111 H              1 RES1               0.0000
     25 H25        -27.6565   6.3755  15.0835 H              1 RES1               0.0000
     26 H26        -26.9691   7.9653  14.7593 H              1 RES1               0.0000
     27 H27        -33.3339   9.1012  11.1460 H              1 RES1               0.0000
     28 H28        -33.5589   9.9321  15.3220 H              1 RES1               0.0000
     29 H29        -34.5818   9.9832  13.0803 H              1 RES1               0.0000
@<TRIPOS>BOND
    1    1    2 1     
    2    1    3 1     
    3    1    4 1     
    4    1    5 1     
    5    2    6 ar    
    6    2    7 ar    
    7    3    8 1     
    8    3    9 2     
    9    4   10 1     
   10    4   11 2     
   11    5   12 1     
   12    5   18 1     
   13    5   19 1     
   14    6   13 ar    
   15    6   20 1     
   16    7   14 ar    
   17    7   21 1     
   18    8   15 1     
   19    8   22 1     
   20   10   15 1     
   21   10   23 1     
   22   12   24 1     
   23   12   25 1     
   24   12   26 1     
   25   13   16 ar    
   26   13   27 1     
   27   14   16 ar    
   28   14   28 1     
   29   15   17 2     
   30   16   29 1     
@<TRIPOS>SUBSTRUCTURE
      1 RES1           1
@<TRIPOS>SET
DONOR_HYDROGENS      STATIC     ATOMS    <user>   **** ""
2 22 23
ATOM$RED        STATIC     ATOMS    COLORGROUP SYSTEM
2 22 23
@<TRIPOS>COMMENT
> <Gold.Version>
2022.3.0

> <Gold.Id.Protein>
unknown|3ama_clean|pdb

> <Gold.Protein.RotatedTorsions>
[ 2011 2002 2001 1999 ] final  -29.34 input   60.00 | X-H torsion
[ 2112 2107 2106 2103 ] final   55.51 input   60.00 | X-H torsion
[ 5355 5346 5345 5343 ] final -127.25 input   60.01 | X-H torsion
[  804  797  795  792 ] final  175.48 input   59.99 | X-H torsion
[ 2696 2687 2686 2684 ] final  159.14 input   59.97 | X-H torsion
[ 5271 5265 5266 5267 ] final  176.70 input   60.00 | X-H torsion

> <Gold.Protein.ActiveResidues>
 ARG47   THR48   LEU49   GLY50   THR51   GLY52   ARG56   VAL57   MET58   LEU59  
 TYR69   ALA70   MET71   LYS72   GLN95   VAL104  LYS105  MET118  VAL119  LEU120 
 GLU121  TYR122  ALA123  PRO124  GLY125  GLY126  GLU127  MET128  PHE129  SER130 
 HIS131  TYR164  LYS168  PRO169  GLU170  ASN171  LEU172  LEU173  ILE174  ASP175 
 LYS181  VAL182  ALA183  ASP184  SER325  ASN326  PHE327  ASP328  ASP329  TYR330 

> <Gold.Protein.RotatedAtoms>
  -18.8871   14.4577    7.0136 H   0  0  0  0  0  0  0  0  0  0  0  0  # atno 804  bound_to 797 
  -34.2486   11.2338   10.3766 H   0  0  0  0  0  0  0  0  0  0  0  0  # atno 2011 bound_to 2002
  -25.7767    4.7204   10.9888 H   0  0  0  0  0  0  0  0  0  0  0  0  # atno 2112 bound_to 2107
  -25.9884    2.0505   -2.2485 H   0  0  0  0  0  0  0  0  0  0  0  0  # atno 2696 bound_to 2687
  -33.9393   14.8420   19.3983 H   0  0  0  0  0  0  0  0  0  0  0  0  # atno 5271 bound_to 5265
  -32.3855   14.5031   18.9315 H   0  0  0  0  0  0  0  0  0  0  0  0  # atno 5272 bound_to 5265
  -23.3376   12.1907    9.7442 H   0  0  0  0  0  0  0  0  0  0  0  0  # atno 5355 bound_to 5346
  -35.7738   10.8799   10.8189 LP  0  0  0  0  0  0  0  0  0  0  0  0  # atno 5697 bound_to 2002
  -35.2675   12.4322   10.7923 LP  0  0  0  0  0  0  0  0  0  0  0  0  # atno 5698 bound_to 2002
  -25.0311    5.2302   12.3422 LP  0  0  0  0  0  0  0  0  0  0  0  0  # atno 5727 bound_to 2107
  -26.5315    5.7649   11.9822 LP  0  0  0  0  0  0  0  0  0  0  0  0  # atno 5728 bound_to 2107
  -22.4989   11.8308   11.0912 LP  0  0  0  0  0  0  0  0  0  0  0  0  # atno 5742 bound_to 5346
  -21.7259   12.4119    9.7753 LP  0  0  0  0  0  0  0  0  0  0  0  0  # atno 5743 bound_to 5346
  -19.4270   13.2695    6.0426 LP  0  0  0  0  0  0  0  0  0  0  0  0  # atno 5778 bound_to 797 
  -20.2876   13.7060    7.3600 LP  0  0  0  0  0  0  0  0  0  0  0  0  # atno 5779 bound_to 797 
  -26.9911    3.1160   -2.9600 LP  0  0  0  0  0  0  0  0  0  0  0  0  # atno 5782 bound_to 2687
  -25.3737    3.3102   -3.0746 LP  0  0  0  0  0  0  0  0  0  0  0  0  # atno 5783 bound_to 2687

> <Gold.Score>
     Fitness  S(hb_ext) S(vdw_ext)  S(hb_int)    S(int)      intcor
     38.42       2.53      26.13       0.00      -0.03      -0.76

> <Gold.Goldscore.Fitness>
38.4241

> <Gold.Goldscore.Internal.Vdw>
-0.4200

> <Gold.Goldscore.Internal.Torsion>
-0.3676

> <Gold.Goldscore.External.Vdw>
26.1256

> <Gold.Goldscore.Internal.HBond>
0.0000

> <Gold.Goldscore.External.HBond>
2.5305

> <Gold.Goldscore.Internal.Correction>
-0.7585

> <Gold.Goldscore.Hbonds>
donor molecule, donor type, donor heavy atom, donor atom, acceptor molecule, acceptor atom, score
      P1  H  2050  2059       L1    17  0.63
      P1  H  5311  5319       L1    11  0.64

> <Gold.Goldscore.Internal.Vdw.Weighted>
-0.4200

> <Gold.Goldscore.Internal.Torsion.Weighted>
-0.3676

> <Gold.Goldscore.External.Vdw.Weighted>
35.9227

> <Gold.Goldscore.Internal.HBond.Weighted>
0.0000

> <Gold.Goldscore.External.HBond.Weighted>
2.5305

> <Gold.Goldscore.Internal.Correction.Weighted>
-0.7585

> <Gold.Rescore>
     Score     S(PLP)   S(hbond)     S(cho)   S(metal)  DE(clash)   DE(tors)     intcor
     25.91     -20.06       2.00       0.00       0.00       0.00       0.07       ----

> <Gold.PLP.Fitness>
25.9149

> <Gold.PLP.PLP>
-20.0580

> <Gold.PLP.part.hbond>
-3.0554

> <Gold.PLP.part.metal>
0.0000

> <Gold.PLP.part.buried>
8.1238

> <Gold.PLP.part.nonpolar>
-30.2299

> <Gold.PLP.part.repulsive>
5.0400

> <Gold.PLP.ligand.clash>
0.0000

> <Gold.PLP.ligand.torsion>
0.0715

> <Gold.PLP.Chemscore.Hbond>
2.0000

> <Gold.PLP.Chemscore.CHOScore>
0.0000

> <Gold.PLP.Chemscore.Metal>
0.0000

> <Gold.Chemscore.Hbonds>
donor molecule, donor type, donor heavy atom, donor atom, acceptor molecule, acceptor atom, score
      P1  H  2050  2059       L1    17  1.00
      P1  H  5311  5319       L1    11  0.88

> <Gold.PLP.Chemscore.Internal.Correction>
   9.000000E+99

