#       Name:                CT1002167954
#       Creating user name   hitesit
#       Creation time:       Sun Apr 16 02:21:27 2023


#       File generated by GOLD software.
#

@<TRIPOS>MOLECULE
CT1002167954|ligand_prepared|mol2|1|dock8
    29    30     1
SMALL
NO_CHARGES


@<TRIPOS>ATOM
      1 C1         -29.6738   9.0869  11.5570 C.3            1 RES1               0.0000
      2 C2         -30.3806   9.3816  10.2183 C.ar           1 RES1               0.0000
      3 C3         -30.7063   9.3401  12.6515 C.2            1 RES1               0.0000
      4 C4         -29.1936   7.6421  11.4770 C.2            1 RES1               0.0000
      5 C5         -28.4437   9.9851  11.8250 C.3            1 RES1               0.0000
      6 C6         -29.6463   9.5161   9.0438 C.ar           1 RES1               0.0000
      7 C7         -31.7641   9.5186  10.1416 C.ar           1 RES1               0.0000
      8 N8         -31.2455   8.2536  13.2751 N.am           1 RES1               0.0000
      9 O9         -31.0711  10.4743  12.9359 O.2            1 RES1               0.0000
     10 N10        -29.7561   6.7302  12.3313 N.am           1 RES1               0.0000
     11 O11        -28.3451   7.2817  10.6704 O.2            1 RES1               0.0000
     12 C12        -28.6634  11.4474  11.4710 C.3            1 RES1               0.0000
     13 C13        -30.2725   9.7752   7.8359 C.ar           1 RES1               0.0000
     14 C14        -32.3883   9.7780   8.9326 C.ar           1 RES1               0.0000
     15 C15        -30.7822   6.9644  13.2057 C.2            1 RES1               0.0000
     16 C16        -31.6437   9.9059   7.7794 C.ar           1 RES1               0.0000
     17 O17        -31.2717   6.0800  13.9023 O.2            1 RES1               0.0000
     18 H18        -28.1799   9.9147  12.8875 H              1 RES1               0.0000
     19 H19        -27.5952   9.6046  11.2430 H              1 RES1               0.0000
     20 H20        -28.5661   9.4189   9.0691 H              1 RES1               0.0000
     21 H21        -32.3699   9.4230  11.0363 H              1 RES1               0.0000
     22 H22        -32.0694   8.4146  13.8456 H              1 RES1               0.0000
     23 H23        -29.3744   5.7898  12.3140 H              1 RES1               0.0000
     24 H24        -27.7701  12.0329  11.6782 H              1 RES1               0.0000
     25 H25        -28.9031  11.5570  10.4154 H              1 RES1               0.0000
     26 H26        -29.4844  11.8653  12.0501 H              1 RES1               0.0000
     27 H27        -29.6819   9.8764   6.9313 H              1 RES1               0.0000
     28 H28        -33.4677   9.8807   8.8929 H              1 RES1               0.0000
     29 H29        -32.1341  10.1086   6.8329 H              1 RES1               0.0000
@<TRIPOS>BOND
    1    1    2 1     
    2    1    3 1     
    3    1    4 1     
    4    1    5 1     
    5    2    6 ar    
    6    2    7 ar    
    7    3    8 1     
    8    3    9 2     
    9    4   10 1     
   10    4   11 2     
   11    5   12 1     
   12    5   18 1     
   13    5   19 1     
   14    6   13 ar    
   15    6   20 1     
   16    7   14 ar    
   17    7   21 1     
   18    8   15 1     
   19    8   22 1     
   20   10   15 1     
   21   10   23 1     
   22   12   24 1     
   23   12   25 1     
   24   12   26 1     
   25   13   16 ar    
   26   13   27 1     
   27   14   16 ar    
   28   14   28 1     
   29   15   17 2     
   30   16   29 1     
@<TRIPOS>SUBSTRUCTURE
      1 RES1           1
@<TRIPOS>SET
DONOR_HYDROGENS      STATIC     ATOMS    <user>   **** ""
2 22 23
ATOM$RED        STATIC     ATOMS    COLORGROUP SYSTEM
2 22 23
@<TRIPOS>COMMENT
> <Gold.Version>
2022.3.0

> <Gold.Id.Protein>
unknown|3ama_clean|pdb

> <Gold.Protein.RotatedTorsions>
[ 2011 2002 2001 1999 ] final    9.48 input   60.00 | X-H torsion
[ 2112 2107 2106 2103 ] final  137.96 input   60.00 | X-H torsion
[ 5355 5346 5345 5343 ] final  152.28 input   60.01 | X-H torsion
[  804  797  795  792 ] final -131.30 input   59.99 | X-H torsion
[ 2696 2687 2686 2684 ] final  -20.16 input   59.97 | X-H torsion
[ 5271 5265 5266 5267 ] final  160.29 input   60.00 | X-H torsion

> <Gold.Protein.ActiveResidues>
 ARG47   THR48   LEU49   GLY50   THR51   GLY52   ARG56   VAL57   MET58   LEU59  
 TYR69   ALA70   MET71   LYS72   GLN95   VAL104  LYS105  MET118  VAL119  LEU120 
 GLU121  TYR122  ALA123  PRO124  GLY125  GLY126  GLU127  MET128  PHE129  SER130 
 HIS131  TYR164  LYS168  PRO169  GLU170  ASN171  LEU172  LEU173  ILE174  ASP175 
 LYS181  VAL182  ALA183  ASP184  SER325  ASN326  PHE327  ASP328  ASP329  TYR330 

> <Gold.Protein.RotatedAtoms>
  -19.5412   14.3997    7.5344 H   0  0  0  0  0  0  0  0  0  0  0  0  # atno 804  bound_to 797 
  -34.2536   11.8536   10.4297 H   0  0  0  0  0  0  0  0  0  0  0  0  # atno 2011 bound_to 2002
  -26.6326    5.4721   11.4629 H   0  0  0  0  0  0  0  0  0  0  0  0  # atno 2112 bound_to 2107
  -26.2578    3.5936   -3.2729 H   0  0  0  0  0  0  0  0  0  0  0  0  # atno 2696 bound_to 2687
  -34.1128   14.6444   19.3240 H   0  0  0  0  0  0  0  0  0  0  0  0  # atno 5271 bound_to 5265
  -32.4774   14.7222   19.0659 H   0  0  0  0  0  0  0  0  0  0  0  0  # atno 5272 bound_to 5265
  -23.0948   11.8247   10.8706 H   0  0  0  0  0  0  0  0  0  0  0  0  # atno 5355 bound_to 5346
  -35.2524   10.5855   10.6338 LP  0  0  0  0  0  0  0  0  0  0  0  0  # atno 5697 bound_to 2002
  -35.7837   12.1022   10.9237 LP  0  0  0  0  0  0  0  0  0  0  0  0  # atno 5698 bound_to 2002
  -25.2485    4.6382   11.2715 LP  0  0  0  0  0  0  0  0  0  0  0  0  # atno 5727 bound_to 2107
  -25.4521    5.5999   12.5754 LP  0  0  0  0  0  0  0  0  0  0  0  0  # atno 5728 bound_to 2107
  -21.5979   12.2189   10.3693 LP  0  0  0  0  0  0  0  0  0  0  0  0  # atno 5742 bound_to 5346
  -22.8716   12.3925    9.3623 LP  0  0  0  0  0  0  0  0  0  0  0  0  # atno 5743 bound_to 5346
  -18.8186   13.8363    6.1903 LP  0  0  0  0  0  0  0  0  0  0  0  0  # atno 5778 bound_to 797 
  -20.2369   13.1976    6.6875 LP  0  0  0  0  0  0  0  0  0  0  0  0  # atno 5779 bound_to 797 
  -25.2395    2.5411   -2.5641 LP  0  0  0  0  0  0  0  0  0  0  0  0  # atno 5782 bound_to 2687
  -26.8539    2.3304   -2.4386 LP  0  0  0  0  0  0  0  0  0  0  0  0  # atno 5783 bound_to 2687

> <Gold.Score>
     Fitness  S(hb_ext) S(vdw_ext)  S(hb_int)    S(int)      intcor
     35.26       0.54      27.45       0.00      -3.03      -0.76

> <Gold.Goldscore.Fitness>
35.2584

> <Gold.Goldscore.Internal.Vdw>
-2.9629

> <Gold.Goldscore.Internal.Torsion>
-0.8247

> <Gold.Goldscore.External.Vdw>
27.4532

> <Gold.Goldscore.Internal.HBond>
0.0000

> <Gold.Goldscore.External.HBond>
0.5393

> <Gold.Goldscore.Internal.Correction>
-0.7585

> <Gold.Goldscore.Hbonds>
donor molecule, donor type, donor heavy atom, donor atom, acceptor molecule, acceptor atom, score
      P1  H  2050  2059       L1    11  0.09
      P1  H  2107  2112       L1    11  0.18

> <Gold.Goldscore.Internal.Vdw.Weighted>
-2.9629

> <Gold.Goldscore.Internal.Torsion.Weighted>
-0.8247

> <Gold.Goldscore.External.Vdw.Weighted>
37.7481

> <Gold.Goldscore.Internal.HBond.Weighted>
0.0000

> <Gold.Goldscore.External.HBond.Weighted>
0.5393

> <Gold.Goldscore.Internal.Correction.Weighted>
-0.7585

> <Gold.Rescore>
     Score     S(PLP)   S(hbond)     S(cho)   S(metal)  DE(clash)   DE(tors)     intcor
     40.62     -36.53       2.00       0.00       0.00       1.18       0.36       ----

> <Gold.PLP.Fitness>
40.6211

> <Gold.PLP.PLP>
-36.5259

> <Gold.PLP.part.hbond>
-2.0000

> <Gold.PLP.part.metal>
0.0000

> <Gold.PLP.part.buried>
-4.6170

> <Gold.PLP.part.nonpolar>
-31.4252

> <Gold.PLP.part.repulsive>
0.9293

> <Gold.PLP.ligand.clash>
1.1794

> <Gold.PLP.ligand.torsion>
0.3627

> <Gold.PLP.Chemscore.Hbond>
2.0000

> <Gold.PLP.Chemscore.CHOScore>
0.0000

> <Gold.PLP.Chemscore.Metal>
0.0000

> <Gold.Chemscore.Hbonds>
donor molecule, donor type, donor heavy atom, donor atom, acceptor molecule, acceptor atom, score
      P1  H  2050  2059       L1    11  0.89

> <Gold.PLP.Chemscore.Internal.Correction>
   9.000000E+99

