#       Name:                CT1002167954
#       Creating user name   hitesit
#       Creation time:       Sun Apr 16 02:22:02 2023


#       File generated by GOLD software.
#

@<TRIPOS>MOLECULE
CT1002167954|ligand_prepared|mol2|1|dock5
    29    30     1
SMALL
NO_CHARGES


@<TRIPOS>ATOM
      1 C1         -26.5621   9.4615   4.4599 C.3            1 RES1               0.0000
      2 C2         -26.8041   9.7552   2.9652 C.ar           1 RES1               0.0000
      3 C3         -26.4417   7.9455   4.5847 C.2            1 RES1               0.0000
      4 C4         -25.2965  10.2199   4.8442 C.2            1 RES1               0.0000
      5 C5         -27.7057   9.9411   5.3839 C.3            1 RES1               0.0000
      6 C6         -27.9023  10.5076   2.5596 C.ar           1 RES1               0.0000
      7 C7         -25.9379   9.2835   1.9824 C.ar           1 RES1               0.0000
      8 N8         -25.1991   7.4260   4.7992 N.am           1 RES1               0.0000
      9 O9         -27.4162   7.2145   4.4574 O.2            1 RES1               0.0000
     10 N10        -24.1936   9.4892   5.2011 N.am           1 RES1               0.0000
     11 O11        -25.2394  11.4433   4.8252 O.2            1 RES1               0.0000
     12 C12        -27.5044   9.5791   6.8470 C.3            1 RES1               0.0000
     13 C13        -28.1250  10.7811   1.2202 C.ar           1 RES1               0.0000
     14 C14        -26.1626   9.5581   0.6435 C.ar           1 RES1               0.0000
     15 C15        -24.0782   8.1263   5.1664 C.2            1 RES1               0.0000
     16 C16        -27.2552  10.3070   0.2614 C.ar           1 RES1               0.0000
     17 O17        -23.0355   7.5437   5.4500 O.2            1 RES1               0.0000
     18 H18        -27.7947  11.0312   5.2989 H              1 RES1               0.0000
     19 H19        -28.6483   9.4997   5.0375 H              1 RES1               0.0000
     20 H20        -28.5990  10.8870   3.2997 H              1 RES1               0.0000
     21 H21        -25.0724   8.6914   2.2597 H              1 RES1               0.0000
     22 H22        -25.0936   6.4241   4.6749 H              1 RES1               0.0000
     23 H23        -23.3835  10.0096   5.5226 H              1 RES1               0.0000
     24 H24        -28.3348   9.9388   7.4511 H              1 RES1               0.0000
     25 H25        -27.4369   8.5004   6.9717 H              1 RES1               0.0000
     26 H26        -26.5884  10.0228   7.2316 H              1 RES1               0.0000
     27 H27        -28.9871  11.3699   0.9246 H              1 RES1               0.0000
     28 H28        -25.4758   9.1824  -0.1077 H              1 RES1               0.0000
     29 H29        -27.4297  10.5218  -0.7877 H              1 RES1               0.0000
@<TRIPOS>BOND
    1    1    2 1     
    2    1    3 1     
    3    1    4 1     
    4    1    5 1     
    5    2    6 ar    
    6    2    7 ar    
    7    3    8 1     
    8    3    9 2     
    9    4   10 1     
   10    4   11 2     
   11    5   12 1     
   12    5   18 1     
   13    5   19 1     
   14    6   13 ar    
   15    6   20 1     
   16    7   14 ar    
   17    7   21 1     
   18    8   15 1     
   19    8   22 1     
   20   10   15 1     
   21   10   23 1     
   22   12   24 1     
   23   12   25 1     
   24   12   26 1     
   25   13   16 ar    
   26   13   27 1     
   27   14   16 ar    
   28   14   28 1     
   29   15   17 2     
   30   16   29 1     
@<TRIPOS>SUBSTRUCTURE
      1 RES1           1
@<TRIPOS>SET
DONOR_HYDROGENS      STATIC     ATOMS    <user>   **** ""
2 22 23
ATOM$RED        STATIC     ATOMS    COLORGROUP SYSTEM
2 22 23
@<TRIPOS>COMMENT
> <Gold.Version>
2022.3.0

> <Gold.Id.Protein>
unknown|3ama_clean|pdb

> <Gold.Protein.RotatedTorsions>
[ 3844 3837 3836 3834 ] final  -67.64 input   59.99 | X-H torsion
[ 3766 3757 3756 3754 ] final  -62.76 input   60.00 | X-H torsion
[ 4043 4034 4033 4031 ] final -108.46 input   60.00 | X-H torsion
[ 3307 3300 3298 3295 ] final -112.90 input   60.01 | X-H torsion
[ 2771 2760 2759 2758 ] final  -68.18 input   59.98 | X-H torsion
[ 2112 2107 2106 2103 ] final   37.44 input   60.00 | X-H torsion
[ 5355 5346 5345 5343 ] final  168.19 input   60.01 | X-H torsion
[  804  797  795  792 ] final  -92.01 input   59.99 | X-H torsion
[ 3357 3348 3347 3345 ] final  -72.69 input   59.98 | X-H torsion
[  822  817  816  813 ] final   79.23 input   60.00 | X-H torsion
[ 1427 1420 1418 1415 ] final  147.37 input   60.03 | X-H torsion

> <Gold.Protein.ActiveResidues>
 LEU49   GLY50   THR51   GLY52   SER53   PHE54   LYS72   LEU74   VAL79   LYS81  
 LEU82   LYS83   GLN84   HIS87   THR88   GLY126  GLU127  MET128  PHE129  SER130 
 HIS131  LEU132  ARG133  ARG134  ILE135  GLY136  ARG137  ARG165  ASP166  LEU167 
 LYS168  PRO169  GLU170  ASN171  ASP184  GLY186  PHE187  TRP196  TPO197  LEU198 
 CYS199  GLY200  THR201  PRO202  GLU203  TYR204  LEU205  ILE209  ILE210  VAL226 
 LEU227  TYR229  GLU230  ALA233  GLY234  TYR235  PRO236  PRO237  PHE238  PHE239 
 ALA240  ASP241  GLN242  PRO243  ILE244  GLN245  ILE246  TYR247  LYS249  ARG256 
 PHE257  PRO258  SER259  HIS260  ASP328  TYR330 

> <Gold.Protein.RotatedAtoms>
  -20.0539   14.0356    7.5499 H   0  0  0  0  0  0  0  0  0  0  0  0  # atno 804  bound_to 797 
  -17.6464   13.2604   -2.8171 H   0  0  0  0  0  0  0  0  0  0  0  0  # atno 822  bound_to 817 
  -20.5441   14.8570   -9.2535 H   0  0  0  0  0  0  0  0  0  0  0  0  # atno 1427 bound_to 1420
  -25.5101    4.6508   11.0913 H   0  0  0  0  0  0  0  0  0  0  0  0  # atno 2112 bound_to 2107
  -18.7908    4.1029    1.8896 H   0  0  0  0  0  0  0  0  0  0  0  0  # atno 2771 bound_to 2760
  -18.4498    3.4076    0.4239 H   0  0  0  0  0  0  0  0  0  0  0  0  # atno 2772 bound_to 2760
  -19.2211    4.8729    0.4869 H   0  0  0  0  0  0  0  0  0  0  0  0  # atno 2773 bound_to 2760
  -17.4950    2.9479    0.1540 H   0  0  0  0  0  0  0  0  0  0  0  0  # atno 3307 bound_to 3300
  -20.3464   -5.3110    4.3051 H   0  0  0  0  0  0  0  0  0  0  0  0  # atno 3357 bound_to 3348
  -15.1859  -13.2761    7.8201 H   0  0  0  0  0  0  0  0  0  0  0  0  # atno 3766 bound_to 3757
  -16.6423  -14.1812   11.7402 H   0  0  0  0  0  0  0  0  0  0  0  0  # atno 3844 bound_to 3837
   -9.1214    0.6462   -3.3157 H   0  0  0  0  0  0  0  0  0  0  0  0  # atno 4043 bound_to 4034
  -23.2730   11.8643   10.6868 H   0  0  0  0  0  0  0  0  0  0  0  0  # atno 5355 bound_to 5346
  -16.2185  -13.8379   13.2734 LP  0  0  0  0  0  0  0  0  0  0  0  0  # atno 5685 bound_to 3837
  -15.0712  -13.9975   12.1224 LP  0  0  0  0  0  0  0  0  0  0  0  0  # atno 5686 bound_to 3837
  -15.6827  -14.8058    7.5734 LP  0  0  0  0  0  0  0  0  0  0  0  0  # atno 5693 bound_to 3757
  -16.2690  -13.9469    8.8324 LP  0  0  0  0  0  0  0  0  0  0  0  0  # atno 5694 bound_to 3757
   -8.5664    0.8298   -1.7974 LP  0  0  0  0  0  0  0  0  0  0  0  0  # atno 5743 bound_to 4034
  -10.0294    0.1532   -2.0589 LP  0  0  0  0  0  0  0  0  0  0  0  0  # atno 5744 bound_to 4034
  -18.5692    2.0458   -0.6714 LP  0  0  0  0  0  0  0  0  0  0  0  0  # atno 5749 bound_to 3300
  -17.2949    2.7135   -1.4441 LP  0  0  0  0  0  0  0  0  0  0  0  0  # atno 5750 bound_to 3300
  -25.2034    5.4179   12.4931 LP  0  0  0  0  0  0  0  0  0  0  0  0  # atno 5763 bound_to 2107
  -26.6277    5.6474   11.7281 LP  0  0  0  0  0  0  0  0  0  0  0  0  # atno 5764 bound_to 2107
  -21.6693   12.1255   10.6023 LP  0  0  0  0  0  0  0  0  0  0  0  0  # atno 5765 bound_to 5346
  -22.6207   12.4461    9.3144 LP  0  0  0  0  0  0  0  0  0  0  0  0  # atno 5766 bound_to 5346
  -18.7250   14.2714    6.6418 LP  0  0  0  0  0  0  0  0  0  0  0  0  # atno 5773 bound_to 797 
  -19.8137   13.1295    6.2204 LP  0  0  0  0  0  0  0  0  0  0  0  0  # atno 5774 bound_to 797 
  -21.7691   -4.9871    3.5845 LP  0  0  0  0  0  0  0  0  0  0  0  0  # atno 5791 bound_to 3348
  -20.9660   -3.8081    4.3793 LP  0  0  0  0  0  0  0  0  0  0  0  0  # atno 5792 bound_to 3348
  -18.1842   12.3174   -1.6052 LP  0  0  0  0  0  0  0  0  0  0  0  0  # atno 5799 bound_to 817 
  -16.9406   11.8209   -2.5399 LP  0  0  0  0  0  0  0  0  0  0  0  0  # atno 5800 bound_to 817 
  -20.8088   13.2541   -9.3470 LP  0  0  0  0  0  0  0  0  0  0  0  0  # atno 5832 bound_to 1420
  -21.6576   14.1643   -8.2899 LP  0  0  0  0  0  0  0  0  0  0  0  0  # atno 5833 bound_to 1420

> <Gold.Score>
     Fitness  S(hb_ext) S(vdw_ext)  S(hb_int)    S(int)      intcor
     28.41       1.95      19.82       0.00      -0.79      -0.76

> <Gold.Goldscore.Fitness>
28.4120

> <Gold.Goldscore.Internal.Vdw>
-1.1622

> <Gold.Goldscore.Internal.Torsion>
-0.3875

> <Gold.Goldscore.External.Vdw>
19.8232

> <Gold.Goldscore.Internal.HBond>
0.0000

> <Gold.Goldscore.External.HBond>
1.9462

> <Gold.Goldscore.Internal.Correction>
-0.7585

> <Gold.Goldscore.Hbonds>
donor molecule, donor type, donor heavy atom, donor atom, acceptor molecule, acceptor atom, score
      L1  H     8    22       P1  2791  0.97

> <Gold.Goldscore.Internal.Vdw.Weighted>
-1.1622

> <Gold.Goldscore.Internal.Torsion.Weighted>
-0.3875

> <Gold.Goldscore.External.Vdw.Weighted>
27.2569

> <Gold.Goldscore.Internal.HBond.Weighted>
0.0000

> <Gold.Goldscore.External.HBond.Weighted>
1.9462

> <Gold.Goldscore.Internal.Correction.Weighted>
-0.7585

> <Gold.Rescore>
     Score     S(PLP)   S(hbond)     S(cho)   S(metal)  DE(clash)   DE(tors)     intcor
     32.19     -29.23       1.00       0.00       0.00       0.00       0.02       ----

> <Gold.PLP.Fitness>
32.1884

> <Gold.PLP.PLP>
-29.2300

> <Gold.PLP.part.hbond>
-1.0000

> <Gold.PLP.part.metal>
0.0000

> <Gold.PLP.part.buried>
-3.2348

> <Gold.PLP.part.nonpolar>
-26.0212

> <Gold.PLP.part.repulsive>
0.4628

> <Gold.PLP.ligand.clash>
0.0000

> <Gold.PLP.ligand.torsion>
0.0208

> <Gold.PLP.Chemscore.Hbond>
1.0000

> <Gold.PLP.Chemscore.CHOScore>
0.0000

> <Gold.PLP.Chemscore.Metal>
0.0000

> <Gold.Chemscore.Hbonds>
donor molecule, donor type, donor heavy atom, donor atom, acceptor molecule, acceptor atom, score
      L1  H     8    22       P1  2791  1.00

> <Gold.PLP.Chemscore.Internal.Correction>
   9.000000E+99

