#       Name:                CT1002167954
#       Creating user name   hitesit
#       Creation time:       Sun Apr 16 02:21:56 2023


#       File generated by GOLD software.
#

@<TRIPOS>MOLECULE
CT1002167954|ligand_prepared|mol2|1|dock2
    29    30     1
SMALL
NO_CHARGES


@<TRIPOS>ATOM
      1 C1         -15.7491   2.0232   5.6369 C.3            1 RES1               0.0000
      2 C2         -16.3246   0.5951   5.7264 C.ar           1 RES1               0.0000
      3 C3         -15.6740   2.3624   4.1511 C.2            1 RES1               0.0000
      4 C4         -16.6963   2.9154   6.4315 C.2            1 RES1               0.0000
      5 C5         -14.3347   2.1663   6.2455 C.3            1 RES1               0.0000
      6 C6         -17.3978   0.2122   4.9275 C.ar           1 RES1               0.0000
      7 C7         -15.7920  -0.3496   6.5997 C.ar           1 RES1               0.0000
      8 N8         -16.5909   3.2427   3.6568 N.am           1 RES1               0.0000
      9 O9         -14.8477   1.8354   3.4163 O.2            1 RES1               0.0000
     10 N10        -17.4051   3.8687   5.7484 N.am           1 RES1               0.0000
     11 O11        -16.8477   2.7905   7.6406 O.2            1 RES1               0.0000
     12 C12        -13.6762   3.5064   5.9581 C.3            1 RES1               0.0000
     13 C13        -17.9180  -1.0696   4.9969 C.ar           1 RES1               0.0000
     14 C14        -16.3139  -1.6309   6.6676 C.ar           1 RES1               0.0000
     15 C15        -17.4183   4.0524   4.3926 C.2            1 RES1               0.0000
     16 C16        -17.3762  -1.9920   5.8665 C.ar           1 RES1               0.0000
     17 O17        -18.1239   4.8958   3.8467 O.2            1 RES1               0.0000
     18 H18        -14.4027   2.0320   7.3321 H              1 RES1               0.0000
     19 H19        -13.6969   1.3670   5.8482 H              1 RES1               0.0000
     20 H20        -17.8389   0.9252   4.2390 H              1 RES1               0.0000
     21 H21        -14.9568  -0.0874   7.2402 H              1 RES1               0.0000
     22 H22        -16.6687   3.3045   2.6466 H              1 RES1               0.0000
     23 H23        -17.9756   4.5000   6.3019 H              1 RES1               0.0000
     24 H24        -12.6865   3.5540   6.4074 H              1 RES1               0.0000
     25 H25        -13.5697   3.6619   4.8865 H              1 RES1               0.0000
     26 H26        -14.2713   4.3230   6.3616 H              1 RES1               0.0000
     27 H27        -18.7550  -1.3484   4.3653 H              1 RES1               0.0000
     28 H28        -15.8847  -2.3534   7.3539 H              1 RES1               0.0000
     29 H29        -17.7836  -2.9962   5.9203 H              1 RES1               0.0000
@<TRIPOS>BOND
    1    1    2 1     
    2    1    3 1     
    3    1    4 1     
    4    1    5 1     
    5    2    6 ar    
    6    2    7 ar    
    7    3    8 1     
    8    3    9 2     
    9    4   10 1     
   10    4   11 2     
   11    5   12 1     
   12    5   18 1     
   13    5   19 1     
   14    6   13 ar    
   15    6   20 1     
   16    7   14 ar    
   17    7   21 1     
   18    8   15 1     
   19    8   22 1     
   20   10   15 1     
   21   10   23 1     
   22   12   24 1     
   23   12   25 1     
   24   12   26 1     
   25   13   16 ar    
   26   13   27 1     
   27   14   16 ar    
   28   14   28 1     
   29   15   17 2     
   30   16   29 1     
@<TRIPOS>SUBSTRUCTURE
      1 RES1           1
@<TRIPOS>SET
DONOR_HYDROGENS      STATIC     ATOMS    <user>   **** ""
2 22 23
ATOM$RED        STATIC     ATOMS    COLORGROUP SYSTEM
2 22 23
@<TRIPOS>COMMENT
> <Gold.Version>
2022.3.0

> <Gold.Id.Protein>
unknown|3ama_clean|pdb

> <Gold.Protein.RotatedTorsions>
[ 3844 3837 3836 3834 ] final  101.38 input   59.99 | X-H torsion
[ 3766 3757 3756 3754 ] final   44.76 input   60.00 | X-H torsion
[ 4043 4034 4033 4031 ] final  -27.66 input   60.00 | X-H torsion
[ 3307 3300 3298 3295 ] final -129.47 input   60.01 | X-H torsion
[ 2771 2760 2759 2758 ] final   47.97 input   59.98 | X-H torsion
[ 2112 2107 2106 2103 ] final   -9.19 input   60.00 | X-H torsion
[ 5355 5346 5345 5343 ] final   29.03 input   60.01 | X-H torsion
[  804  797  795  792 ] final  143.83 input   59.99 | X-H torsion
[ 3357 3348 3347 3345 ] final -163.26 input   59.98 | X-H torsion
[  822  817  816  813 ] final   47.87 input   60.00 | X-H torsion
[ 1427 1420 1418 1415 ] final   78.45 input   60.03 | X-H torsion

> <Gold.Protein.ActiveResidues>
 LEU49   GLY50   THR51   GLY52   SER53   PHE54   LYS72   LEU74   VAL79   LYS81  
 LEU82   LYS83   GLN84   HIS87   THR88   GLY126  GLU127  MET128  PHE129  SER130 
 HIS131  LEU132  ARG133  ARG134  ILE135  GLY136  ARG137  ARG165  ASP166  LEU167 
 LYS168  PRO169  GLU170  ASN171  ASP184  GLY186  PHE187  TRP196  TPO197  LEU198 
 CYS199  GLY200  THR201  PRO202  GLU203  TYR204  LEU205  ILE209  ILE210  VAL226 
 LEU227  TYR229  GLU230  ALA233  GLY234  TYR235  PRO236  PRO237  PHE238  PHE239 
 ALA240  ASP241  GLN242  PRO243  ILE244  GLN245  ILE246  TYR247  LYS249  ARG256 
 PHE257  PRO258  SER259  HIS260  ASP328  TYR330 

> <Gold.Protein.RotatedAtoms>
  -18.7245   14.2307    6.5866 H   0  0  0  0  0  0  0  0  0  0  0  0  # atno 804  bound_to 797 
  -18.0090   13.2929   -2.4658 H   0  0  0  0  0  0  0  0  0  0  0  0  # atno 822  bound_to 817 
  -20.3842   13.8814   -9.6344 H   0  0  0  0  0  0  0  0  0  0  0  0  # atno 1427 bound_to 1420
  -25.0013    4.7385   11.6228 H   0  0  0  0  0  0  0  0  0  0  0  0  # atno 2112 bound_to 2107
  -18.4341    3.3793    0.4804 H   0  0  0  0  0  0  0  0  0  0  0  0  # atno 2771 bound_to 2760
  -19.2070    4.8450    0.4314 H   0  0  0  0  0  0  0  0  0  0  0  0  # atno 2772 bound_to 2760
  -18.8209    4.1598    1.8900 H   0  0  0  0  0  0  0  0  0  0  0  0  # atno 2773 bound_to 2760
  -17.7155    2.8229    0.2469 H   0  0  0  0  0  0  0  0  0  0  0  0  # atno 3307 bound_to 3300
  -21.4919   -5.3729    3.6309 H   0  0  0  0  0  0  0  0  0  0  0  0  # atno 3357 bound_to 3348
  -16.1915  -13.7579    8.8384 H   0  0  0  0  0  0  0  0  0  0  0  0  # atno 3766 bound_to 3757
  -15.2025  -13.8483   12.8761 H   0  0  0  0  0  0  0  0  0  0  0  0  # atno 3844 bound_to 3837
  -10.0470    0.1757   -2.6884 H   0  0  0  0  0  0  0  0  0  0  0  0  # atno 4043 bound_to 4034
  -21.5991   12.2385   10.3193 H   0  0  0  0  0  0  0  0  0  0  0  0  # atno 5355 bound_to 5346
  -15.9168  -14.1931   11.4552 LP  0  0  0  0  0  0  0  0  0  0  0  0  # atno 5685 bound_to 3837
  -16.8227  -13.9776   12.7966 LP  0  0  0  0  0  0  0  0  0  0  0  0  # atno 5686 bound_to 3837
  -15.1198  -13.3962    7.6685 LP  0  0  0  0  0  0  0  0  0  0  0  0  # atno 5693 bound_to 3757
  -15.8192  -14.8712    7.7116 LP  0  0  0  0  0  0  0  0  0  0  0  0  # atno 5694 bound_to 3757
   -8.6143    0.8725   -3.0179 LP  0  0  0  0  0  0  0  0  0  0  0  0  # atno 5743 bound_to 4034
   -9.0490    0.5846   -1.4704 LP  0  0  0  0  0  0  0  0  0  0  0  0  # atno 5744 bound_to 4034
  -18.5038    2.0282   -0.9346 LP  0  0  0  0  0  0  0  0  0  0  0  0  # atno 5749 bound_to 3300
  -17.1383    2.8569   -1.2745 LP  0  0  0  0  0  0  0  0  0  0  0  0  # atno 5750 bound_to 3300
  -25.8541    5.7807   12.5360 LP  0  0  0  0  0  0  0  0  0  0  0  0  # atno 5763 bound_to 2107
  -26.4894    5.1962   11.1499 LP  0  0  0  0  0  0  0  0  0  0  0  0  # atno 5764 bound_to 2107
  -22.9204   12.3791    9.3802 LP  0  0  0  0  0  0  0  0  0  0  0  0  # atno 5765 bound_to 5346
  -23.0562   11.8155   10.9068 LP  0  0  0  0  0  0  0  0  0  0  0  0  # atno 5766 bound_to 5346
  -19.8688   13.1215    6.2603 LP  0  0  0  0  0  0  0  0  0  0  0  0  # atno 5773 bound_to 797 
  -20.0097   14.0828    7.5727 LP  0  0  0  0  0  0  0  0  0  0  0  0  # atno 5774 bound_to 797 
  -21.3784   -3.8304    4.1365 LP  0  0  0  0  0  0  0  0  0  0  0  0  # atno 5791 bound_to 3348
  -20.2033   -4.9024    4.5061 LP  0  0  0  0  0  0  0  0  0  0  0  0  # atno 5792 bound_to 3348
  -17.8848   11.9054   -1.6252 LP  0  0  0  0  0  0  0  0  0  0  0  0  # atno 5799 bound_to 817 
  -16.8747   12.2002   -2.8739 LP  0  0  0  0  0  0  0  0  0  0  0  0  # atno 5800 bound_to 817 
  -21.5349   13.4157   -8.5822 LP  0  0  0  0  0  0  0  0  0  0  0  0  # atno 5832 bound_to 1420
  -21.0926   14.9852   -8.6711 LP  0  0  0  0  0  0  0  0  0  0  0  0  # atno 5833 bound_to 1420

> <Gold.Score>
     Fitness  S(hb_ext) S(vdw_ext)  S(hb_int)    S(int)      intcor
     29.30       5.25      17.58       0.00      -0.13      -0.76

> <Gold.Goldscore.Fitness>
29.2966

> <Gold.Goldscore.Internal.Vdw>
-0.3781

> <Gold.Goldscore.Internal.Torsion>
-0.5117

> <Gold.Goldscore.External.Vdw>
17.5804

> <Gold.Goldscore.Internal.HBond>
0.0000

> <Gold.Goldscore.External.HBond>
5.2548

> <Gold.Goldscore.Internal.Correction>
-0.7585

> <Gold.Goldscore.Hbonds>
donor molecule, donor type, donor heavy atom, donor atom, acceptor molecule, acceptor atom, score
      P1  H  2760  2773       L1    17  0.88

> <Gold.Goldscore.Internal.Vdw.Weighted>
-0.3781

> <Gold.Goldscore.Internal.Torsion.Weighted>
-0.5117

> <Gold.Goldscore.External.Vdw.Weighted>
24.1730

> <Gold.Goldscore.Internal.HBond.Weighted>
0.0000

> <Gold.Goldscore.External.HBond.Weighted>
5.2548

> <Gold.Goldscore.Internal.Correction.Weighted>
-0.7585

> <Gold.Rescore>
     Score     S(PLP)   S(hbond)     S(cho)   S(metal)  DE(clash)   DE(tors)     intcor
     21.65     -23.70       0.00       0.00       0.00       0.02       1.02       ----

> <Gold.PLP.Fitness>
21.6485

> <Gold.PLP.PLP>
-23.7041

> <Gold.PLP.part.hbond>
-0.8694

> <Gold.PLP.part.metal>
0.0000

> <Gold.PLP.part.buried>
-5.0560

> <Gold.PLP.part.nonpolar>
-18.9205

> <Gold.PLP.part.repulsive>
0.2882

> <Gold.PLP.ligand.clash>
0.0195

> <Gold.PLP.ligand.torsion>
1.0181

> <Gold.PLP.Chemscore.Hbond>
0.0000

> <Gold.PLP.Chemscore.CHOScore>
0.0000

> <Gold.PLP.Chemscore.Metal>
0.0000

> <Gold.Chemscore.Hbonds>
donor molecule, donor type, donor heavy atom, donor atom, acceptor molecule, acceptor atom, score
      P1  H  2760  2773       L1    17  0.75

> <Gold.PLP.Chemscore.Internal.Correction>
   9.000000E+99

