@<TRIPOS>MOLECULE
A:GOL363
    14    13     1     0     1
SMALL
NO_CHARGES
****
Generated from the CSD

@<TRIPOS>ATOM
     1 C1      20.5600  24.3390  40.1400   C.3       1 GOL363   0.0000
     2 O1      19.2290  24.6730  39.8110   O.3       1 GOL363   0.0000
     3 C2      20.5400  22.8550  40.4200   C.3       1 GOL363   0.0000
     4 O2      19.2050  22.5250  40.1840   O.3       1 GOL363   0.0000
     5 C3      20.8730  22.5080  41.8730   C.3       1 GOL363   0.0000
     6 O3      21.4360  21.2080  42.0280   O.3       1 GOL363   0.0000
     7 H1      20.8847  24.8894  41.0218   H         1 GOL363   0.0000
     8 H2      21.2261  24.5613  39.3077   H         1 GOL363   0.0000
     9 H3      18.6342  24.4544  40.5755   H         1 GOL363   0.0000
    10 H4      21.1975  22.3227  39.7343   H         1 GOL363   0.0000
    11 H5      22.2785  21.1477  41.5058   H         1 GOL363   0.0000
    12 H6      19.9568  22.5599  42.4593   H         1 GOL363   0.0000
    13 H7      21.5862  23.2404  42.2484   H         1 GOL363   0.0000
    14 H8      18.9710  22.7442  39.2442   H         1 GOL363   0.0000
@<TRIPOS>BOND
     1     1     2    1
     2     1     3    1
     3     3     4    1
     4     3     5    1
     5     5     6    1
     6     1     7    1
     7     1     8    1
     8     2     9    1
     9     3    10    1
    10     6    11    1
    11     5    12    1
    12     5    13    1
    13     4    14    1
@<TRIPOS>SUBSTRUCTURE
     1 GOL363      1 GROUP             0 A     GOL     0  
@<TRIPOS>SET
CCDC_LIGAND STATIC ATOMS
14 1 2 3 4 5 6 7 8 9 \
10 11 12 13 14 
