@<TRIPOS>MOLECULE
A:GK1362
    41    44     1     0     1
SMALL
NO_CHARGES
****
Generated from the CSD

@<TRIPOS>ATOM
     1 C1      40.0780  32.4540  29.7580   C.3       1 GK1362   0.0000
     2 N1      42.6560  31.6210  30.7410   N.pl3     1 GK1362   0.0000
     3 O1      40.6600  29.2120  34.4090   O.3       1 GK1362   0.0000
     4 C2      40.2650  31.5900  30.9830   C.ar      1 GK1362   0.0000
     5 N2      44.5430  35.2660  31.2940   N.ar      1 GK1362   0.0000
     6 O2      49.3680  37.8820  27.0200   O.2       1 GK1362   0.0000
     7 C3      39.1400  31.1510  31.6800   C.ar      1 GK1362   0.0000
     8 N3      48.3400  35.4040  28.0110   N.2       1 GK1362   0.0000
     9 C4      39.2700  30.3630  32.8240   C.ar      1 GK1362   0.0000
    10 C5      40.5430  29.9810  33.2800   C.ar      1 GK1362   0.0000
    11 C6      41.6840  30.4070  32.5770   C.ar      1 GK1362   0.0000
    12 C7      41.5420  31.2130  31.4230   C.ar      1 GK1362   0.0000
    13 C8      43.2770  32.8240  30.9390   C.ar      1 GK1362   0.0000
    14 C9      42.7700  33.7810  31.8200   C.ar      1 GK1362   0.0000
    15 C10     43.4200  34.9990  31.9880   C.ar      1 GK1362   0.0000
    16 C11     45.0610  34.3530  30.4300   C.ar      1 GK1362   0.0000
    17 C12     46.2280  34.6450  29.7290   C.ar      1 GK1362   0.0000
    18 C13     46.7750  33.7320  28.8360   C.ar      1 GK1362   0.0000
    19 C14     46.1720  32.4940  28.6220   C.ar      1 GK1362   0.0000
    20 C15     44.9950  32.1990  29.3200   C.ar      1 GK1362   0.0000
    21 C16     44.4430  33.1180  30.2250   C.ar      1 GK1362   0.0000
    22 C17     47.9570  34.0830  28.1830   C.2       1 GK1362   0.0000
    23 C18     48.8620  33.1110  27.7030   C.2       1 GK1362   0.0000
    24 C19     49.5180  35.5620  27.3840   C.2       1 GK1362   0.0000
    25 C20     50.1020  36.8910  27.0670   C.2       1 GK1362   0.0000
    26 S       50.2330  33.9970  26.9910   S.3       1 GK1362   0.0000
    27 H1      43.0205  35.7376  32.6814   H         1 GK1362   0.0000
    28 H2      40.1833  28.3514  34.2742   H         1 GK1362   0.0000
    29 H3      43.0455  30.9926  30.0456   H         1 GK1362   0.0000
    30 H4      41.8593  33.5723  32.3795   H         1 GK1362   0.0000
    31 H5      51.1698  36.9898  26.8775   H         1 GK1362   0.0000
    32 H6      42.6758  30.1168  32.9205   H         1 GK1362   0.0000
    33 H7      39.5551  33.3682  30.0350   H         1 GK1362   0.0000
    34 H8      41.0513  32.7052  29.3390   H         1 GK1362   0.0000
    35 H9      39.4929  31.9114  29.0170   H         1 GK1362   0.0000
    36 H10     44.5006  31.2423  29.1582   H         1 GK1362   0.0000
    37 H11     48.7444  32.0297  27.7576   H         1 GK1362   0.0000
    38 H12     38.3813  30.0427  33.3657   H         1 GK1362   0.0000
    39 H13     38.1474  31.4267  31.3270   H         1 GK1362   0.0000
    40 H14     46.6055  31.7742  27.9292   H         1 GK1362   0.0000
    41 H15     46.7198  35.6043  29.8831   H         1 GK1362   0.0000
@<TRIPOS>BOND
     1     1     4    1
     2     4     7   ar
     3     7     9   ar
     4     3    10    1
     5     9    10   ar
     6    10    11   ar
     7     2    12    1
     8     4    12   ar
     9    11    12   ar
    10     2    13    1
    11    13    14   ar
    12     5    15   ar
    13    14    15   ar
    14     5    16   ar
    15    16    17   ar
    16    17    18   ar
    17    18    19   ar
    18    19    20   ar
    19    13    21   ar
    20    16    21   ar
    21    20    21   ar
    22     8    22    1
    23    18    22    1
    24    22    23    2
    25     8    24    2
    26     6    25    2
    27    24    25    1
    28    23    26    1
    29    24    26    1
    30    15    27    1
    31     3    28    1
    32     2    29    1
    33    14    30    1
    34    25    31    1
    35    11    32    1
    36     1    33    1
    37     1    34    1
    38     1    35    1
    39    20    36    1
    40    23    37    1
    41     9    38    1
    42     7    39    1
    43    19    40    1
    44    17    41    1
@<TRIPOS>SUBSTRUCTURE
     1 GK1362      1 GROUP             0 A     GK1     0  
@<TRIPOS>SET
CCDC_LIGAND STATIC ATOMS
41 1 2 3 4 5 6 7 8 9 \
10 11 12 13 14 15 16 17 18 19 \
20 21 22 23 24 25 26 27 28 29 \
30 31 32 33 34 35 36 37 38 39 \
40 41 
