#       Name:                CT1002167954
#       Creating user name   hitesit
#       Creation time:       Sun Apr 16 20:18:17 2023


#       File generated by GOLD software.
#

@<TRIPOS>MOLECULE
CT1002167954|ligand_prepared|mol2|1|dock5
    29    30     1
SMALL
NO_CHARGES


@<TRIPOS>ATOM
      1 C1         117.5760 245.2104 323.8183 C.3            1 RES1               0.0000
      2 C2         116.5055 244.1828 324.2389 C.ar           1 RES1               0.0000
      3 C3         118.7989 244.9357 324.6885 C.2            1 RES1               0.0000
      4 C4         117.8121 244.9946 322.3275 C.2            1 RES1               0.0000
      5 C5         117.1458 246.6813 324.0259 C.3            1 RES1               0.0000
      6 C6         116.5497 242.8771 323.7596 C.ar           1 RES1               0.0000
      7 C7         115.4711 244.5245 325.1060 C.ar           1 RES1               0.0000
      8 N8         119.8704 244.3314 324.0998 N.am           1 RES1               0.0000
      9 O9         118.8080 245.2091 325.8824 O.2            1 RES1               0.0000
     10 N10        119.0422 244.5387 321.9317 N.am           1 RES1               0.0000
     11 O11        116.9386 245.1994 321.4936 O.2            1 RES1               0.0000
     12 C12        118.0920 247.6915 323.3962 C.3            1 RES1               0.0000
     13 C13        115.5961 241.9457 324.1358 C.ar           1 RES1               0.0000
     14 C14        114.5184 243.5916 325.4808 C.ar           1 RES1               0.0000
     15 C15        120.0720 244.1680 322.7528 C.2            1 RES1               0.0000
     16 C16        114.5802 242.3021 324.9969 C.ar           1 RES1               0.0000
     17 O17        121.1294 243.7153 322.3238 O.2            1 RES1               0.0000
     18 H18        116.1453 246.8203 323.5981 H              1 RES1               0.0000
     19 H19        117.0810 246.8817 325.1025 H              1 RES1               0.0000
     20 H20        117.3403 242.5789 323.0791 H              1 RES1               0.0000
     21 H21        115.4020 245.5334 325.4984 H              1 RES1               0.0000
     22 H22        120.5882 243.9673 324.7183 H              1 RES1               0.0000
     23 H23        119.2053 244.4692 320.9322 H              1 RES1               0.0000
     24 H24        117.7439 248.7073 323.5714 H              1 RES1               0.0000
     25 H25        119.0911 247.5984 323.8168 H              1 RES1               0.0000
     26 H26        118.1610 247.5375 322.3214 H              1 RES1               0.0000
     27 H27        115.6484 240.9326 323.7511 H              1 RES1               0.0000
     28 H28        113.7202 243.8767 326.1583 H              1 RES1               0.0000
     29 H29        113.8335 241.5722 325.2918 H              1 RES1               0.0000
@<TRIPOS>BOND
    1    1    2 1     
    2    1    3 1     
    3    1    4 1     
    4    1    5 1     
    5    2    6 ar    
    6    2    7 ar    
    7    3    8 1     
    8    3    9 2     
    9    4   10 1     
   10    4   11 2     
   11    5   12 1     
   12    5   18 1     
   13    5   19 1     
   14    6   13 ar    
   15    6   20 1     
   16    7   14 ar    
   17    7   21 1     
   18    8   15 1     
   19    8   22 1     
   20   10   15 1     
   21   10   23 1     
   22   12   24 1     
   23   12   25 1     
   24   12   26 1     
   25   13   16 ar    
   26   13   27 1     
   27   14   16 ar    
   28   14   28 1     
   29   15   17 2     
   30   16   29 1     
@<TRIPOS>SUBSTRUCTURE
      1 RES1           1
@<TRIPOS>SET
DONOR_HYDROGENS      STATIC     ATOMS    <user>   **** ""
2 22 23
ATOM$RED        STATIC     ATOMS    COLORGROUP SYSTEM
2 22 23
@<TRIPOS>COMMENT
> <Gold.Version>
2022.3.0

> <Gold.Id.Protein>
unknown|5adg_clean|pdb

> <Gold.Protein.RotatedTorsions>
[ 5556 5551 5550 5547 ] final -177.10 input   60.01 | X-H torsion
[ 8551 8534 8535 8536 ] final  139.71 input   85.39 | X-H torsion
[ 12879 12858 12859 12860 ] final  -14.92 input  110.07 | X-H torsion
[ 12887 12869 12868 12866 ] final  -82.50 input   59.97 | X-H torsion
[ 12914 12897 12898 12899 ] final  -86.83 input   35.92 | X-H torsion
[ 8434 8429 8430 8431 ] final  -16.01 input   45.97 | X-H torsion
[ 8458 8451 8452 8453 ] final  152.82 input  104.20 | X-H torsion
[ 9002 8998 8999 9000 ] final  -57.51 input   46.10 | X-H torsion
[ 9036 9022 9023 9024 ] final    8.92 input   36.28 | X-H torsion
[ 9087 9068 9069 9070 ] final -143.14 input   95.83 | X-H torsion
[ 9095 9079 9078 9076 ] final   85.88 input   59.97 | X-H torsion
[ 9123 9106 9107 9108 ] final   11.67 input   84.45 | X-H torsion
[ 9198 9183 9184 9185 ] final  -21.04 input  123.29 | X-H torsion
[ 3599 3592 3593 3594 ] final  106.85 input   84.32 | X-H torsion
[ 8984 8978 8979 8980 ] final -163.13 input   29.51 | X-H torsion
[ 9143 9136 9137 9138 ] final  155.11 input  134.07 | X-H torsion
[ 11056 11049 11050 11051 ] final  -76.10 input   56.26 | X-H torsion
[ 4901 4888 4887 4884 ] final   83.48 input   60.00 | X-H torsion
[ 8988 8983 8982 8979 ] final  -63.72 input   59.98 | X-H torsion
[ 3554 3542 3543 3544 ] final -115.32 input   80.85 | X-H torsion
[ 8491 8482 8483 8484 ] final   24.05 input   54.31 | X-H torsion
[ 8954 8943 8944 8945 ] final   76.44 input   47.77 | X-H torsion
[ 8520 8506 8507 8508 ] final  101.05 input   67.56 | X-H torsion
[ 5580 5571 5572 5573 ] final  174.52 input   48.82 | X-H torsion
[ 3579 3563 3564 3565 ] final -100.87 input  103.62 | X-H torsion
[ 9231 9212 9213 9214 ] final -155.58 input   91.82 | X-H torsion
[ 8587 8568 8569 8570 ] final -110.12 input   67.63 | X-H torsion
[ 13465 1235 1234 1233 ] final  -41.90 input    0.00 | X-H torsion
[ 13468 5549 5548 5547 ] final  -84.18 input   -0.00 | X-H torsion
[ 13472 8509 8508 8507 ] final -128.46 input    0.00 | X-H torsion
[ 13479 12900 12899 12898 ] final  149.06 input   -0.00 | X-H torsion
[ 13492 8406 8405 8404 ] final  -97.91 input    0.00 | X-H torsion
[ 13496 8946 8945 8944 ] final   72.00 input   -0.00 | X-H torsion
[ 13499 9001 9000 8999 ] final   -8.62 input    0.00 | X-H torsion
[ 13502 9025 9024 9023 ] final -171.22 input    0.00 | X-H torsion
[ 13505 9071 9070 9069 ] final -119.48 input    0.00 | X-H torsion
[ 13510 9109 9108 9107 ] final  -23.09 input    0.00 | X-H torsion
[ 13521 8981 8980 8979 ] final -130.22 input   -0.00 | X-H torsion
[ 13523 8351 8350 8349 ] final   46.64 input   -0.00 | X-H torsion
[ 13531 8454 8453 8452 ] final   12.92 input    0.00 | X-H torsion
[ 13533 8432 8431 8430 ] final -120.76 input    0.00 | X-H torsion
[ 13535 3502 3501 3500 ] final -153.35 input    0.00 | X-H torsion
[ 13543 12828 12827 12826 ] final -142.20 input   -0.00 | X-H torsion

> <Gold.Protein.ActiveResidues>
 TRP311  MET341  HIS342  TRP414  ALA417  ARG419  CYS420  VAL421  GLY422  LEU460 
 SER462  SER482  GLN483  ARG486  ALA502  TYR567  GLY568  LEU569  PRO570  ALA571 
 VAL572  SER573  ASN574  MET575  LEU576  PHE589  SER590  GLY591  TRP592  TYR593 
 MET594  GLY595  GLU597  ILE598  ARG601  ASP602  ARG608  ILE653  VAL654  TRP683 
 PHE709  GLU710  TYR711  GLN712  ASP714  HEM750  H4B760 

> <Gold.Protein.RotatedAtoms>
  119.3566  251.1893  329.8708 H   0  0  0  0  0  0  0  0  0  0  0  0  # atno 3554 bound_to 3542
  122.2959  249.8677  329.6768 H   0  0  0  0  0  0  0  0  0  0  0  0  # atno 3579 bound_to 3563
  123.4001  248.0548  327.7067 H   0  0  0  0  0  0  0  0  0  0  0  0  # atno 3599 bound_to 3592
  126.3038  246.2589  318.3526 H   0  0  0  0  0  0  0  0  0  0  0  0  # atno 4901 bound_to 4888
  106.6542  243.1771  322.0277 H   0  0  0  0  0  0  0  0  0  0  0  0  # atno 5556 bound_to 5551
  108.9628  244.1136  319.7970 H   0  0  0  0  0  0  0  0  0  0  0  0  # atno 5580 bound_to 5571
  115.1052  242.7158  319.4929 H   0  0  0  0  0  0  0  0  0  0  0  0  # atno 8434 bound_to 8429
  115.1169  245.3293  319.5832 H   0  0  0  0  0  0  0  0  0  0  0  0  # atno 8458 bound_to 8451
  110.9133  247.2475  318.9631 H   0  0  0  0  0  0  0  0  0  0  0  0  # atno 8491 bound_to 8482
  109.8080  248.4007  319.1532 H   0  0  0  0  0  0  0  0  0  0  0  0  # atno 8520 bound_to 8506
  110.4454  250.8399  319.9037 H   0  0  0  0  0  0  0  0  0  0  0  0  # atno 8551 bound_to 8534
  110.4549  254.4189  319.3383 H   0  0  0  0  0  0  0  0  0  0  0  0  # atno 8587 bound_to 8568
  115.2379  249.1274  316.7753 H   0  0  0  0  0  0  0  0  0  0  0  0  # atno 8954 bound_to 8943
  117.8444  247.2400  316.8152 H   0  0  0  0  0  0  0  0  0  0  0  0  # atno 8984 bound_to 8978
  119.5782  245.5361  314.8490 H   0  0  0  0  0  0  0  0  0  0  0  0  # atno 8988 bound_to 8983
  120.5436  244.3624  318.0530 H   0  0  0  0  0  0  0  0  0  0  0  0  # atno 9002 bound_to 8998
  122.5880  243.3117  321.4782 H   0  0  0  0  0  0  0  0  0  0  0  0  # atno 9036 bound_to 9022
  121.5070  240.4335  322.1990 H   0  0  0  0  0  0  0  0  0  0  0  0  # atno 9087 bound_to 9068
  114.8925  239.2780  322.3777 H   0  0  0  0  0  0  0  0  0  0  0  0  # atno 9095 bound_to 9079
  120.9042  239.6100  326.2397 H   0  0  0  0  0  0  0  0  0  0  0  0  # atno 9123 bound_to 9106
  123.1858  237.3513  328.4587 H   0  0  0  0  0  0  0  0  0  0  0  0  # atno 9143 bound_to 9136
  117.9783  237.5145  330.4498 H   0  0  0  0  0  0  0  0  0  0  0  0  # atno 9198 bound_to 9183
  116.4724  237.4773  327.9184 H   0  0  0  0  0  0  0  0  0  0  0  0  # atno 9231 bound_to 9212
  126.0125  236.9607  325.7011 H   0  0  0  0  0  0  0  0  0  0  0  0  # atno 11056 bound_to 11049
  109.6223  256.8776  324.0092 H   0  0  0  0  0  0  0  0  0  0  0  0  # atno 12879 bound_to 12858
  110.7443  251.2964  329.6835 H   0  0  0  0  0  0  0  0  0  0  0  0  # atno 12887 bound_to 12869
  106.5517  255.3668  323.9919 H   0  0  0  0  0  0  0  0  0  0  0  0  # atno 12914 bound_to 12897
  109.9720  254.0536  332.6937 LP  0  0  0  0  0  0  0  0  0  0  0  0  # atno 13465 bound_to 1235
  108.9109  254.1505  331.3281 LP  0  0  0  0  0  0  0  0  0  0  0  0  # atno 13466 bound_to 1235
  109.8980  246.4907  318.9959 LP  0  0  0  0  0  0  0  0  0  0  0  0  # atno 13468 bound_to 5549
  110.1169  245.7244  320.5338 LP  0  0  0  0  0  0  0  0  0  0  0  0  # atno 13469 bound_to 5549
  107.9863  243.2472  321.0954 LP  0  0  0  0  0  0  0  0  0  0  0  0  # atno 13470 bound_to 5551
  106.5266  242.9677  320.4187 LP  0  0  0  0  0  0  0  0  0  0  0  0  # atno 13471 bound_to 5551
  107.7326  252.9615  319.9704 LP  0  0  0  0  0  0  0  0  0  0  0  0  # atno 13472 bound_to 8509
  107.2166  251.5681  320.8604 LP  0  0  0  0  0  0  0  0  0  0  0  0  # atno 13473 bound_to 8509
  109.2621  251.6854  318.9411 LP  0  0  0  0  0  0  0  0  0  0  0  0  # atno 13474 bound_to 8534
  110.2010  255.8858  325.3257 LP  0  0  0  0  0  0  0  0  0  0  0  0  # atno 13475 bound_to 12858
  111.8358  252.5031  329.6446 LP  0  0  0  0  0  0  0  0  0  0  0  0  # atno 13476 bound_to 12869
  111.8631  251.3365  328.5022 LP  0  0  0  0  0  0  0  0  0  0  0  0  # atno 13477 bound_to 12869
  107.1100  254.5875  322.5306 LP  0  0  0  0  0  0  0  0  0  0  0  0  # atno 13478 bound_to 12897
  103.6631  253.0960  323.2965 LP  0  0  0  0  0  0  0  0  0  0  0  0  # atno 13479 bound_to 12900
  105.1872  253.1324  322.4745 LP  0  0  0  0  0  0  0  0  0  0  0  0  # atno 13480 bound_to 12900
  117.8840  244.0125  319.7463 LP  0  0  0  0  0  0  0  0  0  0  0  0  # atno 13492 bound_to 8406
  118.4874  243.0684  318.4254 LP  0  0  0  0  0  0  0  0  0  0  0  0  # atno 13493 bound_to 8406
  116.2817  242.0206  318.4056 LP  0  0  0  0  0  0  0  0  0  0  0  0  # atno 13494 bound_to 8429
  114.5124  245.5146  317.9509 LP  0  0  0  0  0  0  0  0  0  0  0  0  # atno 13495 bound_to 8451
  115.9686  246.3502  317.0878 LP  0  0  0  0  0  0  0  0  0  0  0  0  # atno 13496 bound_to 8946
  116.6760  246.7960  318.6047 LP  0  0  0  0  0  0  0  0  0  0  0  0  # atno 13497 bound_to 8946
  120.2410  245.3839  319.4404 LP  0  0  0  0  0  0  0  0  0  0  0  0  # atno 13498 bound_to 8998
  121.8247  242.6146  317.7326 LP  0  0  0  0  0  0  0  0  0  0  0  0  # atno 13499 bound_to 9001
  122.4594  241.3177  318.6892 LP  0  0  0  0  0  0  0  0  0  0  0  0  # atno 13500 bound_to 9001
  122.8822  242.9568  319.7962 LP  0  0  0  0  0  0  0  0  0  0  0  0  # atno 13501 bound_to 9022
  121.9791  242.0051  324.1363 LP  0  0  0  0  0  0  0  0  0  0  0  0  # atno 13502 bound_to 9025
  122.2430  242.9967  322.7409 LP  0  0  0  0  0  0  0  0  0  0  0  0  # atno 13503 bound_to 9025
  122.8710  239.4555  322.6917 LP  0  0  0  0  0  0  0  0  0  0  0  0  # atno 13504 bound_to 9068
  123.7318  238.3608  325.7449 LP  0  0  0  0  0  0  0  0  0  0  0  0  # atno 13505 bound_to 9071
  124.0597  239.5976  324.5776 LP  0  0  0  0  0  0  0  0  0  0  0  0  # atno 13506 bound_to 9071
  114.5590  238.3548  323.6760 LP  0  0  0  0  0  0  0  0  0  0  0  0  # atno 13507 bound_to 9079
  114.9060  237.6562  322.2413 LP  0  0  0  0  0  0  0  0  0  0  0  0  # atno 13508 bound_to 9079
  122.2601  240.6670  325.9142 LP  0  0  0  0  0  0  0  0  0  0  0  0  # atno 13509 bound_to 9106
  119.8418  239.3811  328.1665 LP  0  0  0  0  0  0  0  0  0  0  0  0  # atno 13510 bound_to 9109
  119.7745  237.6507  328.1363 LP  0  0  0  0  0  0  0  0  0  0  0  0  # atno 13511 bound_to 9109
  118.8358  238.9796  330.0430 LP  0  0  0  0  0  0  0  0  0  0  0  0  # atno 13512 bound_to 9183
  124.7580  248.4717  328.7180 LP  0  0  0  0  0  0  0  0  0  0  0  0  # atno 13519 bound_to 3592
  119.5447  247.5995  316.6521 LP  0  0  0  0  0  0  0  0  0  0  0  0  # atno 13520 bound_to 8978
  122.3043  245.9577  317.0638 LP  0  0  0  0  0  0  0  0  0  0  0  0  # atno 13521 bound_to 8981
  121.2701  247.3316  317.2710 LP  0  0  0  0  0  0  0  0  0  0  0  0  # atno 13522 bound_to 8981
  121.1037  236.9905  319.1959 LP  0  0  0  0  0  0  0  0  0  0  0  0  # atno 13523 bound_to 8351
  119.8274  238.0040  319.7824 LP  0  0  0  0  0  0  0  0  0  0  0  0  # atno 13524 bound_to 8351
  121.6865  238.2316  328.6612 LP  0  0  0  0  0  0  0  0  0  0  0  0  # atno 13525 bound_to 9136
  125.4945  238.6129  325.4782 LP  0  0  0  0  0  0  0  0  0  0  0  0  # atno 13526 bound_to 11049
  124.7798  245.7353  318.5791 LP  0  0  0  0  0  0  0  0  0  0  0  0  # atno 13527 bound_to 4888
  125.2865  247.1148  319.2911 LP  0  0  0  0  0  0  0  0  0  0  0  0  # atno 13528 bound_to 4888
  119.5930  243.9158  314.6991 LP  0  0  0  0  0  0  0  0  0  0  0  0  # atno 13529 bound_to 8983
  120.7006  244.6619  315.6390 LP  0  0  0  0  0  0  0  0  0  0  0  0  # atno 13530 bound_to 8983
  114.5523  248.0929  317.9577 LP  0  0  0  0  0  0  0  0  0  0  0  0  # atno 13531 bound_to 8454
  113.2017  248.9705  317.3208 LP  0  0  0  0  0  0  0  0  0  0  0  0  # atno 13532 bound_to 8454
  112.7170  245.1058  316.9860 LP  0  0  0  0  0  0  0  0  0  0  0  0  # atno 13533 bound_to 8432
  112.7947  243.5030  317.6380 LP  0  0  0  0  0  0  0  0  0  0  0  0  # atno 13534 bound_to 8432
  119.8241  249.2417  330.5157 LP  0  0  0  0  0  0  0  0  0  0  0  0  # atno 13535 bound_to 3502
  118.1887  249.6339  330.9297 LP  0  0  0  0  0  0  0  0  0  0  0  0  # atno 13536 bound_to 3502
  120.5602  252.3730  329.4239 LP  0  0  0  0  0  0  0  0  0  0  0  0  # atno 13537 bound_to 3542
  112.4257  247.0141  318.1224 LP  0  0  0  0  0  0  0  0  0  0  0  0  # atno 13538 bound_to 8482
  115.5188  248.7242  315.0990 LP  0  0  0  0  0  0  0  0  0  0  0  0  # atno 13539 bound_to 8943
  110.0340  249.4152  317.7510 LP  0  0  0  0  0  0  0  0  0  0  0  0  # atno 13541 bound_to 8506
  108.2176  243.6705  318.2766 LP  0  0  0  0  0  0  0  0  0  0  0  0  # atno 13542 bound_to 5571
  109.3195  255.4550  322.1526 LP  0  0  0  0  0  0  0  0  0  0  0  0  # atno 13543 bound_to 12828
  111.0450  255.4688  322.0027 LP  0  0  0  0  0  0  0  0  0  0  0  0  # atno 13544 bound_to 12828

> <Gold.Score>
     Fitness  S(hb_ext) S(vdw_ext)  S(hb_int)    S(int)      intcor
     42.11       1.47      29.63       0.00      -0.11      -0.76

> <Gold.Goldscore.Fitness>
42.1116

> <Gold.Goldscore.Internal.Vdw>
-0.3443

> <Gold.Goldscore.Internal.Torsion>
-0.5203

> <Gold.Goldscore.External.Vdw>
29.6313

> <Gold.Goldscore.Internal.HBond>
0.0000

> <Gold.Goldscore.External.HBond>
1.4747

> <Gold.Goldscore.Internal.Correction>
-0.7585

> <Gold.Goldscore.Hbonds>
donor molecule, donor type, donor heavy atom, donor atom, acceptor molecule, acceptor atom, score
      P1  H  8451  8458       L1    11  0.45
      P1  H  9022  9036       L1    17  0.07
      L1  H    10    23       P1  8998  0.07

> <Gold.Goldscore.Internal.Vdw.Weighted>
-0.3443

> <Gold.Goldscore.Internal.Torsion.Weighted>
-0.5203

> <Gold.Goldscore.External.Vdw.Weighted>
40.7430

> <Gold.Goldscore.Internal.HBond.Weighted>
0.0000

> <Gold.Goldscore.External.HBond.Weighted>
1.4747

> <Gold.Goldscore.Internal.Correction.Weighted>
-0.7585

> <Gold.Rescore>
     Score     S(PLP)   S(hbond)     S(cho)   S(metal)  DE(clash)   DE(tors)     intcor
     35.56     -32.57       1.68       0.00       0.00       0.00       1.03       ----

> <Gold.PLP.Fitness>
35.5648

> <Gold.PLP.PLP>
-32.5697

> <Gold.PLP.part.hbond>
-4.0045

> <Gold.PLP.part.metal>
0.0000

> <Gold.PLP.part.buried>
9.7723

> <Gold.PLP.part.nonpolar>
-41.5185

> <Gold.PLP.part.repulsive>
1.8672

> <Gold.PLP.ligand.clash>
0.0000

> <Gold.PLP.ligand.torsion>
1.0270

> <Gold.PLP.Chemscore.Hbond>
1.6830

> <Gold.PLP.Chemscore.CHOScore>
0.0000

> <Gold.PLP.Chemscore.Metal>
0.0000

> <Gold.Chemscore.Hbonds>
donor molecule, donor type, donor heavy atom, donor atom, acceptor molecule, acceptor atom, score
      P1  H  9022  9036       L1    17  0.59

> <Gold.PLP.Chemscore.Internal.Correction>
   9.000000E+99

