#       Name:                CT1002167954
#       Creating user name   hitesit
#       Creation time:       Sun Apr 16 20:18:21 2023


#       File generated by GOLD software.
#

@<TRIPOS>MOLECULE
CT1002167954|ligand_prepared|mol2|1|dock10
    29    30     1
SMALL
NO_CHARGES


@<TRIPOS>ATOM
      1 C1         111.2166 246.5495 325.0949 C.3            1 RES1               0.0000
      2 C2         112.7552 246.4419 325.0958 C.ar           1 RES1               0.0000
      3 C3         110.8052 246.7961 323.6464 C.2            1 RES1               0.0000
      4 C4         110.6970 245.2385 325.6747 C.2            1 RES1               0.0000
      5 C5         110.6707 247.7060 325.9643 C.3            1 RES1               0.0000
      6 C6         113.3789 245.2037 325.2167 C.ar           1 RES1               0.0000
      7 C7         113.5627 247.5696 324.9742 C.ar           1 RES1               0.0000
      8 N8         110.2304 245.7620 322.9680 N.am           1 RES1               0.0000
      9 O9         111.0180 247.8692 323.0956 O.2            1 RES1               0.0000
     10 N10        109.9800 244.4114 324.8503 N.am           1 RES1               0.0000
     11 O11        110.9161 244.9068 326.8332 O.2            1 RES1               0.0000
     12 C12        109.1565 247.7061 326.1040 C.3            1 RES1               0.0000
     13 C13        114.7597 245.0963 325.2131 C.ar           1 RES1               0.0000
     14 C14        114.9434 247.4600 324.9710 C.ar           1 RES1               0.0000
     15 C15        109.7494 244.5995 323.5147 C.2            1 RES1               0.0000
     16 C16        115.5429 246.2242 325.0898 C.ar           1 RES1               0.0000
     17 O17        109.1421 243.7834 322.8275 O.2            1 RES1               0.0000
     18 H18        111.1175 247.6377 326.9639 H              1 RES1               0.0000
     19 H19        110.9843 248.6593 325.5213 H              1 RES1               0.0000
     20 H20        112.7790 244.3053 325.3171 H              1 RES1               0.0000
     21 H21        113.1130 248.5523 324.8806 H              1 RES1               0.0000
     22 H22        110.1509 245.8623 321.9611 H              1 RES1               0.0000
     23 H23        109.5812 243.5783 325.2713 H              1 RES1               0.0000
     24 H24        108.8263 248.5375 326.7232 H              1 RES1               0.0000
     25 H25        108.6793 247.7981 325.1306 H              1 RES1               0.0000
     26 H26        108.8116 246.7826 326.5646 H              1 RES1               0.0000
     27 H27        115.2266 244.1215 325.3082 H              1 RES1               0.0000
     28 H28        115.5559 248.3504 324.8744 H              1 RES1               0.0000
     29 H29        116.6246 246.1398 325.0866 H              1 RES1               0.0000
@<TRIPOS>BOND
    1    1    2 1     
    2    1    3 1     
    3    1    4 1     
    4    1    5 1     
    5    2    6 ar    
    6    2    7 ar    
    7    3    8 1     
    8    3    9 2     
    9    4   10 1     
   10    4   11 2     
   11    5   12 1     
   12    5   18 1     
   13    5   19 1     
   14    6   13 ar    
   15    6   20 1     
   16    7   14 ar    
   17    7   21 1     
   18    8   15 1     
   19    8   22 1     
   20   10   15 1     
   21   10   23 1     
   22   12   24 1     
   23   12   25 1     
   24   12   26 1     
   25   13   16 ar    
   26   13   27 1     
   27   14   16 ar    
   28   14   28 1     
   29   15   17 2     
   30   16   29 1     
@<TRIPOS>SUBSTRUCTURE
      1 RES1           1
@<TRIPOS>SET
DONOR_HYDROGENS      STATIC     ATOMS    <user>   **** ""
2 22 23
ATOM$RED        STATIC     ATOMS    COLORGROUP SYSTEM
2 22 23
@<TRIPOS>COMMENT
> <Gold.Version>
2022.3.0

> <Gold.Id.Protein>
unknown|5adg_clean|pdb

> <Gold.Protein.RotatedTorsions>
[ 5556 5551 5550 5547 ] final -138.23 input   60.01 | X-H torsion
[ 8551 8534 8535 8536 ] final   -9.26 input   85.39 | X-H torsion
[ 12879 12858 12859 12860 ] final  172.81 input  110.07 | X-H torsion
[ 12887 12869 12868 12866 ] final -123.77 input   59.97 | X-H torsion
[ 12914 12897 12898 12899 ] final -143.51 input   35.92 | X-H torsion
[ 8434 8429 8430 8431 ] final    0.56 input   45.97 | X-H torsion
[ 8458 8451 8452 8453 ] final   -2.29 input  104.20 | X-H torsion
[ 9002 8998 8999 9000 ] final  -42.03 input   46.10 | X-H torsion
[ 9036 9022 9023 9024 ] final   61.87 input   36.28 | X-H torsion
[ 9087 9068 9069 9070 ] final  156.77 input   95.83 | X-H torsion
[ 9095 9079 9078 9076 ] final   54.22 input   59.97 | X-H torsion
[ 9123 9106 9107 9108 ] final  -78.14 input   84.45 | X-H torsion
[ 9198 9183 9184 9185 ] final   59.26 input  123.29 | X-H torsion
[ 3599 3592 3593 3594 ] final  176.64 input   84.32 | X-H torsion
[ 8984 8978 8979 8980 ] final  -14.69 input   29.51 | X-H torsion
[ 9143 9136 9137 9138 ] final -114.46 input  134.07 | X-H torsion
[ 11056 11049 11050 11051 ] final  -59.66 input   56.26 | X-H torsion
[ 4901 4888 4887 4884 ] final  130.72 input   60.00 | X-H torsion
[ 8988 8983 8982 8979 ] final  162.29 input   59.98 | X-H torsion
[ 3554 3542 3543 3544 ] final   91.04 input   80.85 | X-H torsion
[ 8491 8482 8483 8484 ] final   97.05 input   54.31 | X-H torsion
[ 8954 8943 8944 8945 ] final  -28.92 input   47.77 | X-H torsion
[ 8520 8506 8507 8508 ] final -105.17 input   67.56 | X-H torsion
[ 5580 5571 5572 5573 ] final  152.75 input   48.82 | X-H torsion
[ 3579 3563 3564 3565 ] final  141.70 input  103.62 | X-H torsion
[ 9231 9212 9213 9214 ] final -155.52 input   91.82 | X-H torsion
[ 8587 8568 8569 8570 ] final  167.48 input   67.63 | X-H torsion
[ 13465 1235 1234 1233 ] final  115.14 input    0.00 | X-H torsion
[ 13468 5549 5548 5547 ] final -111.34 input   -0.00 | X-H torsion
[ 13472 8509 8508 8507 ] final   59.67 input    0.00 | X-H torsion
[ 13479 12900 12899 12898 ] final  -79.86 input   -0.00 | X-H torsion
[ 13492 8406 8405 8404 ] final  -14.84 input    0.00 | X-H torsion
[ 13496 8946 8945 8944 ] final -131.61 input   -0.00 | X-H torsion
[ 13499 9001 9000 8999 ] final -104.70 input    0.00 | X-H torsion
[ 13502 9025 9024 9023 ] final  -63.92 input    0.00 | X-H torsion
[ 13505 9071 9070 9069 ] final  -62.41 input    0.00 | X-H torsion
[ 13510 9109 9108 9107 ] final -107.31 input    0.00 | X-H torsion
[ 13521 8981 8980 8979 ] final  151.90 input   -0.00 | X-H torsion
[ 13523 8351 8350 8349 ] final  -41.04 input   -0.00 | X-H torsion
[ 13531 8454 8453 8452 ] final -114.34 input    0.00 | X-H torsion
[ 13533 8432 8431 8430 ] final  177.94 input    0.00 | X-H torsion
[ 13535 3502 3501 3500 ] final  140.32 input    0.00 | X-H torsion
[ 13543 12828 12827 12826 ] final  163.94 input   -0.00 | X-H torsion

> <Gold.Protein.ActiveResidues>
 TRP311  MET341  HIS342  TRP414  ALA417  ARG419  CYS420  VAL421  GLY422  LEU460 
 SER462  SER482  GLN483  ARG486  ALA502  TYR567  GLY568  LEU569  PRO570  ALA571 
 VAL572  SER573  ASN574  MET575  LEU576  PHE589  SER590  GLY591  TRP592  TYR593 
 MET594  GLY595  GLU597  ILE598  ARG601  ASP602  ARG608  ILE653  VAL654  TRP683 
 PHE709  GLU710  TYR711  GLN712  ASP714  HEM750  H4B760 

> <Gold.Protein.RotatedAtoms>
  120.3006  252.4131  329.1243 H   0  0  0  0  0  0  0  0  0  0  0  0  # atno 3554 bound_to 3542
  121.6500  248.5495  330.0822 H   0  0  0  0  0  0  0  0  0  0  0  0  # atno 3579 bound_to 3563
  123.8632  247.4242  328.3337 H   0  0  0  0  0  0  0  0  0  0  0  0  # atno 3599 bound_to 3592
  126.2457  246.8751  318.7763 H   0  0  0  0  0  0  0  0  0  0  0  0  # atno 4901 bound_to 4888
  106.2174  243.0666  321.5970 H   0  0  0  0  0  0  0  0  0  0  0  0  # atno 5556 bound_to 5551
  108.8966  243.7887  319.8511 H   0  0  0  0  0  0  0  0  0  0  0  0  # atno 5580 bound_to 5571
  114.9457  242.5832  319.3463 H   0  0  0  0  0  0  0  0  0  0  0  0  # atno 8434 bound_to 8429
  114.7147  245.8343  317.9701 H   0  0  0  0  0  0  0  0  0  0  0  0  # atno 8458 bound_to 8451
  111.1740  246.4271  318.3643 H   0  0  0  0  0  0  0  0  0  0  0  0  # atno 8491 bound_to 8482
  109.7959  249.1347  317.6042 H   0  0  0  0  0  0  0  0  0  0  0  0  # atno 8520 bound_to 8506
  109.6471  251.6853  318.6774 H   0  0  0  0  0  0  0  0  0  0  0  0  # atno 8551 bound_to 8534
  109.5722  254.8980  319.9371 H   0  0  0  0  0  0  0  0  0  0  0  0  # atno 8587 bound_to 8568
  115.3096  248.0448  315.8841 H   0  0  0  0  0  0  0  0  0  0  0  0  # atno 8954 bound_to 8943
  119.4334  247.7590  317.0854 H   0  0  0  0  0  0  0  0  0  0  0  0  # atno 8984 bound_to 8978
  119.7606  243.8226  314.8240 H   0  0  0  0  0  0  0  0  0  0  0  0  # atno 8988 bound_to 8983
  120.4631  244.1927  318.2010 H   0  0  0  0  0  0  0  0  0  0  0  0  # atno 9002 bound_to 8998
  123.3369  243.2667  321.2571 H   0  0  0  0  0  0  0  0  0  0  0  0  # atno 9036 bound_to 9022
  121.5064  239.5589  322.0435 H   0  0  0  0  0  0  0  0  0  0  0  0  # atno 9087 bound_to 9068
  114.7724  239.3623  322.8671 H   0  0  0  0  0  0  0  0  0  0  0  0  # atno 9095 bound_to 9079
  122.0237  239.4708  325.6913 H   0  0  0  0  0  0  0  0  0  0  0  0  # atno 9123 bound_to 9106
  122.2250  237.6713  327.7036 H   0  0  0  0  0  0  0  0  0  0  0  0  # atno 9143 bound_to 9136
  118.6297  237.7563  329.5515 H   0  0  0  0  0  0  0  0  0  0  0  0  # atno 9198 bound_to 9183
  116.4717  237.4776  327.9189 H   0  0  0  0  0  0  0  0  0  0  0  0  # atno 9231 bound_to 9212
  125.8110  236.9560  325.8521 H   0  0  0  0  0  0  0  0  0  0  0  0  # atno 11056 bound_to 11049
  110.2601  255.8088  325.2564 H   0  0  0  0  0  0  0  0  0  0  0  0  # atno 12879 bound_to 12858
  110.9163  251.8409  330.0146 H   0  0  0  0  0  0  0  0  0  0  0  0  # atno 12887 bound_to 12869
  107.0804  255.7873  323.4928 H   0  0  0  0  0  0  0  0  0  0  0  0  # atno 12914 bound_to 12897
  108.9983  253.8170  331.3236 LP  0  0  0  0  0  0  0  0  0  0  0  0  # atno 13465 bound_to 1235
  109.8846  254.3871  332.6982 LP  0  0  0  0  0  0  0  0  0  0  0  0  # atno 13466 bound_to 1235
  110.1820  246.2089  318.9227 LP  0  0  0  0  0  0  0  0  0  0  0  0  # atno 13468 bound_to 5549
  109.8329  246.0063  320.6070 LP  0  0  0  0  0  0  0  0  0  0  0  0  # atno 13469 bound_to 5549
  107.8254  243.2962  321.6998 LP  0  0  0  0  0  0  0  0  0  0  0  0  # atno 13470 bound_to 5551
  107.1271  243.0299  320.2479 LP  0  0  0  0  0  0  0  0  0  0  0  0  # atno 13471 bound_to 5551
  107.2970  251.6039  320.9461 LP  0  0  0  0  0  0  0  0  0  0  0  0  # atno 13472 bound_to 8509
  107.6523  252.9257  319.8847 LP  0  0  0  0  0  0  0  0  0  0  0  0  # atno 13473 bound_to 8509
  110.0515  250.8494  320.1538 LP  0  0  0  0  0  0  0  0  0  0  0  0  # atno 13474 bound_to 8534
  109.5771  256.9314  324.1055 LP  0  0  0  0  0  0  0  0  0  0  0  0  # atno 13475 bound_to 12858
  112.1747  252.3231  329.1021 LP  0  0  0  0  0  0  0  0  0  0  0  0  # atno 13476 bound_to 12869
  111.3510  250.9683  328.7114 LP  0  0  0  0  0  0  0  0  0  0  0  0  # atno 13477 bound_to 12869
  106.5941  254.1773  323.0175 LP  0  0  0  0  0  0  0  0  0  0  0  0  # atno 13478 bound_to 12897
  104.6340  252.9300  322.0655 LP  0  0  0  0  0  0  0  0  0  0  0  0  # atno 13479 bound_to 12900
  104.2163  253.2984  323.7055 LP  0  0  0  0  0  0  0  0  0  0  0  0  # atno 13480 bound_to 12900
  118.5811  243.1003  319.7182 LP  0  0  0  0  0  0  0  0  0  0  0  0  # atno 13492 bound_to 8406
  117.7903  243.9807  318.4535 LP  0  0  0  0  0  0  0  0  0  0  0  0  # atno 13493 bound_to 8406
  116.4382  242.1507  318.5495 LP  0  0  0  0  0  0  0  0  0  0  0  0  # atno 13494 bound_to 8429
  114.9016  245.0260  319.5116 LP  0  0  0  0  0  0  0  0  0  0  0  0  # atno 13495 bound_to 8451
  116.8395  246.4893  318.5358 LP  0  0  0  0  0  0  0  0  0  0  0  0  # atno 13496 bound_to 8946
  115.8052  246.6568  317.1567 LP  0  0  0  0  0  0  0  0  0  0  0  0  # atno 13497 bound_to 8946
  120.3192  245.5486  319.2968 LP  0  0  0  0  0  0  0  0  0  0  0  0  # atno 13498 bound_to 8998
  121.3838  241.7245  318.5524 LP  0  0  0  0  0  0  0  0  0  0  0  0  # atno 13499 bound_to 9001
  122.9003  242.2079  317.8694 LP  0  0  0  0  0  0  0  0  0  0  0  0  # atno 13500 bound_to 9001
  122.1421  243.0014  320.0147 LP  0  0  0  0  0  0  0  0  0  0  0  0  # atno 13501 bound_to 9022
  122.9639  242.6383  323.3780 LP  0  0  0  0  0  0  0  0  0  0  0  0  # atno 13502 bound_to 9025
  121.2582  242.3635  323.4993 LP  0  0  0  0  0  0  0  0  0  0  0  0  # atno 13503 bound_to 9025
  122.8716  240.3054  322.8428 LP  0  0  0  0  0  0  0  0  0  0  0  0  # atno 13504 bound_to 9068
  123.5765  238.2030  324.9477 LP  0  0  0  0  0  0  0  0  0  0  0  0  # atno 13505 bound_to 9071
  124.2150  239.7554  325.3748 LP  0  0  0  0  0  0  0  0  0  0  0  0  # atno 13506 bound_to 9071
  114.5972  237.8731  323.4998 LP  0  0  0  0  0  0  0  0  0  0  0  0  # atno 13507 bound_to 9079
  114.9888  238.0531  321.9247 LP  0  0  0  0  0  0  0  0  0  0  0  0  # atno 13508 bound_to 9079
  121.1749  240.8019  326.4458 LP  0  0  0  0  0  0  0  0  0  0  0  0  # atno 13509 bound_to 9106
  119.7634  238.5899  329.0131 LP  0  0  0  0  0  0  0  0  0  0  0  0  # atno 13510 bound_to 9109
  119.8529  238.4419  327.2897 LP  0  0  0  0  0  0  0  0  0  0  0  0  # atno 13511 bound_to 9109
  118.1960  238.7422  330.9253 LP  0  0  0  0  0  0  0  0  0  0  0  0  # atno 13512 bound_to 9183
  124.2997  249.0957  328.0975 LP  0  0  0  0  0  0  0  0  0  0  0  0  # atno 13519 bound_to 3592
  117.9812  247.0887  316.3862 LP  0  0  0  0  0  0  0  0  0  0  0  0  # atno 13520 bound_to 8978
  122.2444  246.6487  317.9029 LP  0  0  0  0  0  0  0  0  0  0  0  0  # atno 13521 bound_to 8981
  121.3300  246.6406  316.4319 LP  0  0  0  0  0  0  0  0  0  0  0  0  # atno 13522 bound_to 8981
  120.3401  236.9154  320.1182 LP  0  0  0  0  0  0  0  0  0  0  0  0  # atno 13523 bound_to 8351
  120.5909  238.0792  318.8602 LP  0  0  0  0  0  0  0  0  0  0  0  0  # atno 13524 bound_to 8351
  122.6154  237.9223  329.3913 LP  0  0  0  0  0  0  0  0  0  0  0  0  # atno 13525 bound_to 9136
  125.6924  238.6176  325.3299 LP  0  0  0  0  0  0  0  0  0  0  0  0  # atno 13526 bound_to 11049
  125.4317  245.5752  318.2326 LP  0  0  0  0  0  0  0  0  0  0  0  0  # atno 13527 bound_to 4888
  124.6932  246.6542  319.2109 LP  0  0  0  0  0  0  0  0  0  0  0  0  # atno 13528 bound_to 4888
  120.6763  244.8903  315.6423 LP  0  0  0  0  0  0  0  0  0  0  0  0  # atno 13529 bound_to 8983
  119.4335  245.4132  314.7210 LP  0  0  0  0  0  0  0  0  0  0  0  0  # atno 13530 bound_to 8983
  113.4606  249.1944  318.0099 LP  0  0  0  0  0  0  0  0  0  0  0  0  # atno 13531 bound_to 8454
  114.2934  247.8690  317.2686 LP  0  0  0  0  0  0  0  0  0  0  0  0  # atno 13532 bound_to 8454
  112.3646  244.9231  317.7747 LP  0  0  0  0  0  0  0  0  0  0  0  0  # atno 13533 bound_to 8432
  113.1471  243.6857  316.8493 LP  0  0  0  0  0  0  0  0  0  0  0  0  # atno 13534 bound_to 8432
  119.1079  249.1972  329.8970 LP  0  0  0  0  0  0  0  0  0  0  0  0  # atno 13535 bound_to 3502
  118.9049  249.6783  331.5484 LP  0  0  0  0  0  0  0  0  0  0  0  0  # atno 13536 bound_to 3502
  119.6339  251.1722  330.1564 LP  0  0  0  0  0  0  0  0  0  0  0  0  # atno 13537 bound_to 3542
  112.1700  247.8189  318.7099 LP  0  0  0  0  0  0  0  0  0  0  0  0  # atno 13538 bound_to 8482
  115.4485  249.7840  315.9714 LP  0  0  0  0  0  0  0  0  0  0  0  0  # atno 13539 bound_to 8943
  110.0458  248.6934  319.2743 LP  0  0  0  0  0  0  0  0  0  0  0  0  # atno 13541 bound_to 8506
  108.2817  243.9848  318.2242 LP  0  0  0  0  0  0  0  0  0  0  0  0  # atno 13542 bound_to 5571
  109.7078  254.8483  322.4630 LP  0  0  0  0  0  0  0  0  0  0  0  0  # atno 13543 bound_to 12828
  110.6566  256.0755  321.6924 LP  0  0  0  0  0  0  0  0  0  0  0  0  # atno 13544 bound_to 12828

> <Gold.Score>
     Fitness  S(hb_ext) S(vdw_ext)  S(hb_int)    S(int)      intcor
     32.08       1.91      23.08       0.00      -1.56      -0.76

> <Gold.Goldscore.Fitness>
32.0793

> <Gold.Goldscore.Internal.Vdw>
-1.8704

> <Gold.Goldscore.Internal.Torsion>
-0.4491

> <Gold.Goldscore.External.Vdw>
23.0760

> <Gold.Goldscore.Internal.HBond>
0.0000

> <Gold.Goldscore.External.HBond>
1.9107

> <Gold.Goldscore.Internal.Correction>
-0.7585

> <Gold.Goldscore.Hbonds>
donor molecule, donor type, donor heavy atom, donor atom, acceptor molecule, acceptor atom, score
      P1  H  5578  5587       L1    17  0.03
      P1  H  5571  5580       L1    17  0.25
      L1  H     8    22       P1  5549  0.68

> <Gold.Goldscore.Internal.Vdw.Weighted>
-1.8704

> <Gold.Goldscore.Internal.Torsion.Weighted>
-0.4491

> <Gold.Goldscore.External.Vdw.Weighted>
31.7296

> <Gold.Goldscore.Internal.HBond.Weighted>
0.0000

> <Gold.Goldscore.External.HBond.Weighted>
1.9107

> <Gold.Goldscore.Internal.Correction.Weighted>
-0.7585

> <Gold.Rescore>
     Score     S(PLP)   S(hbond)     S(cho)   S(metal)  DE(clash)   DE(tors)     intcor
     23.94     -26.22       0.00       0.00       0.00       1.68       0.29       ----

> <Gold.PLP.Fitness>
23.9439

> <Gold.PLP.PLP>
-26.2158

> <Gold.PLP.part.hbond>
-2.0000

> <Gold.PLP.part.metal>
0.0000

> <Gold.PLP.part.buried>
0.1197

> <Gold.PLP.part.nonpolar>
-27.5758

> <Gold.PLP.part.repulsive>
2.2181

> <Gold.PLP.ligand.clash>
1.6836

> <Gold.PLP.ligand.torsion>
0.2942

> <Gold.PLP.Chemscore.Hbond>
0.0000

> <Gold.PLP.Chemscore.CHOScore>
0.0000

> <Gold.PLP.Chemscore.Metal>
0.0000

> <Gold.Chemscore.Hbonds>
donor molecule, donor type, donor heavy atom, donor atom, acceptor molecule, acceptor atom, score
      L1  H     8    22       P1  5549  0.34

> <Gold.PLP.Chemscore.Internal.Correction>
   9.000000E+99

