#       Name:                CT1002167954
#       Creating user name   hitesit
#       Creation time:       Sun Apr 16 20:18:17 2023


#       File generated by GOLD software.
#

@<TRIPOS>MOLECULE
CT1002167954|ligand_prepared|mol2|1|dock6
    29    30     1
SMALL
NO_CHARGES


@<TRIPOS>ATOM
      1 C1         111.7018 246.1898 325.3504 C.3            1 RES1               0.0000
      2 C2         113.1517 245.7480 325.0651 C.ar           1 RES1               0.0000
      3 C3         111.7879 247.2826 326.4118 C.2            1 RES1               0.0000
      4 C4         111.1292 246.6604 324.0180 C.2            1 RES1               0.0000
      5 C5         110.7968 245.0557 325.8854 C.3            1 RES1               0.0000
      6 C6         113.4230 244.4640 324.6020 C.ar           1 RES1               0.0000
      7 C7         114.2260 246.6125 325.2573 C.ar           1 RES1               0.0000
      8 N8         111.5678 248.5685 326.0141 N.am           1 RES1               0.0000
      9 O9         112.0834 247.0246 327.5721 O.2            1 RES1               0.0000
     10 N10        110.8080 247.9864 323.8896 N.am           1 RES1               0.0000
     11 O11        110.9687 245.8982 323.0727 O.2            1 RES1               0.0000
     12 C12        109.4602 245.5405 326.4245 C.3            1 RES1               0.0000
     13 C13        114.7211 244.0598 324.3378 C.ar           1 RES1               0.0000
     14 C14        115.5235 246.2061 324.9927 C.ar           1 RES1               0.0000
     15 C15        111.0301 248.9676 324.8170 C.2            1 RES1               0.0000
     16 C16        115.7721 244.9305 324.5324 C.ar           1 RES1               0.0000
     17 O17        110.7641 250.1476 324.6073 O.2            1 RES1               0.0000
     18 H18        110.6120 244.3395 325.0753 H              1 RES1               0.0000
     19 H19        111.3292 244.5268 326.6856 H              1 RES1               0.0000
     20 H20        112.6091 243.7641 324.4452 H              1 RES1               0.0000
     21 H21        114.0543 247.6203 325.6197 H              1 RES1               0.0000
     22 H22        111.8271 249.3010 326.6672 H              1 RES1               0.0000
     23 H23        110.3620 248.2680 323.0223 H              1 RES1               0.0000
     24 H24        108.8646 244.7052 326.7869 H              1 RES1               0.0000
     25 H25        109.6059 246.2357 327.2487 H              1 RES1               0.0000
     26 H26        108.8929 246.0495 325.6480 H              1 RES1               0.0000
     27 H27        114.9116 243.0543 323.9770 H              1 RES1               0.0000
     28 H28        116.3476 246.8946 325.1479 H              1 RES1               0.0000
     29 H29        116.7888 244.6137 324.3250 H              1 RES1               0.0000
@<TRIPOS>BOND
    1    1    2 1     
    2    1    3 1     
    3    1    4 1     
    4    1    5 1     
    5    2    6 ar    
    6    2    7 ar    
    7    3    8 1     
    8    3    9 2     
    9    4   10 1     
   10    4   11 2     
   11    5   12 1     
   12    5   18 1     
   13    5   19 1     
   14    6   13 ar    
   15    6   20 1     
   16    7   14 ar    
   17    7   21 1     
   18    8   15 1     
   19    8   22 1     
   20   10   15 1     
   21   10   23 1     
   22   12   24 1     
   23   12   25 1     
   24   12   26 1     
   25   13   16 ar    
   26   13   27 1     
   27   14   16 ar    
   28   14   28 1     
   29   15   17 2     
   30   16   29 1     
@<TRIPOS>SUBSTRUCTURE
      1 RES1           1
@<TRIPOS>SET
DONOR_HYDROGENS      STATIC     ATOMS    <user>   **** ""
2 22 23
ATOM$RED        STATIC     ATOMS    COLORGROUP SYSTEM
2 22 23
@<TRIPOS>COMMENT
> <Gold.Version>
2022.3.0

> <Gold.Id.Protein>
unknown|5adg_clean|pdb

> <Gold.Protein.RotatedTorsions>
[ 5556 5551 5550 5547 ] final -153.68 input   60.01 | X-H torsion
[ 8551 8534 8535 8536 ] final   44.38 input   85.39 | X-H torsion
[ 12879 12858 12859 12860 ] final   43.77 input  110.07 | X-H torsion
[ 12887 12869 12868 12866 ] final -139.90 input   59.97 | X-H torsion
[ 12914 12897 12898 12899 ] final  -71.13 input   35.92 | X-H torsion
[ 8434 8429 8430 8431 ] final  -45.60 input   45.97 | X-H torsion
[ 8458 8451 8452 8453 ] final   40.76 input  104.20 | X-H torsion
[ 9002 8998 8999 9000 ] final  -94.65 input   46.10 | X-H torsion
[ 9036 9022 9023 9024 ] final  -44.07 input   36.28 | X-H torsion
[ 9087 9068 9069 9070 ] final   68.98 input   95.83 | X-H torsion
[ 9095 9079 9078 9076 ] final  -99.07 input   59.97 | X-H torsion
[ 9123 9106 9107 9108 ] final   94.16 input   84.45 | X-H torsion
[ 9198 9183 9184 9185 ] final   65.54 input  123.29 | X-H torsion
[ 3599 3592 3593 3594 ] final  -39.54 input   84.32 | X-H torsion
[ 8984 8978 8979 8980 ] final  -90.13 input   29.51 | X-H torsion
[ 9143 9136 9137 9138 ] final   41.16 input  134.07 | X-H torsion
[ 11056 11049 11050 11051 ] final  -14.15 input   56.26 | X-H torsion
[ 4901 4888 4887 4884 ] final   92.20 input   60.00 | X-H torsion
[ 8988 8983 8982 8979 ] final  155.49 input   59.98 | X-H torsion
[ 3554 3542 3543 3544 ] final -139.40 input   80.85 | X-H torsion
[ 8491 8482 8483 8484 ] final    4.36 input   54.31 | X-H torsion
[ 8954 8943 8944 8945 ] final -142.15 input   47.77 | X-H torsion
[ 8520 8506 8507 8508 ] final  -60.48 input   67.56 | X-H torsion
[ 5580 5571 5572 5573 ] final  133.12 input   48.82 | X-H torsion
[ 3579 3563 3564 3565 ] final   55.73 input  103.62 | X-H torsion
[ 9231 9212 9213 9214 ] final  159.21 input   91.82 | X-H torsion
[ 8587 8568 8569 8570 ] final  129.39 input   67.63 | X-H torsion
[ 13465 1235 1234 1233 ] final   91.29 input    0.00 | X-H torsion
[ 13468 5549 5548 5547 ] final  -83.09 input   -0.00 | X-H torsion
[ 13472 8509 8508 8507 ] final -114.02 input    0.00 | X-H torsion
[ 13479 12900 12899 12898 ] final   81.44 input   -0.00 | X-H torsion
[ 13492 8406 8405 8404 ] final  -43.77 input    0.00 | X-H torsion
[ 13496 8946 8945 8944 ] final  -84.59 input   -0.00 | X-H torsion
[ 13499 9001 9000 8999 ] final  161.51 input    0.00 | X-H torsion
[ 13502 9025 9024 9023 ] final -177.40 input    0.00 | X-H torsion
[ 13505 9071 9070 9069 ] final  -71.94 input    0.00 | X-H torsion
[ 13510 9109 9108 9107 ] final   32.11 input    0.00 | X-H torsion
[ 13521 8981 8980 8979 ] final  101.00 input   -0.00 | X-H torsion
[ 13523 8351 8350 8349 ] final   92.57 input   -0.00 | X-H torsion
[ 13531 8454 8453 8452 ] final  -76.20 input    0.00 | X-H torsion
[ 13533 8432 8431 8430 ] final  176.91 input    0.00 | X-H torsion
[ 13535 3502 3501 3500 ] final  -84.61 input    0.00 | X-H torsion
[ 13543 12828 12827 12826 ] final   37.71 input   -0.00 | X-H torsion

> <Gold.Protein.ActiveResidues>
 TRP311  MET341  HIS342  TRP414  ALA417  ARG419  CYS420  VAL421  GLY422  LEU460 
 SER462  SER482  GLN483  ARG486  ALA502  TYR567  GLY568  LEU569  PRO570  ALA571 
 VAL572  SER573  ASN574  MET575  LEU576  PHE589  SER590  GLY591  TRP592  TYR593 
 MET594  GLY595  GLU597  ILE598  ARG601  ASP602  ARG608  ILE653  VAL654  TRP683 
 PHE709  GLU710  TYR711  GLN712  ASP714  HEM750  H4B760 

> <Gold.Protein.RotatedAtoms>
  119.2190  251.3241  329.5575 H   0  0  0  0  0  0  0  0  0  0  0  0  # atno 3554 bound_to 3542
  122.0440  248.2963  328.9612 H   0  0  0  0  0  0  0  0  0  0  0  0  # atno 3579 bound_to 3563
  124.6320  248.8956  328.4757 H   0  0  0  0  0  0  0  0  0  0  0  0  # atno 3599 bound_to 3592
  126.3381  246.3801  318.4190 H   0  0  0  0  0  0  0  0  0  0  0  0  # atno 4901 bound_to 4888
  106.3544  243.1097  321.8038 H   0  0  0  0  0  0  0  0  0  0  0  0  # atno 5556 bound_to 5551
  108.7995  243.5064  319.7982 H   0  0  0  0  0  0  0  0  0  0  0  0  # atno 5580 bound_to 5571
  115.5015  242.8742  319.6358 H   0  0  0  0  0  0  0  0  0  0  0  0  # atno 8434 bound_to 8429
  115.1207  246.1603  318.3638 H   0  0  0  0  0  0  0  0  0  0  0  0  # atno 8458 bound_to 8451
  111.0565  247.5002  319.0435 H   0  0  0  0  0  0  0  0  0  0  0  0  # atno 8491 bound_to 8482
  110.1990  249.5631  317.9229 H   0  0  0  0  0  0  0  0  0  0  0  0  # atno 8520 bound_to 8506
  110.3918  251.4272  318.7492 H   0  0  0  0  0  0  0  0  0  0  0  0  # atno 8551 bound_to 8534
  109.6838  255.2195  320.4060 H   0  0  0  0  0  0  0  0  0  0  0  0  # atno 8587 bound_to 8568
  115.5637  249.2977  315.1501 H   0  0  0  0  0  0  0  0  0  0  0  0  # atno 8954 bound_to 8943
  118.4559  247.6958  317.5319 H   0  0  0  0  0  0  0  0  0  0  0  0  # atno 8984 bound_to 8978
  119.8463  243.7933  314.8882 H   0  0  0  0  0  0  0  0  0  0  0  0  # atno 8988 bound_to 8983
  120.6840  244.8934  317.9196 H   0  0  0  0  0  0  0  0  0  0  0  0  # atno 9002 bound_to 8998
  121.9566  243.2194  321.0252 H   0  0  0  0  0  0  0  0  0  0  0  0  # atno 9036 bound_to 9022
  122.5671  239.1319  322.4972 H   0  0  0  0  0  0  0  0  0  0  0  0  # atno 9087 bound_to 9068
  114.6997  237.5538  323.0787 H   0  0  0  0  0  0  0  0  0  0  0  0  # atno 9095 bound_to 9079
  121.0798  240.7407  326.4912 H   0  0  0  0  0  0  0  0  0  0  0  0  # atno 9123 bound_to 9106
  122.2782  238.0777  329.3943 H   0  0  0  0  0  0  0  0  0  0  0  0  # atno 9143 bound_to 9136
  118.6806  237.8320  329.5200 H   0  0  0  0  0  0  0  0  0  0  0  0  # atno 9198 bound_to 9183
  117.0736  237.1767  327.7855 H   0  0  0  0  0  0  0  0  0  0  0  0  # atno 9231 bound_to 9212
  125.2787  237.2811  326.1264 H   0  0  0  0  0  0  0  0  0  0  0  0  # atno 11056 bound_to 11049
  109.3897  257.0711  324.8200 H   0  0  0  0  0  0  0  0  0  0  0  0  # atno 12879 bound_to 12858
  111.0697  252.0517  330.0478 H   0  0  0  0  0  0  0  0  0  0  0  0  # atno 12887 bound_to 12869
  106.4317  255.1586  324.0176 H   0  0  0  0  0  0  0  0  0  0  0  0  # atno 12914 bound_to 12897
  109.1631  253.5191  331.4341 LP  0  0  0  0  0  0  0  0  0  0  0  0  # atno 13465 bound_to 1235
  109.7198  254.6850  332.5877 LP  0  0  0  0  0  0  0  0  0  0  0  0  # atno 13466 bound_to 1235
  109.8866  246.5007  319.0027 LP  0  0  0  0  0  0  0  0  0  0  0  0  # atno 13468 bound_to 5549
  110.1282  245.7145  320.5270 LP  0  0  0  0  0  0  0  0  0  0  0  0  # atno 13469 bound_to 5549
  107.9383  243.2850  321.4731 LP  0  0  0  0  0  0  0  0  0  0  0  0  # atno 13470 bound_to 5551
  106.8764  242.9977  320.2663 LP  0  0  0  0  0  0  0  0  0  0  0  0  # atno 13471 bound_to 5551
  107.5873  252.8887  319.8254 LP  0  0  0  0  0  0  0  0  0  0  0  0  # atno 13472 bound_to 8509
  107.3620  251.6409  321.0054 LP  0  0  0  0  0  0  0  0  0  0  0  0  # atno 13473 bound_to 8509
  109.3151  251.1046  320.0828 LP  0  0  0  0  0  0  0  0  0  0  0  0  # atno 13474 bound_to 8534
  110.4286  255.6964  324.5325 LP  0  0  0  0  0  0  0  0  0  0  0  0  # atno 13475 bound_to 12858
  112.2175  252.1591  328.8990 LP  0  0  0  0  0  0  0  0  0  0  0  0  # atno 13476 bound_to 12869
  111.1538  250.9201  328.8811 LP  0  0  0  0  0  0  0  0  0  0  0  0  # atno 13477 bound_to 12869
  107.2271  254.7907  322.5055 LP  0  0  0  0  0  0  0  0  0  0  0  0  # atno 13478 bound_to 12897
  104.4932  253.3479  323.7166 LP  0  0  0  0  0  0  0  0  0  0  0  0  # atno 13479 bound_to 12900
  104.3571  252.8805  322.0544 LP  0  0  0  0  0  0  0  0  0  0  0  0  # atno 13480 bound_to 12900
  118.3615  243.4111  319.9239 LP  0  0  0  0  0  0  0  0  0  0  0  0  # atno 13492 bound_to 8406
  118.0099  243.6698  318.2478 LP  0  0  0  0  0  0  0  0  0  0  0  0  # atno 13493 bound_to 8406
  115.8927  241.8651  318.2653 LP  0  0  0  0  0  0  0  0  0  0  0  0  # atno 13494 bound_to 8429
  114.5088  244.7105  319.1306 LP  0  0  0  0  0  0  0  0  0  0  0  0  # atno 13495 bound_to 8451
  116.4553  247.0635  318.5476 LP  0  0  0  0  0  0  0  0  0  0  0  0  # atno 13496 bound_to 8946
  116.1893  246.0827  317.1450 LP  0  0  0  0  0  0  0  0  0  0  0  0  # atno 13497 bound_to 8946
  120.1047  244.8683  319.5700 LP  0  0  0  0  0  0  0  0  0  0  0  0  # atno 13498 bound_to 8998
  122.5912  241.3572  318.6320 LP  0  0  0  0  0  0  0  0  0  0  0  0  # atno 13499 bound_to 9001
  121.6929  242.5752  317.7898 LP  0  0  0  0  0  0  0  0  0  0  0  0  # atno 13500 bound_to 9001
  123.5063  243.0481  320.2439 LP  0  0  0  0  0  0  0  0  0  0  0  0  # atno 13501 bound_to 9022
  121.8881  242.0091  324.1157 LP  0  0  0  0  0  0  0  0  0  0  0  0  # atno 13502 bound_to 9025
  122.3340  242.9927  322.7616 LP  0  0  0  0  0  0  0  0  0  0  0  0  # atno 13503 bound_to 9025
  121.8408  240.7204  322.4019 LP  0  0  0  0  0  0  0  0  0  0  0  0  # atno 13504 bound_to 9068
  123.5828  238.1750  325.0887 LP  0  0  0  0  0  0  0  0  0  0  0  0  # atno 13505 bound_to 9071
  124.2087  239.7834  325.2338 LP  0  0  0  0  0  0  0  0  0  0  0  0  # atno 13506 bound_to 9071
  115.0104  238.5892  321.8620 LP  0  0  0  0  0  0  0  0  0  0  0  0  # atno 13507 bound_to 9079
  114.6489  239.1579  323.3495 LP  0  0  0  0  0  0  0  0  0  0  0  0  # atno 13508 bound_to 9079
  122.0898  239.5711  325.6705 LP  0  0  0  0  0  0  0  0  0  0  0  0  # atno 13509 bound_to 9106
  119.8671  239.0207  327.4501 LP  0  0  0  0  0  0  0  0  0  0  0  0  # atno 13510 bound_to 9109
  119.7492  238.0112  328.8526 LP  0  0  0  0  0  0  0  0  0  0  0  0  # atno 13511 bound_to 9109
  118.1460  238.6678  330.9563 LP  0  0  0  0  0  0  0  0  0  0  0  0  # atno 13512 bound_to 9183
  123.5391  247.6398  327.9571 LP  0  0  0  0  0  0  0  0  0  0  0  0  # atno 13519 bound_to 3592
  118.9431  247.1509  315.9468 LP  0  0  0  0  0  0  0  0  0  0  0  0  # atno 13520 bound_to 8978
  121.7413  247.1931  317.8361 LP  0  0  0  0  0  0  0  0  0  0  0  0  # atno 13521 bound_to 8981
  121.8331  246.0962  316.4988 LP  0  0  0  0  0  0  0  0  0  0  0  0  # atno 13522 bound_to 8981
  121.0182  237.5485  318.8243 LP  0  0  0  0  0  0  0  0  0  0  0  0  # atno 13523 bound_to 8351
  119.9129  237.4461  320.1540 LP  0  0  0  0  0  0  0  0  0  0  0  0  # atno 13524 bound_to 8351
  122.5640  237.5293  327.7568 LP  0  0  0  0  0  0  0  0  0  0  0  0  # atno 13525 bound_to 9136
  126.2151  238.2983  325.0605 LP  0  0  0  0  0  0  0  0  0  0  0  0  # atno 13526 bound_to 11049
  124.8772  245.6676  318.4988 LP  0  0  0  0  0  0  0  0  0  0  0  0  # atno 13527 bound_to 4888
  125.1546  247.0605  319.3047 LP  0  0  0  0  0  0  0  0  0  0  0  0  # atno 13528 bound_to 4888
  120.6489  244.9980  315.6314 LP  0  0  0  0  0  0  0  0  0  0  0  0  # atno 13529 bound_to 8983
  119.3747  245.3350  314.6673 LP  0  0  0  0  0  0  0  0  0  0  0  0  # atno 13530 bound_to 8983
  113.8778  249.0237  318.3519 LP  0  0  0  0  0  0  0  0  0  0  0  0  # atno 13531 bound_to 8454
  113.8762  248.0397  316.9266 LP  0  0  0  0  0  0  0  0  0  0  0  0  # atno 13532 bound_to 8454
  112.3616  244.9127  317.7859 LP  0  0  0  0  0  0  0  0  0  0  0  0  # atno 13533 bound_to 8432
  113.1501  243.6961  316.8381 LP  0  0  0  0  0  0  0  0  0  0  0  0  # atno 13534 bound_to 8432
  119.5337  249.5314  331.4033 LP  0  0  0  0  0  0  0  0  0  0  0  0  # atno 13535 bound_to 3502
  118.4791  249.3442  330.0421 LP  0  0  0  0  0  0  0  0  0  0  0  0  # atno 13536 bound_to 3502
  120.6952  252.2407  329.7313 LP  0  0  0  0  0  0  0  0  0  0  0  0  # atno 13537 bound_to 3542
  112.2853  246.7661  318.0436 LP  0  0  0  0  0  0  0  0  0  0  0  0  # atno 13538 bound_to 8482
  115.1998  248.5574  316.6899 LP  0  0  0  0  0  0  0  0  0  0  0  0  # atno 13539 bound_to 8943
  109.6494  248.2721  318.9609 LP  0  0  0  0  0  0  0  0  0  0  0  0  # atno 13541 bound_to 8506
  108.3757  244.2580  318.2754 LP  0  0  0  0  0  0  0  0  0  0  0  0  # atno 13542 bound_to 5571
  111.0449  255.4699  322.0021 LP  0  0  0  0  0  0  0  0  0  0  0  0  # atno 13543 bound_to 12828
  109.3196  255.4539  322.1532 LP  0  0  0  0  0  0  0  0  0  0  0  0  # atno 13544 bound_to 12828

> <Gold.Score>
     Fitness  S(hb_ext) S(vdw_ext)  S(hb_int)    S(int)      intcor
     41.00      12.02      21.70       0.00      -0.87      -0.76

> <Gold.Goldscore.Fitness>
41.0012

> <Gold.Goldscore.Internal.Vdw>
-1.0450

> <Gold.Goldscore.Internal.Torsion>
-0.5798

> <Gold.Goldscore.External.Vdw>
21.7038

> <Gold.Goldscore.Internal.HBond>
0.0000

> <Gold.Goldscore.External.HBond>
12.0249

> <Gold.Goldscore.Internal.Correction>
-0.7585

> <Gold.Goldscore.Hbonds>
donor molecule, donor type, donor heavy atom, donor atom, acceptor molecule, acceptor atom, score
      P1  H  5578  5587       L1    11  0.01
      L1  H     8    22       P1 13316  1.00
      L1  H    10    23       P1  8513  1.00

> <Gold.Goldscore.Internal.Vdw.Weighted>
-1.0450

> <Gold.Goldscore.Internal.Torsion.Weighted>
-0.5798

> <Gold.Goldscore.External.Vdw.Weighted>
29.8427

> <Gold.Goldscore.Internal.HBond.Weighted>
0.0000

> <Gold.Goldscore.External.HBond.Weighted>
12.0249

> <Gold.Goldscore.Internal.Correction.Weighted>
-0.7585

> <Gold.Rescore>
     Score     S(PLP)   S(hbond)     S(cho)   S(metal)  DE(clash)   DE(tors)     intcor
     36.87     -33.58       1.86       0.00       0.00       0.00       1.14       ----

> <Gold.PLP.Fitness>
36.8744

> <Gold.PLP.PLP>
-33.5793

> <Gold.PLP.part.hbond>
-2.0000

> <Gold.PLP.part.metal>
0.0000

> <Gold.PLP.part.buried>
-5.6113

> <Gold.PLP.part.nonpolar>
-27.8414

> <Gold.PLP.part.repulsive>
0.7729

> <Gold.PLP.ligand.clash>
0.0000

> <Gold.PLP.ligand.torsion>
1.1354

> <Gold.PLP.Chemscore.Hbond>
1.8553

> <Gold.PLP.Chemscore.CHOScore>
0.0000

> <Gold.PLP.Chemscore.Metal>
0.0000

> <Gold.Chemscore.Hbonds>
donor molecule, donor type, donor heavy atom, donor atom, acceptor molecule, acceptor atom, score
      L1  H     8    22       P1 13316  0.62
      L1  H    10    23       P1  8513  1.00

> <Gold.PLP.Chemscore.Internal.Correction>
   9.000000E+99

