#       Name:                CT1002167954
#       Creating user name   hitesit
#       Creation time:       Sun Apr 16 20:18:16 2023


#       File generated by GOLD software.
#

@<TRIPOS>MOLECULE
CT1002167954|ligand_prepared|mol2|1|dock4
    29    30     1
SMALL
NO_CHARGES


@<TRIPOS>ATOM
      1 C1         110.5606 243.1317 327.3763 C.3            1 RES1               0.0000
      2 C2         111.6344 242.0310 327.2570 C.ar           1 RES1               0.0000
      3 C3         110.5706 243.5840 328.8335 C.2            1 RES1               0.0000
      4 C4         110.9538 244.2206 326.3842 C.2            1 RES1               0.0000
      5 C5         109.1336 242.6536 327.0202 C.3            1 RES1               0.0000
      6 C6         112.6688 241.9468 328.1842 C.ar           1 RES1               0.0000
      7 C7         111.6024 241.0928 326.2287 C.ar           1 RES1               0.0000
      8 N8         111.1254 244.7977 329.1146 N.am           1 RES1               0.0000
      9 O9         110.1343 242.8693 329.7275 O.2            1 RES1               0.0000
     10 N10        111.3177 245.4435 326.8839 N.am           1 RES1               0.0000
     11 O11        110.9677 244.0256 325.1750 O.2            1 RES1               0.0000
     12 C12        108.0532 243.6863 327.3004 C.3            1 RES1               0.0000
     13 C13        113.6346 240.9587 328.0886 C.ar           1 RES1               0.0000
     14 C14        112.5694 240.1056 326.1349 C.ar           1 RES1               0.0000
     15 C15        111.4509 245.7721 328.2055 C.2            1 RES1               0.0000
     16 C16        113.5854 240.0373 327.0643 C.ar           1 RES1               0.0000
     17 O17        111.8359 246.8772 328.5763 O.2            1 RES1               0.0000
     18 H18        109.1043 242.3920 325.9553 H              1 RES1               0.0000
     19 H19        108.9117 241.7458 327.5948 H              1 RES1               0.0000
     20 H20        112.7253 242.6646 328.9957 H              1 RES1               0.0000
     21 H21        110.8130 241.1280 325.4856 H              1 RES1               0.0000
     22 H22        111.3159 244.9996 330.0909 H              1 RES1               0.0000
     23 H23        111.5068 246.1770 326.2081 H              1 RES1               0.0000
     24 H24        107.0719 243.3002 327.0330 H              1 RES1               0.0000
     25 H25        108.0371 243.9512 328.3556 H              1 RES1               0.0000
     26 H26        108.2286 244.5936 326.7259 H              1 RES1               0.0000
     27 H27        114.4329 240.9101 328.8218 H              1 RES1               0.0000
     28 H28        112.5271 239.3829 325.3267 H              1 RES1               0.0000
     29 H29        114.3419 239.2631 326.9899 H              1 RES1               0.0000
@<TRIPOS>BOND
    1    1    2 1     
    2    1    3 1     
    3    1    4 1     
    4    1    5 1     
    5    2    6 ar    
    6    2    7 ar    
    7    3    8 1     
    8    3    9 2     
    9    4   10 1     
   10    4   11 2     
   11    5   12 1     
   12    5   18 1     
   13    5   19 1     
   14    6   13 ar    
   15    6   20 1     
   16    7   14 ar    
   17    7   21 1     
   18    8   15 1     
   19    8   22 1     
   20   10   15 1     
   21   10   23 1     
   22   12   24 1     
   23   12   25 1     
   24   12   26 1     
   25   13   16 ar    
   26   13   27 1     
   27   14   16 ar    
   28   14   28 1     
   29   15   17 2     
   30   16   29 1     
@<TRIPOS>SUBSTRUCTURE
      1 RES1           1
@<TRIPOS>SET
DONOR_HYDROGENS      STATIC     ATOMS    <user>   **** ""
2 22 23
ATOM$RED        STATIC     ATOMS    COLORGROUP SYSTEM
2 22 23
@<TRIPOS>COMMENT
> <Gold.Version>
2022.3.0

> <Gold.Id.Protein>
unknown|5adg_clean|pdb

> <Gold.Protein.RotatedTorsions>
[ 5556 5551 5550 5547 ] final   25.35 input   60.01 | X-H torsion
[ 8551 8534 8535 8536 ] final   26.48 input   85.39 | X-H torsion
[ 12879 12858 12859 12860 ] final  117.46 input  110.07 | X-H torsion
[ 12887 12869 12868 12866 ] final -177.29 input   59.97 | X-H torsion
[ 12914 12897 12898 12899 ] final  -59.18 input   35.92 | X-H torsion
[ 8434 8429 8430 8431 ] final    3.50 input   45.97 | X-H torsion
[ 8458 8451 8452 8453 ] final   95.67 input  104.20 | X-H torsion
[ 9002 8998 8999 9000 ] final -131.28 input   46.10 | X-H torsion
[ 9036 9022 9023 9024 ] final -100.47 input   36.28 | X-H torsion
[ 9087 9068 9069 9070 ] final   11.05 input   95.83 | X-H torsion
[ 9095 9079 9078 9076 ] final   35.78 input   59.97 | X-H torsion
[ 9123 9106 9107 9108 ] final  122.64 input   84.45 | X-H torsion
[ 9198 9183 9184 9185 ] final  -19.80 input  123.29 | X-H torsion
[ 3599 3592 3593 3594 ] final  112.77 input   84.32 | X-H torsion
[ 8984 8978 8979 8980 ] final   11.46 input   29.51 | X-H torsion
[ 9143 9136 9137 9138 ] final   36.17 input  134.07 | X-H torsion
[ 11056 11049 11050 11051 ] final   -6.85 input   56.26 | X-H torsion
[ 4901 4888 4887 4884 ] final -135.57 input   60.00 | X-H torsion
[ 8988 8983 8982 8979 ] final  -84.54 input   59.98 | X-H torsion
[ 3554 3542 3543 3544 ] final  179.83 input   80.85 | X-H torsion
[ 8491 8482 8483 8484 ] final  127.90 input   54.31 | X-H torsion
[ 8954 8943 8944 8945 ] final  -47.42 input   47.77 | X-H torsion
[ 8520 8506 8507 8508 ] final   64.56 input   67.56 | X-H torsion
[ 5580 5571 5572 5573 ] final   66.93 input   48.82 | X-H torsion
[ 3579 3563 3564 3565 ] final -168.06 input  103.62 | X-H torsion
[ 9231 9212 9213 9214 ] final  169.04 input   91.82 | X-H torsion
[ 8587 8568 8569 8570 ] final -161.34 input   67.63 | X-H torsion
[ 13465 1235 1234 1233 ] final  -77.67 input    0.00 | X-H torsion
[ 13468 5549 5548 5547 ] final   50.26 input   -0.00 | X-H torsion
[ 13472 8509 8508 8507 ] final   30.87 input    0.00 | X-H torsion
[ 13479 12900 12899 12898 ] final  155.66 input   -0.00 | X-H torsion
[ 13492 8406 8405 8404 ] final  144.72 input    0.00 | X-H torsion
[ 13496 8946 8945 8944 ] final -152.31 input   -0.00 | X-H torsion
[ 13499 9001 9000 8999 ] final  161.27 input    0.00 | X-H torsion
[ 13502 9025 9024 9023 ] final   68.38 input    0.00 | X-H torsion
[ 13505 9071 9070 9069 ] final   12.11 input    0.00 | X-H torsion
[ 13510 9109 9108 9107 ] final -162.27 input    0.00 | X-H torsion
[ 13521 8981 8980 8979 ] final   68.39 input   -0.00 | X-H torsion
[ 13523 8351 8350 8349 ] final  -14.57 input   -0.00 | X-H torsion
[ 13531 8454 8453 8452 ] final -132.14 input    0.00 | X-H torsion
[ 13533 8432 8431 8430 ] final -128.74 input    0.00 | X-H torsion
[ 13535 3502 3501 3500 ] final  177.89 input    0.00 | X-H torsion
[ 13543 12828 12827 12826 ] final   31.85 input   -0.00 | X-H torsion

> <Gold.Protein.ActiveResidues>
 TRP311  MET341  HIS342  TRP414  ALA417  ARG419  CYS420  VAL421  GLY422  LEU460 
 SER462  SER482  GLN483  ARG486  ALA502  TYR567  GLY568  LEU569  PRO570  ALA571 
 VAL572  SER573  ASN574  MET575  LEU576  PHE589  SER590  GLY591  TRP592  TYR593 
 MET594  GLY595  GLU597  ILE598  ARG601  ASP602  ARG608  ILE653  VAL654  TRP683 
 PHE709  GLU710  TYR711  GLN712  ASP714  HEM750  H4B760 

> <Gold.Protein.RotatedAtoms>
  119.2834  251.7168  329.0897 H   0  0  0  0  0  0  0  0  0  0  0  0  # atno 3554 bound_to 3542
  121.8154  249.2590  330.2859 H   0  0  0  0  0  0  0  0  0  0  0  0  # atno 3579 bound_to 3563
  123.4058  247.9715  327.7414 H   0  0  0  0  0  0  0  0  0  0  0  0  # atno 3599 bound_to 3592
  124.9850  246.9546  319.2963 H   0  0  0  0  0  0  0  0  0  0  0  0  # atno 4901 bound_to 4888
  107.7444  243.1527  320.5491 H   0  0  0  0  0  0  0  0  0  0  0  0  # atno 5556 bound_to 5551
  108.3797  243.0236  319.0672 H   0  0  0  0  0  0  0  0  0  0  0  0  # atno 5580 bound_to 5571
  114.9236  242.5574  319.3164 H   0  0  0  0  0  0  0  0  0  0  0  0  # atno 8434 bound_to 8429
  115.3690  246.0041  319.1299 H   0  0  0  0  0  0  0  0  0  0  0  0  # atno 8458 bound_to 8451
  111.5756  246.3532  318.1341 H   0  0  0  0  0  0  0  0  0  0  0  0  # atno 8491 bound_to 8482
  110.1420  248.8161  319.2928 H   0  0  0  0  0  0  0  0  0  0  0  0  # atno 8520 bound_to 8506
  110.1657  251.5437  318.6504 H   0  0  0  0  0  0  0  0  0  0  0  0  # atno 8551 bound_to 8534
  109.7621  254.6383  319.5850 H   0  0  0  0  0  0  0  0  0  0  0  0  # atno 8587 bound_to 8568
  115.3667  248.0998  315.6116 H   0  0  0  0  0  0  0  0  0  0  0  0  # atno 8954 bound_to 8943
  119.5537  247.6393  316.7253 H   0  0  0  0  0  0  0  0  0  0  0  0  # atno 8984 bound_to 8978
  119.3771  245.3299  314.6715 H   0  0  0  0  0  0  0  0  0  0  0  0  # atno 8988 bound_to 8983
  120.7085  245.4126  318.1219 H   0  0  0  0  0  0  0  0  0  0  0  0  # atno 9002 bound_to 8998
  121.9696  243.0539  320.2131 H   0  0  0  0  0  0  0  0  0  0  0  0  # atno 9036 bound_to 9022
  122.9897  239.8030  322.8273 H   0  0  0  0  0  0  0  0  0  0  0  0  # atno 9087 bound_to 9068
  114.7021  239.2819  323.1475 H   0  0  0  0  0  0  0  0  0  0  0  0  # atno 9095 bound_to 9079
  121.4428  240.9630  326.3917 H   0  0  0  0  0  0  0  0  0  0  0  0  # atno 9123 bound_to 9106
  122.2110  238.1071  329.3691 H   0  0  0  0  0  0  0  0  0  0  0  0  # atno 9143 bound_to 9136
  117.9847  237.5065  330.4338 H   0  0  0  0  0  0  0  0  0  0  0  0  # atno 9198 bound_to 9183
  116.9439  237.2558  327.7700 H   0  0  0  0  0  0  0  0  0  0  0  0  # atno 9231 bound_to 9212
  125.2130  237.3704  326.1421 H   0  0  0  0  0  0  0  0  0  0  0  0  # atno 11056 bound_to 11049
  109.7874  256.4124  325.5476 H   0  0  0  0  0  0  0  0  0  0  0  0  # atno 12879 bound_to 12858
  111.5240  252.4133  329.8956 H   0  0  0  0  0  0  0  0  0  0  0  0  # atno 12887 bound_to 12869
  106.3599  254.9901  323.9987 H   0  0  0  0  0  0  0  0  0  0  0  0  # atno 12914 bound_to 12897
  109.8040  254.5567  332.6527 LP  0  0  0  0  0  0  0  0  0  0  0  0  # atno 13465 bound_to 1235
  109.0789  253.6474  331.3691 LP  0  0  0  0  0  0  0  0  0  0  0  0  # atno 13466 bound_to 1235
  109.6588  246.2140  320.5504 LP  0  0  0  0  0  0  0  0  0  0  0  0  # atno 13468 bound_to 5549
  110.3561  246.0012  318.9793 LP  0  0  0  0  0  0  0  0  0  0  0  0  # atno 13469 bound_to 5549
  106.1666  242.9758  320.9071 LP  0  0  0  0  0  0  0  0  0  0  0  0  # atno 13470 bound_to 5551
  107.2490  243.2637  322.0954 LP  0  0  0  0  0  0  0  0  0  0  0  0  # atno 13471 bound_to 5551
  107.0391  251.5411  320.6068 LP  0  0  0  0  0  0  0  0  0  0  0  0  # atno 13472 bound_to 8509
  107.9101  252.9884  320.2240 LP  0  0  0  0  0  0  0  0  0  0  0  0  # atno 13473 bound_to 8509
  109.5386  250.9894  320.1806 LP  0  0  0  0  0  0  0  0  0  0  0  0  # atno 13474 bound_to 8534
  110.0395  256.3409  323.8205 LP  0  0  0  0  0  0  0  0  0  0  0  0  # atno 13475 bound_to 12858
  112.0959  251.6700  328.5656 LP  0  0  0  0  0  0  0  0  0  0  0  0  # atno 13476 bound_to 12869
  110.8181  251.0452  329.3677 LP  0  0  0  0  0  0  0  0  0  0  0  0  # atno 13477 bound_to 12869
  107.2971  254.9552  322.5239 LP  0  0  0  0  0  0  0  0  0  0  0  0  # atno 13478 bound_to 12897
  103.6236  253.0663  323.2099 LP  0  0  0  0  0  0  0  0  0  0  0  0  # atno 13479 bound_to 12900
  105.2267  253.1622  322.5610 LP  0  0  0  0  0  0  0  0  0  0  0  0  # atno 13480 bound_to 12900
  117.9381  243.7682  318.2878 LP  0  0  0  0  0  0  0  0  0  0  0  0  # atno 13492 bound_to 8406
  118.4333  243.3127  319.8839 LP  0  0  0  0  0  0  0  0  0  0  0  0  # atno 13493 bound_to 8406
  116.4599  242.1760  318.5788 LP  0  0  0  0  0  0  0  0  0  0  0  0  # atno 13494 bound_to 8429
  114.2685  244.8617  318.3894 LP  0  0  0  0  0  0  0  0  0  0  0  0  # atno 13495 bound_to 8451
  116.9122  246.2301  318.3796 LP  0  0  0  0  0  0  0  0  0  0  0  0  # atno 13496 bound_to 8946
  115.7324  246.9160  317.3129 LP  0  0  0  0  0  0  0  0  0  0  0  0  # atno 13497 bound_to 8946
  120.0809  244.3642  319.3736 LP  0  0  0  0  0  0  0  0  0  0  0  0  # atno 13498 bound_to 8998
  122.5943  241.3584  318.6304 LP  0  0  0  0  0  0  0  0  0  0  0  0  # atno 13499 bound_to 9001
  121.6898  242.5740  317.7914 LP  0  0  0  0  0  0  0  0  0  0  0  0  # atno 13500 bound_to 9001
  123.4935  243.2117  321.0465 LP  0  0  0  0  0  0  0  0  0  0  0  0  # atno 13501 bound_to 9022
  121.4428  242.7608  322.9530 LP  0  0  0  0  0  0  0  0  0  0  0  0  # atno 13502 bound_to 9025
  122.7793  242.2410  323.9242 LP  0  0  0  0  0  0  0  0  0  0  0  0  # atno 13503 bound_to 9025
  121.4300  240.0682  322.0811 LP  0  0  0  0  0  0  0  0  0  0  0  0  # atno 13504 bound_to 9068
  123.7995  238.9977  324.3008 LP  0  0  0  0  0  0  0  0  0  0  0  0  # atno 13505 bound_to 9071
  123.9920  238.9607  326.0217 LP  0  0  0  0  0  0  0  0  0  0  0  0  # atno 13506 bound_to 9071
  114.6467  237.6615  323.2899 LP  0  0  0  0  0  0  0  0  0  0  0  0  # atno 13507 bound_to 9079
  115.0100  238.3456  321.8523 LP  0  0  0  0  0  0  0  0  0  0  0  0  # atno 13508 bound_to 9079
  121.7380  239.3555  325.7669 LP  0  0  0  0  0  0  0  0  0  0  0  0  # atno 13509 bound_to 9106
  119.7510  237.8525  328.7051 LP  0  0  0  0  0  0  0  0  0  0  0  0  # atno 13510 bound_to 9109
  119.8653  239.1794  327.5977 LP  0  0  0  0  0  0  0  0  0  0  0  0  # atno 13511 bound_to 9109
  118.8295  238.9875  330.0587 LP  0  0  0  0  0  0  0  0  0  0  0  0  # atno 13512 bound_to 9183
  124.7523  248.5541  328.6836 LP  0  0  0  0  0  0  0  0  0  0  0  0  # atno 13519 bound_to 3592
  117.8627  247.2066  316.7405 LP  0  0  0  0  0  0  0  0  0  0  0  0  # atno 13520 bound_to 8978
  121.4109  247.3440  317.5127 LP  0  0  0  0  0  0  0  0  0  0  0  0  # atno 13521 bound_to 8981
  122.1635  245.9452  316.8221 LP  0  0  0  0  0  0  0  0  0  0  0  0  # atno 13522 bound_to 8981
  120.6402  236.7609  319.9101 LP  0  0  0  0  0  0  0  0  0  0  0  0  # atno 13523 bound_to 8351
  120.2909  238.2337  319.0682 LP  0  0  0  0  0  0  0  0  0  0  0  0  # atno 13524 bound_to 8351
  122.6290  237.5008  327.7811 LP  0  0  0  0  0  0  0  0  0  0  0  0  # atno 13525 bound_to 9136
  126.2797  238.2105  325.0450 LP  0  0  0  0  0  0  0  0  0  0  0  0  # atno 13526 bound_to 11049
  126.3587  246.5493  318.5239 LP  0  0  0  0  0  0  0  0  0  0  0  0  # atno 13527 bound_to 4888
  125.0361  245.6002  318.3958 LP  0  0  0  0  0  0  0  0  0  0  0  0  # atno 13528 bound_to 4888
  119.8474  243.7868  314.8856 LP  0  0  0  0  0  0  0  0  0  0  0  0  # atno 13529 bound_to 8983
  120.6487  244.9986  315.6313 LP  0  0  0  0  0  0  0  0  0  0  0  0  # atno 13530 bound_to 8983
  113.3179  249.1772  317.7836 LP  0  0  0  0  0  0  0  0  0  0  0  0  # atno 13531 bound_to 8454
  114.4360  247.8862  317.4948 LP  0  0  0  0  0  0  0  0  0  0  0  0  # atno 13532 bound_to 8454
  112.6584  245.1350  317.0871 LP  0  0  0  0  0  0  0  0  0  0  0  0  # atno 13533 bound_to 8432
  112.8533  243.4738  317.5368 LP  0  0  0  0  0  0  0  0  0  0  0  0  # atno 13534 bound_to 8432
  119.6040  249.1809  330.1510 LP  0  0  0  0  0  0  0  0  0  0  0  0  # atno 13535 bound_to 3502
  118.4088  249.6947  331.2944 LP  0  0  0  0  0  0  0  0  0  0  0  0  # atno 13536 bound_to 3502
  120.6320  251.8554  330.1903 LP  0  0  0  0  0  0  0  0  0  0  0  0  # atno 13537 bound_to 3542
  111.7760  247.8913  318.9357 LP  0  0  0  0  0  0  0  0  0  0  0  0  # atno 13538 bound_to 8482
  115.3927  249.7302  316.2381 LP  0  0  0  0  0  0  0  0  0  0  0  0  # atno 13539 bound_to 8943
  109.7055  249.0067  317.6137 LP  0  0  0  0  0  0  0  0  0  0  0  0  # atno 13541 bound_to 8506
  108.7818  244.7250  318.9826 LP  0  0  0  0  0  0  0  0  0  0  0  0  # atno 13542 bound_to 5571
  111.0359  255.5469  321.9594 LP  0  0  0  0  0  0  0  0  0  0  0  0  # atno 13543 bound_to 12828
  109.3285  255.3769  322.1959 LP  0  0  0  0  0  0  0  0  0  0  0  0  # atno 13544 bound_to 12828

> <Gold.Score>
     Fitness  S(hb_ext) S(vdw_ext)  S(hb_int)    S(int)      intcor
     28.95       5.38      17.95       0.00      -1.11      -0.78

> <Gold.Goldscore.Fitness>
28.9538

> <Gold.Goldscore.Internal.Vdw>
-1.4342

> <Gold.Goldscore.Internal.Torsion>
-0.4496

> <Gold.Goldscore.External.Vdw>
17.9507

> <Gold.Goldscore.Internal.HBond>
0.0000

> <Gold.Goldscore.External.HBond>
5.3801

> <Gold.Goldscore.Internal.Correction>
-0.7752

> <Gold.Goldscore.Hbonds>
donor molecule, donor type, donor heavy atom, donor atom, acceptor molecule, acceptor atom, score
      L1  H     8    22       P1 13424  0.90

> <Gold.Goldscore.Internal.Vdw.Weighted>
-1.4342

> <Gold.Goldscore.Internal.Torsion.Weighted>
-0.4496

> <Gold.Goldscore.External.Vdw.Weighted>
24.6822

> <Gold.Goldscore.Internal.HBond.Weighted>
0.0000

> <Gold.Goldscore.External.HBond.Weighted>
5.3801

> <Gold.Goldscore.Internal.Correction.Weighted>
-0.7752

> <Gold.Rescore>
     Score     S(PLP)   S(hbond)     S(cho)   S(metal)  DE(clash)   DE(tors)     intcor
     19.13     -19.27       0.70       0.00       0.00       1.73       0.27       ----

> <Gold.PLP.Fitness>
19.1258

> <Gold.PLP.PLP>
-19.2741

> <Gold.PLP.part.hbond>
-2.0000

> <Gold.PLP.part.metal>
0.0000

> <Gold.PLP.part.buried>
-0.9763

> <Gold.PLP.part.nonpolar>
-16.5963

> <Gold.PLP.part.repulsive>
0.2453

> <Gold.PLP.ligand.clash>
1.7274

> <Gold.PLP.ligand.torsion>
0.2664

> <Gold.PLP.Chemscore.Hbond>
0.7040

> <Gold.PLP.Chemscore.CHOScore>
0.0000

> <Gold.PLP.Chemscore.Metal>
0.0000

> <Gold.Chemscore.Hbonds>
donor molecule, donor type, donor heavy atom, donor atom, acceptor molecule, acceptor atom, score
      L1  H     8    22       P1 13424  0.18
      P1  H  5578  5587       L1    11  0.08

> <Gold.PLP.Chemscore.Internal.Correction>
   9.000000E+99

