#       Name:                CT1002167954
#       Creating user name   hitesit
#       Creation time:       Sun Apr 16 20:18:13 2023


#       File generated by GOLD software.
#

@<TRIPOS>MOLECULE
CT1002167954|ligand_prepared|mol2|1|dock1
    29    30     1
SMALL
NO_CHARGES


@<TRIPOS>ATOM
      1 C1         117.5381 245.4532 323.5600 C.3            1 RES1               0.0000
      2 C2         116.3339 246.1811 324.1915 C.ar           1 RES1               0.0000
      3 C3         117.0670 244.9456 322.2003 C.2            1 RES1               0.0000
      4 C4         118.6647 246.4779 323.4853 C.2            1 RES1               0.0000
      5 C5         118.0430 244.2475 324.3864 C.3            1 RES1               0.0000
      6 C6         116.1449 247.5450 323.9896 C.ar           1 RES1               0.0000
      7 C7         115.4038 245.5028 324.9747 C.ar           1 RES1               0.0000
      8 N8         117.5211 245.5962 321.0910 N.am           1 RES1               0.0000
      9 O9         116.2780 244.0137 322.1045 O.2            1 RES1               0.0000
     10 N10        119.0942 246.8706 322.2447 N.am           1 RES1               0.0000
     11 O11        119.1730 246.9611 324.4895 O.2            1 RES1               0.0000
     12 C12        119.3877 243.7080 323.9251 C.3            1 RES1               0.0000
     13 C13        115.0636 248.2063 324.5480 C.ar           1 RES1               0.0000
     14 C14        114.3234 246.1661 325.5324 C.ar           1 RES1               0.0000
     15 C15        118.5526 246.4992 321.0443 C.2            1 RES1               0.0000
     16 C16        114.1520 247.5174 325.3193 C.ar           1 RES1               0.0000
     17 O17        118.9588 246.9377 319.9720 O.2            1 RES1               0.0000
     18 H18        118.1256 244.5497 325.4376 H              1 RES1               0.0000
     19 H19        117.3002 243.4424 324.3263 H              1 RES1               0.0000
     20 H20        116.8533 248.1043 323.3876 H              1 RES1               0.0000
     21 H21        115.5191 244.4397 325.1567 H              1 RES1               0.0000
     22 H22        117.0500 245.3926 320.2153 H              1 RES1               0.0000
     23 H23        119.8917 247.4978 322.2132 H              1 RES1               0.0000
     24 H24        119.6953 242.8634 324.5381 H              1 RES1               0.0000
     25 H25        119.3354 243.3746 322.8907 H              1 RES1               0.0000
     26 H26        120.1558 244.4754 323.9955 H              1 RES1               0.0000
     27 H27        114.9341 249.2702 324.3785 H              1 RES1               0.0000
     28 H28        113.6087 245.6201 326.1393 H              1 RES1               0.0000
     29 H29        113.3049 248.0357 325.7564 H              1 RES1               0.0000
@<TRIPOS>BOND
    1    1    2 1     
    2    1    3 1     
    3    1    4 1     
    4    1    5 1     
    5    2    6 ar    
    6    2    7 ar    
    7    3    8 1     
    8    3    9 2     
    9    4   10 1     
   10    4   11 2     
   11    5   12 1     
   12    5   18 1     
   13    5   19 1     
   14    6   13 ar    
   15    6   20 1     
   16    7   14 ar    
   17    7   21 1     
   18    8   15 1     
   19    8   22 1     
   20   10   15 1     
   21   10   23 1     
   22   12   24 1     
   23   12   25 1     
   24   12   26 1     
   25   13   16 ar    
   26   13   27 1     
   27   14   16 ar    
   28   14   28 1     
   29   15   17 2     
   30   16   29 1     
@<TRIPOS>SUBSTRUCTURE
      1 RES1           1
@<TRIPOS>SET
DONOR_HYDROGENS      STATIC     ATOMS    <user>   **** ""
2 22 23
ATOM$RED        STATIC     ATOMS    COLORGROUP SYSTEM
2 22 23
@<TRIPOS>COMMENT
> <Gold.Version>
2022.3.0

> <Gold.Id.Protein>
unknown|5adg_clean|pdb

> <Gold.Protein.RotatedTorsions>
[ 5556 5551 5550 5547 ] final -121.10 input   60.01 | X-H torsion
[ 8551 8534 8535 8536 ] final   -9.61 input   85.39 | X-H torsion
[ 12879 12858 12859 12860 ] final -123.26 input  110.07 | X-H torsion
[ 12887 12869 12868 12866 ] final  114.07 input   59.97 | X-H torsion
[ 12914 12897 12898 12899 ] final -117.99 input   35.92 | X-H torsion
[ 8434 8429 8430 8431 ] final  -73.04 input   45.97 | X-H torsion
[ 8458 8451 8452 8453 ] final -114.18 input  104.20 | X-H torsion
[ 9002 8998 8999 9000 ] final -145.04 input   46.10 | X-H torsion
[ 9036 9022 9023 9024 ] final  -72.79 input   36.28 | X-H torsion
[ 9087 9068 9069 9070 ] final  -19.21 input   95.83 | X-H torsion
[ 9095 9079 9078 9076 ] final   36.16 input   59.97 | X-H torsion
[ 9123 9106 9107 9108 ] final   44.61 input   84.45 | X-H torsion
[ 9198 9183 9184 9185 ] final -173.04 input  123.29 | X-H torsion
[ 3599 3592 3593 3594 ] final   81.84 input   84.32 | X-H torsion
[ 8984 8978 8979 8980 ] final -102.62 input   29.51 | X-H torsion
[ 9143 9136 9137 9138 ] final   -2.89 input  134.07 | X-H torsion
[ 11056 11049 11050 11051 ] final -172.79 input   56.26 | X-H torsion
[ 4901 4888 4887 4884 ] final  -75.69 input   60.00 | X-H torsion
[ 8988 8983 8982 8979 ] final   68.18 input   59.98 | X-H torsion
[ 3554 3542 3543 3544 ] final -148.78 input   80.85 | X-H torsion
[ 8491 8482 8483 8484 ] final -133.61 input   54.31 | X-H torsion
[ 8954 8943 8944 8945 ] final  -99.43 input   47.77 | X-H torsion
[ 8520 8506 8507 8508 ] final  103.28 input   67.56 | X-H torsion
[ 5580 5571 5572 5573 ] final   16.56 input   48.82 | X-H torsion
[ 3579 3563 3564 3565 ] final  171.75 input  103.62 | X-H torsion
[ 9231 9212 9213 9214 ] final -172.00 input   91.82 | X-H torsion
[ 8587 8568 8569 8570 ] final   43.87 input   67.63 | X-H torsion
[ 13465 1235 1234 1233 ] final   41.86 input    0.00 | X-H torsion
[ 13468 5549 5548 5547 ] final  -39.65 input   -0.00 | X-H torsion
[ 13472 8509 8508 8507 ] final  -46.52 input    0.00 | X-H torsion
[ 13479 12900 12899 12898 ] final  -67.41 input   -0.00 | X-H torsion
[ 13492 8406 8405 8404 ] final  106.33 input    0.00 | X-H torsion
[ 13496 8946 8945 8944 ] final   19.02 input   -0.00 | X-H torsion
[ 13499 9001 9000 8999 ] final  167.61 input    0.00 | X-H torsion
[ 13502 9025 9024 9023 ] final -109.15 input    0.00 | X-H torsion
[ 13505 9071 9070 9069 ] final  163.51 input    0.00 | X-H torsion
[ 13510 9109 9108 9107 ] final   91.43 input    0.00 | X-H torsion
[ 13521 8981 8980 8979 ] final  -46.26 input   -0.00 | X-H torsion
[ 13523 8351 8350 8349 ] final  -52.16 input   -0.00 | X-H torsion
[ 13531 8454 8453 8452 ] final   71.60 input    0.00 | X-H torsion
[ 13533 8432 8431 8430 ] final -124.66 input    0.00 | X-H torsion
[ 13535 3502 3501 3500 ] final   80.87 input    0.00 | X-H torsion
[ 13543 12828 12827 12826 ] final  -24.28 input   -0.00 | X-H torsion

> <Gold.Protein.ActiveResidues>
 TRP311  MET341  HIS342  TRP414  ALA417  ARG419  CYS420  VAL421  GLY422  LEU460 
 SER462  SER482  GLN483  ARG486  ALA502  TYR567  GLY568  LEU569  PRO570  ALA571 
 VAL572  SER573  ASN574  MET575  LEU576  PHE589  SER590  GLY591  TRP592  TYR593 
 MET594  GLY595  GLU597  ILE598  ARG601  ASP602  ARG608  ILE653  VAL654  TRP683 
 PHE709  GLU710  TYR711  GLN712  ASP714  HEM750  H4B760 

> <Gold.Protein.RotatedAtoms>
  119.1999  251.4002  329.4366 H   0  0  0  0  0  0  0  0  0  0  0  0  # atno 3554 bound_to 3542
  121.7141  248.9638  330.2764 H   0  0  0  0  0  0  0  0  0  0  0  0  # atno 3579 bound_to 3563
  123.4550  248.4211  327.6237 H   0  0  0  0  0  0  0  0  0  0  0  0  # atno 3599 bound_to 3592
  124.5650  246.1927  318.9551 H   0  0  0  0  0  0  0  0  0  0  0  0  # atno 4901 bound_to 4888
  106.1366  243.0246  321.3333 H   0  0  0  0  0  0  0  0  0  0  0  0  # atno 5556 bound_to 5551
  108.2113  243.3623  318.4113 H   0  0  0  0  0  0  0  0  0  0  0  0  # atno 5580 bound_to 5571
  115.9176  242.9025  319.6074 H   0  0  0  0  0  0  0  0  0  0  0  0  # atno 8434 bound_to 8429
  114.3145  244.6860  318.8034 H   0  0  0  0  0  0  0  0  0  0  0  0  # atno 8458 bound_to 8451
  112.4940  247.3138  318.2649 H   0  0  0  0  0  0  0  0  0  0  0  0  # atno 8491 bound_to 8482
  109.7877  248.3805  319.1344 H   0  0  0  0  0  0  0  0  0  0  0  0  # atno 8520 bound_to 8506
  109.6421  251.6859  318.6792 H   0  0  0  0  0  0  0  0  0  0  0  0  # atno 8551 bound_to 8534
  110.8343  255.3710  320.7317 H   0  0  0  0  0  0  0  0  0  0  0  0  # atno 8587 bound_to 8568
  115.5157  248.6586  315.0972 H   0  0  0  0  0  0  0  0  0  0  0  0  # atno 8954 bound_to 8943
  118.2841  247.6298  317.4789 H   0  0  0  0  0  0  0  0  0  0  0  0  # atno 8984 bound_to 8978
  120.6800  244.4707  315.6069 H   0  0  0  0  0  0  0  0  0  0  0  0  # atno 8988 bound_to 8983
  120.6849  245.5624  318.2711 H   0  0  0  0  0  0  0  0  0  0  0  0  # atno 9002 bound_to 8998
  121.8592  243.1348  320.6099 H   0  0  0  0  0  0  0  0  0  0  0  0  # atno 9036 bound_to 9022
  122.9115  240.2576  322.8689 H   0  0  0  0  0  0  0  0  0  0  0  0  # atno 9087 bound_to 9068
  114.7035  239.2845  323.1420 H   0  0  0  0  0  0  0  0  0  0  0  0  # atno 9095 bound_to 9079
  120.7818  240.0612  326.4273 H   0  0  0  0  0  0  0  0  0  0  0  0  # atno 9123 bound_to 9106
  121.7769  238.2406  328.9846 H   0  0  0  0  0  0  0  0  0  0  0  0  # atno 9143 bound_to 9136
  118.6559  239.0830  330.4110 H   0  0  0  0  0  0  0  0  0  0  0  0  # atno 9198 bound_to 9183
  116.6860  237.3900  327.8109 H   0  0  0  0  0  0  0  0  0  0  0  0  # atno 9231 bound_to 9212
  126.3897  238.0274  325.0287 H   0  0  0  0  0  0  0  0  0  0  0  0  # atno 11056 bound_to 11049
  110.4185  255.7339  324.3380 H   0  0  0  0  0  0  0  0  0  0  0  0  # atno 12879 bound_to 12858
  112.1774  252.3011  329.0737 H   0  0  0  0  0  0  0  0  0  0  0  0  # atno 12887 bound_to 12869
  106.8414  255.6802  323.7828 H   0  0  0  0  0  0  0  0  0  0  0  0  # atno 12914 bound_to 12897
  109.6146  253.2568  331.9358 LP  0  0  0  0  0  0  0  0  0  0  0  0  # atno 13465 bound_to 1235
  109.2683  254.9472  332.0860 LP  0  0  0  0  0  0  0  0  0  0  0  0  # atno 13466 bound_to 1235
  109.5117  246.7487  319.4596 LP  0  0  0  0  0  0  0  0  0  0  0  0  # atno 13468 bound_to 5549
  110.5032  245.4665  320.0701 LP  0  0  0  0  0  0  0  0  0  0  0  0  # atno 13469 bound_to 5549
  107.6356  243.2945  321.9068 LP  0  0  0  0  0  0  0  0  0  0  0  0  # atno 13470 bound_to 5551
  107.3982  243.0739  320.3063 LP  0  0  0  0  0  0  0  0  0  0  0  0  # atno 13471 bound_to 5551
  106.9663  252.1609  319.7220 LP  0  0  0  0  0  0  0  0  0  0  0  0  # atno 13472 bound_to 8509
  107.9829  252.3686  321.1088 LP  0  0  0  0  0  0  0  0  0  0  0  0  # atno 13473 bound_to 8509
  110.0564  250.8488  320.1521 LP  0  0  0  0  0  0  0  0  0  0  0  0  # atno 13474 bound_to 8534
  109.4221  257.0048  325.0040 LP  0  0  0  0  0  0  0  0  0  0  0  0  # atno 13475 bound_to 12858
  111.3238  250.9584  328.7317 LP  0  0  0  0  0  0  0  0  0  0  0  0  # atno 13476 bound_to 12869
  110.9324  251.8698  330.0290 LP  0  0  0  0  0  0  0  0  0  0  0  0  # atno 13477 bound_to 12869
  106.8273  254.2818  322.7346 LP  0  0  0  0  0  0  0  0  0  0  0  0  # atno 13478 bound_to 12897
  104.8077  252.9742  322.1213 LP  0  0  0  0  0  0  0  0  0  0  0  0  # atno 13479 bound_to 12900
  104.0426  253.2543  323.6497 LP  0  0  0  0  0  0  0  0  0  0  0  0  # atno 13480 bound_to 12900
  118.2822  243.3157  318.2551 LP  0  0  0  0  0  0  0  0  0  0  0  0  # atno 13492 bound_to 8406
  118.0892  243.7653  319.9166 LP  0  0  0  0  0  0  0  0  0  0  0  0  # atno 13493 bound_to 8406
  115.4843  241.8372  318.2932 LP  0  0  0  0  0  0  0  0  0  0  0  0  # atno 13494 bound_to 8429
  115.2888  246.1370  318.7054 LP  0  0  0  0  0  0  0  0  0  0  0  0  # atno 13495 bound_to 8451
  115.7244  247.0131  317.4003 LP  0  0  0  0  0  0  0  0  0  0  0  0  # atno 13496 bound_to 8946
  116.9202  246.1330  318.2922 LP  0  0  0  0  0  0  0  0  0  0  0  0  # atno 13497 bound_to 8946
  120.1039  244.2187  319.2287 LP  0  0  0  0  0  0  0  0  0  0  0  0  # atno 13498 bound_to 8998
  122.5111  241.3306  318.6689 LP  0  0  0  0  0  0  0  0  0  0  0  0  # atno 13499 bound_to 9001
  121.7730  242.6018  317.7529 LP  0  0  0  0  0  0  0  0  0  0  0  0  # atno 13500 bound_to 9001
  123.6026  243.1317  320.6544 LP  0  0  0  0  0  0  0  0  0  0  0  0  # atno 13501 bound_to 9022
  122.8022  242.2594  323.9013 LP  0  0  0  0  0  0  0  0  0  0  0  0  # atno 13502 bound_to 9025
  121.4199  242.7424  322.9760 LP  0  0  0  0  0  0  0  0  0  0  0  0  # atno 13503 bound_to 9025
  121.5061  239.6264  322.0406 LP  0  0  0  0  0  0  0  0  0  0  0  0  # atno 13504 bound_to 9068
  124.1261  239.3510  325.9087 LP  0  0  0  0  0  0  0  0  0  0  0  0  # atno 13505 bound_to 9071
  123.6654  238.6074  324.4138 LP  0  0  0  0  0  0  0  0  0  0  0  0  # atno 13506 bound_to 9071
  114.6455  237.6652  323.2949 LP  0  0  0  0  0  0  0  0  0  0  0  0  # atno 13507 bound_to 9079
  115.0098  238.3394  321.8529 LP  0  0  0  0  0  0  0  0  0  0  0  0  # atno 13508 bound_to 9079
  122.3787  240.2296  325.7324 LP  0  0  0  0  0  0  0  0  0  0  0  0  # atno 13509 bound_to 9106
  119.8382  238.1689  327.3585 LP  0  0  0  0  0  0  0  0  0  0  0  0  # atno 13510 bound_to 9109
  119.7781  238.8629  328.9443 LP  0  0  0  0  0  0  0  0  0  0  0  0  # atno 13511 bound_to 9109
  118.1702  237.4390  330.0811 LP  0  0  0  0  0  0  0  0  0  0  0  0  # atno 13512 bound_to 9183
  124.7036  248.1092  328.8001 LP  0  0  0  0  0  0  0  0  0  0  0  0  # atno 13519 bound_to 3592
  119.1120  247.2159  315.9990 LP  0  0  0  0  0  0  0  0  0  0  0  0  # atno 13520 bound_to 8978
  121.4870  246.4215  316.3863 LP  0  0  0  0  0  0  0  0  0  0  0  0  # atno 13521 bound_to 8981
  122.0874  246.8677  317.9485 LP  0  0  0  0  0  0  0  0  0  0  0  0  # atno 13522 bound_to 8981
  120.2184  237.0195  320.1679 LP  0  0  0  0  0  0  0  0  0  0  0  0  # atno 13523 bound_to 8351
  120.7127  237.9750  318.8104 LP  0  0  0  0  0  0  0  0  0  0  0  0  # atno 13524 bound_to 8351
  123.0487  237.3719  328.1528 LP  0  0  0  0  0  0  0  0  0  0  0  0  # atno 13525 bound_to 9136
  125.1240  237.5653  326.1386 LP  0  0  0  0  0  0  0  0  0  0  0  0  # atno 13526 bound_to 11049
  125.8835  247.1376  319.0842 LP  0  0  0  0  0  0  0  0  0  0  0  0  # atno 13527 bound_to 4888
  125.9343  245.7793  318.1791 LP  0  0  0  0  0  0  0  0  0  0  0  0  # atno 13528 bound_to 4888
  119.7169  245.6130  314.9623 LP  0  0  0  0  0  0  0  0  0  0  0  0  # atno 13529 bound_to 8983
  119.4670  244.0377  314.6124 LP  0  0  0  0  0  0  0  0  0  0  0  0  # atno 13530 bound_to 8983
  114.2362  247.8774  317.2001 LP  0  0  0  0  0  0  0  0  0  0  0  0  # atno 13531 bound_to 8454
  113.5178  249.1860  318.0784 LP  0  0  0  0  0  0  0  0  0  0  0  0  # atno 13532 bound_to 8454
  112.6882  245.1220  317.0346 LP  0  0  0  0  0  0  0  0  0  0  0  0  # atno 13533 bound_to 8432
  112.8234  243.4868  317.5893 LP  0  0  0  0  0  0  0  0  0  0  0  0  # atno 13534 bound_to 8432
  118.3273  249.4091  330.1860 LP  0  0  0  0  0  0  0  0  0  0  0  0  # atno 13535 bound_to 3502
  119.6855  249.4665  331.2594 LP  0  0  0  0  0  0  0  0  0  0  0  0  # atno 13536 bound_to 3502
  120.7139  252.1660  329.8499 LP  0  0  0  0  0  0  0  0  0  0  0  0  # atno 13537 bound_to 3542
  110.8750  246.9490  318.8074 LP  0  0  0  0  0  0  0  0  0  0  0  0  # atno 13538 bound_to 8482
  115.2468  249.1831  316.7417 LP  0  0  0  0  0  0  0  0  0  0  0  0  # atno 13539 bound_to 8943
  110.0539  249.4351  317.7694 LP  0  0  0  0  0  0  0  0  0  0  0  0  # atno 13541 bound_to 8506
  108.9447  244.3974  319.6171 LP  0  0  0  0  0  0  0  0  0  0  0  0  # atno 13542 bound_to 5571
  110.5485  256.1321  321.6693 LP  0  0  0  0  0  0  0  0  0  0  0  0  # atno 13543 bound_to 12828
  109.8160  254.7917  322.4860 LP  0  0  0  0  0  0  0  0  0  0  0  0  # atno 13544 bound_to 12828

> <Gold.Score>
     Fitness  S(hb_ext) S(vdw_ext)  S(hb_int)    S(int)      intcor
     61.08      10.65      37.00       0.00      -0.45      -0.81

> <Gold.Goldscore.Fitness>
61.0817

> <Gold.Goldscore.Internal.Vdw>
-0.6681

> <Gold.Goldscore.Internal.Torsion>
-0.5835

> <Gold.Goldscore.External.Vdw>
36.9992

> <Gold.Goldscore.Internal.HBond>
0.0000

> <Gold.Goldscore.External.HBond>
10.6534

> <Gold.Goldscore.Internal.Correction>
-0.8059

> <Gold.Goldscore.Hbonds>
donor molecule, donor type, donor heavy atom, donor atom, acceptor molecule, acceptor atom, score
      P1  H  8429  8434       L1     9  0.33
      P1  M 13332 13547       L1    11  1.00

> <Gold.Goldscore.Internal.Vdw.Weighted>
-0.6681

> <Gold.Goldscore.Internal.Torsion.Weighted>
-0.5835

> <Gold.Goldscore.External.Vdw.Weighted>
50.8739

> <Gold.Goldscore.Internal.HBond.Weighted>
0.0000

> <Gold.Goldscore.External.HBond.Weighted>
10.6534

> <Gold.Goldscore.Internal.Correction.Weighted>
-0.8059

> <Gold.Rescore>
     Score     S(PLP)   S(hbond)     S(cho)   S(metal)  DE(clash)   DE(tors)     intcor
     50.52     -46.66       0.08       0.00       1.00       0.00       1.18       ----

> <Gold.PLP.Fitness>
50.5248

> <Gold.PLP.PLP>
-46.6550

> <Gold.PLP.part.hbond>
-3.0000

> <Gold.PLP.part.metal>
-0.7653

> <Gold.PLP.part.buried>
12.5278

> <Gold.PLP.part.nonpolar>
-60.3388

> <Gold.PLP.part.repulsive>
2.6251

> <Gold.PLP.ligand.clash>
0.0000

> <Gold.PLP.ligand.torsion>
1.1809

> <Gold.PLP.Chemscore.Hbond>
0.0772

> <Gold.PLP.Chemscore.CHOScore>
0.0000

> <Gold.PLP.Chemscore.Metal>
1.0000

> <Gold.Chemscore.Hbonds>
donor molecule, donor type, donor heavy atom, donor atom, acceptor molecule, acceptor atom, score
      P1  M 13332 13332       L1    11  1.00

> <Gold.PLP.Chemscore.Internal.Correction>
   9.000000E+99

