#       Name:                CT1002167954
#       Creating user name   hitesit
#       Creation time:       Sun Apr 16 20:18:18 2023


#       File generated by GOLD software.
#

@<TRIPOS>MOLECULE
CT1002167954|ligand_prepared|mol2|1|dock7
    29    30     1
SMALL
NO_CHARGES


@<TRIPOS>ATOM
      1 C1         112.9678 241.9421 326.5986 C.3            1 RES1               0.0000
      2 C2         112.6955 243.3160 325.9527 C.ar           1 RES1               0.0000
      3 C3         111.6038 241.3590 326.9563 C.2            1 RES1               0.0000
      4 C4         113.7397 241.1300 325.5645 C.2            1 RES1               0.0000
      5 C5         113.8235 242.0148 327.8847 C.3            1 RES1               0.0000
      6 C6         113.6589 244.3196 325.9894 C.ar           1 RES1               0.0000
      7 C7         111.4890 243.5932 325.3155 C.ar           1 RES1               0.0000
      8 N8         111.1306 240.3391 326.1844 N.am           1 RES1               0.0000
      9 O9         110.9362 241.8134 327.8771 O.2            1 RES1               0.0000
     10 N10        113.1324 240.0219 325.0346 N.am           1 RES1               0.0000
     11 O11        114.8619 241.4492 325.1916 O.2            1 RES1               0.0000
     12 C12        113.9559 240.6845 328.6090 C.3            1 RES1               0.0000
     13 C13        113.4258 245.5547 325.4075 C.ar           1 RES1               0.0000
     14 C14        111.2579 244.8291 324.7344 C.ar           1 RES1               0.0000
     15 C15        111.8508 239.6071 325.2749 C.2            1 RES1               0.0000
     16 C16        112.2255 245.8101 324.7793 C.ar           1 RES1               0.0000
     17 O17        111.3567 238.6308 324.7183 O.2            1 RES1               0.0000
     18 H18        114.8257 242.3752 327.6220 H              1 RES1               0.0000
     19 H19        113.3728 242.7454 328.5678 H              1 RES1               0.0000
     20 H20        114.6086 244.1378 326.4814 H              1 RES1               0.0000
     21 H21        110.7129 242.8369 325.2689 H              1 RES1               0.0000
     22 H22        110.1505 240.0986 326.2933 H              1 RES1               0.0000
     23 H23        113.6870 239.4535 324.4024 H              1 RES1               0.0000
     24 H24        114.5656 240.7915 329.5038 H              1 RES1               0.0000
     25 H25        112.9794 240.3088 328.9073 H              1 RES1               0.0000
     26 H26        114.4237 239.9408 327.9672 H              1 RES1               0.0000
     27 H27        114.1901 246.3238 325.4467 H              1 RES1               0.0000
     28 H28        110.3115 245.0259 324.2416 H              1 RES1               0.0000
     29 H29        112.0433 246.7776 324.3232 H              1 RES1               0.0000
@<TRIPOS>BOND
    1    1    2 1     
    2    1    3 1     
    3    1    4 1     
    4    1    5 1     
    5    2    6 ar    
    6    2    7 ar    
    7    3    8 1     
    8    3    9 2     
    9    4   10 1     
   10    4   11 2     
   11    5   12 1     
   12    5   18 1     
   13    5   19 1     
   14    6   13 ar    
   15    6   20 1     
   16    7   14 ar    
   17    7   21 1     
   18    8   15 1     
   19    8   22 1     
   20   10   15 1     
   21   10   23 1     
   22   12   24 1     
   23   12   25 1     
   24   12   26 1     
   25   13   16 ar    
   26   13   27 1     
   27   14   16 ar    
   28   14   28 1     
   29   15   17 2     
   30   16   29 1     
@<TRIPOS>SUBSTRUCTURE
      1 RES1           1
@<TRIPOS>SET
DONOR_HYDROGENS      STATIC     ATOMS    <user>   **** ""
2 22 23
ATOM$RED        STATIC     ATOMS    COLORGROUP SYSTEM
2 22 23
@<TRIPOS>COMMENT
> <Gold.Version>
2022.3.0

> <Gold.Id.Protein>
unknown|5adg_clean|pdb

> <Gold.Protein.RotatedTorsions>
[ 5556 5551 5550 5547 ] final  -65.51 input   60.01 | X-H torsion
[ 8551 8534 8535 8536 ] final -162.94 input   85.39 | X-H torsion
[ 12879 12858 12859 12860 ] final   27.39 input  110.07 | X-H torsion
[ 12887 12869 12868 12866 ] final -125.28 input   59.97 | X-H torsion
[ 12914 12897 12898 12899 ] final   62.52 input   35.92 | X-H torsion
[ 8434 8429 8430 8431 ] final  -49.90 input   45.97 | X-H torsion
[ 8458 8451 8452 8453 ] final   97.11 input  104.20 | X-H torsion
[ 9002 8998 8999 9000 ] final -146.17 input   46.10 | X-H torsion
[ 9036 9022 9023 9024 ] final   55.32 input   36.28 | X-H torsion
[ 9087 9068 9069 9070 ] final -152.26 input   95.83 | X-H torsion
[ 9095 9079 9078 9076 ] final  -88.07 input   59.97 | X-H torsion
[ 9123 9106 9107 9108 ] final -171.14 input   84.45 | X-H torsion
[ 9198 9183 9184 9185 ] final  104.11 input  123.29 | X-H torsion
[ 3599 3592 3593 3594 ] final  133.01 input   84.32 | X-H torsion
[ 8984 8978 8979 8980 ] final  -70.48 input   29.51 | X-H torsion
[ 9143 9136 9137 9138 ] final  -31.63 input  134.07 | X-H torsion
[ 11056 11049 11050 11051 ] final  103.75 input   56.26 | X-H torsion
[ 4901 4888 4887 4884 ] final   47.06 input   60.00 | X-H torsion
[ 8988 8983 8982 8979 ] final  -75.17 input   59.98 | X-H torsion
[ 3554 3542 3543 3544 ] final  -93.92 input   80.85 | X-H torsion
[ 8491 8482 8483 8484 ] final   20.37 input   54.31 | X-H torsion
[ 8954 8943 8944 8945 ] final -151.49 input   47.77 | X-H torsion
[ 8520 8506 8507 8508 ] final   16.74 input   67.56 | X-H torsion
[ 5580 5571 5572 5573 ] final  159.44 input   48.82 | X-H torsion
[ 3579 3563 3564 3565 ] final  -31.37 input  103.62 | X-H torsion
[ 9231 9212 9213 9214 ] final -122.05 input   91.82 | X-H torsion
[ 8587 8568 8569 8570 ] final   28.02 input   67.63 | X-H torsion
[ 13465 1235 1234 1233 ] final   30.94 input    0.00 | X-H torsion
[ 13468 5549 5548 5547 ] final  104.10 input   -0.00 | X-H torsion
[ 13472 8509 8508 8507 ] final   -9.32 input    0.00 | X-H torsion
[ 13479 12900 12899 12898 ] final -149.40 input   -0.00 | X-H torsion
[ 13492 8406 8405 8404 ] final  -21.86 input    0.00 | X-H torsion
[ 13496 8946 8945 8944 ] final -103.88 input   -0.00 | X-H torsion
[ 13499 9001 9000 8999 ] final   40.35 input    0.00 | X-H torsion
[ 13502 9025 9024 9023 ] final    6.41 input    0.00 | X-H torsion
[ 13505 9071 9070 9069 ] final  -27.48 input    0.00 | X-H torsion
[ 13510 9109 9108 9107 ] final  105.73 input    0.00 | X-H torsion
[ 13521 8981 8980 8979 ] final  -13.62 input   -0.00 | X-H torsion
[ 13523 8351 8350 8349 ] final   40.25 input   -0.00 | X-H torsion
[ 13531 8454 8453 8452 ] final  101.43 input    0.00 | X-H torsion
[ 13533 8432 8431 8430 ] final -118.73 input    0.00 | X-H torsion
[ 13535 3502 3501 3500 ] final   77.36 input    0.00 | X-H torsion
[ 13543 12828 12827 12826 ] final -145.05 input   -0.00 | X-H torsion

> <Gold.Protein.ActiveResidues>
 TRP311  MET341  HIS342  TRP414  ALA417  ARG419  CYS420  VAL421  GLY422  LEU460 
 SER462  SER482  GLN483  ARG486  ALA502  TYR567  GLY568  LEU569  PRO570  ALA571 
 VAL572  SER573  ASN574  MET575  LEU576  PHE589  SER590  GLY591  TRP592  TYR593 
 MET594  GLY595  GLU597  ILE598  ARG601  ASP602  ARG608  ILE653  VAL654  TRP683 
 PHE709  GLU710  TYR711  GLN712  ASP714  HEM750  H4B760 

> <Gold.Protein.RotatedAtoms>
  119.5686  251.1565  330.1178 H   0  0  0  0  0  0  0  0  0  0  0  0  # atno 3554 bound_to 3542
  122.5165  249.4171  328.7937 H   0  0  0  0  0  0  0  0  0  0  0  0  # atno 3579 bound_to 3563
  123.4785  247.7153  327.8960 H   0  0  0  0  0  0  0  0  0  0  0  0  # atno 3599 bound_to 3592
  125.9662  245.8111  318.1858 H   0  0  0  0  0  0  0  0  0  0  0  0  # atno 4901 bound_to 4888
  106.4235  242.9672  320.5103 H   0  0  0  0  0  0  0  0  0  0  0  0  # atno 5556 bound_to 5551
  108.9221  243.8892  319.8471 H   0  0  0  0  0  0  0  0  0  0  0  0  # atno 5580 bound_to 5571
  115.5661  242.8867  319.6419 H   0  0  0  0  0  0  0  0  0  0  0  0  # atno 8434 bound_to 8429
  115.3690  245.9916  319.1485 H   0  0  0  0  0  0  0  0  0  0  0  0  # atno 8458 bound_to 8451
  110.9336  247.2966  318.9823 H   0  0  0  0  0  0  0  0  0  0  0  0  # atno 8491 bound_to 8482
  110.4331  249.3882  318.9816 H   0  0  0  0  0  0  0  0  0  0  0  0  # atno 8520 bound_to 8506
  109.6644  250.9237  320.2058 H   0  0  0  0  0  0  0  0  0  0  0  0  # atno 8551 bound_to 8534
  111.0378  255.2841  320.6272 H   0  0  0  0  0  0  0  0  0  0  0  0  # atno 8587 bound_to 8568
  115.5612  249.4219  315.2225 H   0  0  0  0  0  0  0  0  0  0  0  0  # atno 8954 bound_to 8943
  118.7460  247.7727  317.5383 H   0  0  0  0  0  0  0  0  0  0  0  0  # atno 8984 bound_to 8978
  119.4597  245.4347  314.7464 H   0  0  0  0  0  0  0  0  0  0  0  0  # atno 8988 bound_to 8983
  120.6822  245.5730  318.2847 H   0  0  0  0  0  0  0  0  0  0  0  0  # atno 9002 bound_to 8998
  123.2600  243.2796  321.3202 H   0  0  0  0  0  0  0  0  0  0  0  0  # atno 9036 bound_to 9022
  121.4524  240.3128  322.1503 H   0  0  0  0  0  0  0  0  0  0  0  0  # atno 9087 bound_to 9068
  114.6617  237.6321  323.2356 H   0  0  0  0  0  0  0  0  0  0  0  0  # atno 9095 bound_to 9079
  122.2666  240.7110  325.9444 H   0  0  0  0  0  0  0  0  0  0  0  0  # atno 9123 bound_to 9106
  121.6341  238.2098  328.5678 H   0  0  0  0  0  0  0  0  0  0  0  0  # atno 9143 bound_to 9136
  118.9026  238.3696  329.5233 H   0  0  0  0  0  0  0  0  0  0  0  0  # atno 9198 bound_to 9183
  116.1380  237.5443  328.3031 H   0  0  0  0  0  0  0  0  0  0  0  0  # atno 9231 bound_to 9212
  125.4871  238.6269  325.4762 H   0  0  0  0  0  0  0  0  0  0  0  0  # atno 11056 bound_to 11049
  109.4048  257.0893  324.5695 H   0  0  0  0  0  0  0  0  0  0  0  0  # atno 12879 bound_to 12858
  110.9289  251.8613  330.0202 H   0  0  0  0  0  0  0  0  0  0  0  0  # atno 12887 bound_to 12869
  106.8259  254.2714  322.7128 H   0  0  0  0  0  0  0  0  0  0  0  0  # atno 12914 bound_to 12897
  109.7091  253.2804  332.0689 LP  0  0  0  0  0  0  0  0  0  0  0  0  # atno 13465 bound_to 1235
  109.1738  254.9236  331.9529 LP  0  0  0  0  0  0  0  0  0  0  0  0  # atno 13466 bound_to 1235
  110.2015  245.6529  320.4759 LP  0  0  0  0  0  0  0  0  0  0  0  0  # atno 13468 bound_to 5549
  109.8133  246.5623  319.0538 LP  0  0  0  0  0  0  0  0  0  0  0  0  # atno 13469 bound_to 5549
  106.7794  243.1978  322.0816 LP  0  0  0  0  0  0  0  0  0  0  0  0  # atno 13470 bound_to 5551
  107.9657  243.2285  320.9599 LP  0  0  0  0  0  0  0  0  0  0  0  0  # atno 13471 bound_to 5551
  106.8687  251.7478  320.0755 LP  0  0  0  0  0  0  0  0  0  0  0  0  # atno 13472 bound_to 8509
  108.0805  252.7818  320.7553 LP  0  0  0  0  0  0  0  0  0  0  0  0  # atno 13473 bound_to 8509
  110.0343  251.6025  318.6424 LP  0  0  0  0  0  0  0  0  0  0  0  0  # atno 13474 bound_to 8534
  110.4139  255.6786  324.7775 LP  0  0  0  0  0  0  0  0  0  0  0  0  # atno 13475 bound_to 12858
  112.1811  252.3096  329.0823 LP  0  0  0  0  0  0  0  0  0  0  0  0  # atno 13476 bound_to 12869
  111.3319  250.9612  328.7256 LP  0  0  0  0  0  0  0  0  0  0  0  0  # atno 13477 bound_to 12869
  106.8424  255.6564  323.7786 LP  0  0  0  0  0  0  0  0  0  0  0  0  # atno 13478 bound_to 12897
  103.7215  252.8768  322.4400 LP  0  0  0  0  0  0  0  0  0  0  0  0  # atno 13479 bound_to 12900
  105.1288  253.3516  323.3310 LP  0  0  0  0  0  0  0  0  0  0  0  0  # atno 13480 bound_to 12900
  118.5351  243.1682  319.7854 LP  0  0  0  0  0  0  0  0  0  0  0  0  # atno 13492 bound_to 8406
  117.8363  243.9127  318.3863 LP  0  0  0  0  0  0  0  0  0  0  0  0  # atno 13493 bound_to 8406
  115.8292  241.8528  318.2594 LP  0  0  0  0  0  0  0  0  0  0  0  0  # atno 13494 bound_to 8429
  114.2685  244.8738  318.3714 LP  0  0  0  0  0  0  0  0  0  0  0  0  # atno 13495 bound_to 8451
  116.6404  246.8471  318.6037 LP  0  0  0  0  0  0  0  0  0  0  0  0  # atno 13496 bound_to 8946
  116.0042  246.2990  317.0888 LP  0  0  0  0  0  0  0  0  0  0  0  0  # atno 13497 bound_to 8946
  120.1065  244.2084  319.2155 LP  0  0  0  0  0  0  0  0  0  0  0  0  # atno 13498 bound_to 8998
  122.5345  242.5231  317.6763 LP  0  0  0  0  0  0  0  0  0  0  0  0  # atno 13499 bound_to 9001
  121.7496  241.4092  318.7455 LP  0  0  0  0  0  0  0  0  0  0  0  0  # atno 13500 bound_to 9001
  122.2181  242.9887  319.9523 LP  0  0  0  0  0  0  0  0  0  0  0  0  # atno 13501 bound_to 9022
  122.2782  242.9959  322.7479 LP  0  0  0  0  0  0  0  0  0  0  0  0  # atno 13502 bound_to 9025
  121.9439  242.0059  324.1293 LP  0  0  0  0  0  0  0  0  0  0  0  0  # atno 13503 bound_to 9025
  122.9240  239.5727  322.7389 LP  0  0  0  0  0  0  0  0  0  0  0  0  # atno 13504 bound_to 9068
  123.6274  238.4768  324.5088 LP  0  0  0  0  0  0  0  0  0  0  0  0  # atno 13505 bound_to 9071
  124.1640  239.4816  325.8137 LP  0  0  0  0  0  0  0  0  0  0  0  0  # atno 13506 bound_to 9071
  115.0116  238.4091  321.8489 LP  0  0  0  0  0  0  0  0  0  0  0  0  # atno 13507 bound_to 9079
  114.6858  239.2592  323.2046 LP  0  0  0  0  0  0  0  0  0  0  0  0  # atno 13508 bound_to 9079
  120.9395  239.5998  326.2004 LP  0  0  0  0  0  0  0  0  0  0  0  0  # atno 13509 bound_to 9106
  119.8248  237.9839  327.4682 LP  0  0  0  0  0  0  0  0  0  0  0  0  # atno 13510 bound_to 9109
  119.7916  239.0479  328.8345 LP  0  0  0  0  0  0  0  0  0  0  0  0  # atno 13511 bound_to 9109
  117.9278  238.1397  330.9531 LP  0  0  0  0  0  0  0  0  0  0  0  0  # atno 13512 bound_to 9183
  124.6803  248.8077  328.5306 LP  0  0  0  0  0  0  0  0  0  0  0  0  # atno 13519 bound_to 3592
  118.6576  247.0753  315.9405 LP  0  0  0  0  0  0  0  0  0  0  0  0  # atno 13520 bound_to 8978
  121.2368  246.8166  316.5213 LP  0  0  0  0  0  0  0  0  0  0  0  0  # atno 13521 bound_to 8981
  122.3376  246.4726  317.8135 LP  0  0  0  0  0  0  0  0  0  0  0  0  # atno 13522 bound_to 8981
  121.0829  236.9312  319.2691 LP  0  0  0  0  0  0  0  0  0  0  0  0  # atno 13523 bound_to 8351
  119.8482  238.0634  319.7092 LP  0  0  0  0  0  0  0  0  0  0  0  0  # atno 13524 bound_to 8351
  123.1867  237.4016  328.5558 LP  0  0  0  0  0  0  0  0  0  0  0  0  # atno 13525 bound_to 9136
  126.0105  236.9765  325.6990 LP  0  0  0  0  0  0  0  0  0  0  0  0  # atno 13526 bound_to 11049
  124.5616  246.1532  318.9328 LP  0  0  0  0  0  0  0  0  0  0  0  0  # atno 13527 bound_to 4888
  125.8449  247.1481  319.1055 LP  0  0  0  0  0  0  0  0  0  0  0  0  # atno 13528 bound_to 4888
  119.7290  243.8307  314.7972 LP  0  0  0  0  0  0  0  0  0  0  0  0  # atno 13529 bound_to 8983
  120.6840  244.8491  315.6443 LP  0  0  0  0  0  0  0  0  0  0  0  0  # atno 13530 bound_to 8983
  113.9041  248.0216  316.9399 LP  0  0  0  0  0  0  0  0  0  0  0  0  # atno 13531 bound_to 8454
  113.8499  249.0418  318.3386 LP  0  0  0  0  0  0  0  0  0  0  0  0  # atno 13532 bound_to 8454
  112.7321  245.0958  316.9610 LP  0  0  0  0  0  0  0  0  0  0  0  0  # atno 13533 bound_to 8432
  112.7796  243.5130  317.6629 LP  0  0  0  0  0  0  0  0  0  0  0  0  # atno 13534 bound_to 8432
  118.2968  249.4252  330.2263 LP  0  0  0  0  0  0  0  0  0  0  0  0  # atno 13535 bound_to 3502
  119.7159  249.4503  331.2191 LP  0  0  0  0  0  0  0  0  0  0  0  0  # atno 13536 bound_to 3502
  120.3521  252.4052  329.1816 LP  0  0  0  0  0  0  0  0  0  0  0  0  # atno 13537 bound_to 3542
  112.4058  246.9659  318.1037 LP  0  0  0  0  0  0  0  0  0  0  0  0  # atno 13538 bound_to 8482
  115.2023  248.4359  316.6191 LP  0  0  0  0  0  0  0  0  0  0  0  0  # atno 13539 bound_to 8943
  109.4192  248.4441  317.9198 LP  0  0  0  0  0  0  0  0  0  0  0  0  # atno 13541 bound_to 8506
  108.2570  243.8876  318.2282 LP  0  0  0  0  0  0  0  0  0  0  0  0  # atno 13542 bound_to 5571
  109.3227  255.4176  322.1734 LP  0  0  0  0  0  0  0  0  0  0  0  0  # atno 13543 bound_to 12828
  111.0418  255.5062  321.9819 LP  0  0  0  0  0  0  0  0  0  0  0  0  # atno 13544 bound_to 12828

> <Gold.Score>
     Fitness  S(hb_ext) S(vdw_ext)  S(hb_int)    S(int)      intcor
     37.51       6.47      23.44       0.00      -1.19      -0.76

> <Gold.Goldscore.Fitness>
37.5139

> <Gold.Goldscore.Internal.Vdw>
-1.5051

> <Gold.Goldscore.Internal.Torsion>
-0.4438

> <Gold.Goldscore.External.Vdw>
23.4411

> <Gold.Goldscore.Internal.HBond>
0.0000

> <Gold.Goldscore.External.HBond>
6.4729

> <Gold.Goldscore.Internal.Correction>
-0.7585

> <Gold.Goldscore.Hbonds>
donor molecule, donor type, donor heavy atom, donor atom, acceptor molecule, acceptor atom, score
      P1  H  5693  5706       L1    17  0.02
      P1  H  9519  9531       L1    17  0.75
      L1  H    10    23       P1  9079  0.92

> <Gold.Goldscore.Internal.Vdw.Weighted>
-1.5051

> <Gold.Goldscore.Internal.Torsion.Weighted>
-0.4438

> <Gold.Goldscore.External.Vdw.Weighted>
32.2315

> <Gold.Goldscore.Internal.HBond.Weighted>
0.0000

> <Gold.Goldscore.External.HBond.Weighted>
6.4729

> <Gold.Goldscore.Internal.Correction.Weighted>
-0.7585

> <Gold.Rescore>
     Score     S(PLP)   S(hbond)     S(cho)   S(metal)  DE(clash)   DE(tors)     intcor
     19.28     -15.36       1.79       0.00       0.00       1.28       0.09       ----

> <Gold.PLP.Fitness>
19.2759

> <Gold.PLP.PLP>
-15.3639

> <Gold.PLP.part.hbond>
-3.1766

> <Gold.PLP.part.metal>
0.0000

> <Gold.PLP.part.buried>
0.4762

> <Gold.PLP.part.nonpolar>
-16.8592

> <Gold.PLP.part.repulsive>
2.8461

> <Gold.PLP.ligand.clash>
1.2833

> <Gold.PLP.ligand.torsion>
0.0904

> <Gold.PLP.Chemscore.Hbond>
1.7920

> <Gold.PLP.Chemscore.CHOScore>
0.0000

> <Gold.PLP.Chemscore.Metal>
0.0000

> <Gold.Chemscore.Hbonds>
donor molecule, donor type, donor heavy atom, donor atom, acceptor molecule, acceptor atom, score
      P1  H  9519  9531       L1    17  0.78

> <Gold.PLP.Chemscore.Internal.Correction>
   9.000000E+99

