#       Name:                CT1002167954
#       Creating user name   hitesit
#       Creation time:       Sun Apr 16 20:18:14 2023


#       File generated by GOLD software.
#

@<TRIPOS>MOLECULE
CT1002167954|ligand_prepared|mol2|1|dock2
    29    30     1
SMALL
NO_CHARGES


@<TRIPOS>ATOM
      1 C1         117.3533 245.3260 323.6595 C.3            1 RES1               0.0000
      2 C2         116.1749 246.0607 324.3304 C.ar           1 RES1               0.0000
      3 C3         116.8278 244.8006 322.3268 C.2            1 RES1               0.0000
      4 C4         118.4743 246.3508 323.5257 C.2            1 RES1               0.0000
      5 C5         117.8934 244.1315 324.4798 C.3            1 RES1               0.0000
      6 C6         115.9584 247.4153 324.0958 C.ar           1 RES1               0.0000
      7 C7         115.2958 245.3980 325.1828 C.ar           1 RES1               0.0000
      8 N8         117.2351 245.4374 321.1917 N.am           1 RES1               0.0000
      9 O9         116.0368 243.8667 322.2753 O.2            1 RES1               0.0000
     10 N10        118.8522 246.7280 322.2636 N.am           1 RES1               0.0000
     11 O11        119.0225 246.8473 324.5020 O.2            1 RES1               0.0000
     12 C12        119.2567 243.6388 324.0208 C.3            1 RES1               0.0000
     13 C13        114.8997 248.0825 324.6893 C.ar           1 RES1               0.0000
     14 C14        114.2378 246.0672 325.7755 C.ar           1 RES1               0.0000
     15 C15        118.2625 246.3407 321.0912 C.2            1 RES1               0.0000
     16 C16        114.0385 247.4090 325.5291 C.ar           1 RES1               0.0000
     17 O17        118.6238 246.7658 319.9977 O.2            1 RES1               0.0000
     18 H18        117.9618 244.4290 325.5335 H              1 RES1               0.0000
     19 H19        117.1772 243.3034 324.4111 H              1 RES1               0.0000
     20 H20        116.6271 247.9625 323.4397 H              1 RES1               0.0000
     21 H21        115.4338 244.3426 325.3920 H              1 RES1               0.0000
     22 H22        116.7289 245.2220 320.3386 H              1 RES1               0.0000
     23 H23        119.6467 247.3556 322.1915 H              1 RES1               0.0000
     24 H24        119.5889 242.8004 324.6294 H              1 RES1               0.0000
     25 H25        119.2194 243.3112 322.9839 H              1 RES1               0.0000
     26 H26        119.9994 244.4301 324.0997 H              1 RES1               0.0000
     27 H27        114.7480 249.1388 324.4933 H              1 RES1               0.0000
     28 H28        113.5629 245.5332 326.4363 H              1 RES1               0.0000
     29 H29        113.2090 247.9318 325.9937 H              1 RES1               0.0000
@<TRIPOS>BOND
    1    1    2 1     
    2    1    3 1     
    3    1    4 1     
    4    1    5 1     
    5    2    6 ar    
    6    2    7 ar    
    7    3    8 1     
    8    3    9 2     
    9    4   10 1     
   10    4   11 2     
   11    5   12 1     
   12    5   18 1     
   13    5   19 1     
   14    6   13 ar    
   15    6   20 1     
   16    7   14 ar    
   17    7   21 1     
   18    8   15 1     
   19    8   22 1     
   20   10   15 1     
   21   10   23 1     
   22   12   24 1     
   23   12   25 1     
   24   12   26 1     
   25   13   16 ar    
   26   13   27 1     
   27   14   16 ar    
   28   14   28 1     
   29   15   17 2     
   30   16   29 1     
@<TRIPOS>SUBSTRUCTURE
      1 RES1           1
@<TRIPOS>SET
DONOR_HYDROGENS      STATIC     ATOMS    <user>   **** ""
2 22 23
ATOM$RED        STATIC     ATOMS    COLORGROUP SYSTEM
2 22 23
@<TRIPOS>COMMENT
> <Gold.Version>
2022.3.0

> <Gold.Id.Protein>
unknown|5adg_clean|pdb

> <Gold.Protein.RotatedTorsions>
[ 5556 5551 5550 5547 ] final  148.31 input   60.01 | X-H torsion
[ 8551 8534 8535 8536 ] final   88.71 input   85.39 | X-H torsion
[ 12879 12858 12859 12860 ] final    4.32 input  110.07 | X-H torsion
[ 12887 12869 12868 12866 ] final   30.05 input   59.97 | X-H torsion
[ 12914 12897 12898 12899 ] final   35.64 input   35.92 | X-H torsion
[ 8434 8429 8430 8431 ] final   17.41 input   45.97 | X-H torsion
[ 8458 8451 8452 8453 ] final -128.77 input  104.20 | X-H torsion
[ 9002 8998 8999 9000 ] final  110.32 input   46.10 | X-H torsion
[ 9036 9022 9023 9024 ] final -132.57 input   36.28 | X-H torsion
[ 9087 9068 9069 9070 ] final   42.15 input   95.83 | X-H torsion
[ 9095 9079 9078 9076 ] final  169.58 input   59.97 | X-H torsion
[ 9123 9106 9107 9108 ] final  -10.61 input   84.45 | X-H torsion
[ 9198 9183 9184 9185 ] final   32.14 input  123.29 | X-H torsion
[ 3599 3592 3593 3594 ] final   -9.77 input   84.32 | X-H torsion
[ 8984 8978 8979 8980 ] final   82.37 input   29.51 | X-H torsion
[ 9143 9136 9137 9138 ] final  -96.45 input  134.07 | X-H torsion
[ 11056 11049 11050 11051 ] final  169.44 input   56.26 | X-H torsion
[ 4901 4888 4887 4884 ] final -142.66 input   60.00 | X-H torsion
[ 8988 8983 8982 8979 ] final  -25.61 input   59.98 | X-H torsion
[ 3554 3542 3543 3544 ] final   91.58 input   80.85 | X-H torsion
[ 8491 8482 8483 8484 ] final -107.54 input   54.31 | X-H torsion
[ 8954 8943 8944 8945 ] final   16.59 input   47.77 | X-H torsion
[ 8520 8506 8507 8508 ] final  159.04 input   67.56 | X-H torsion
[ 5580 5571 5572 5573 ] final  -55.92 input   48.82 | X-H torsion
[ 3579 3563 3564 3565 ] final  -40.25 input  103.62 | X-H torsion
[ 9231 9212 9213 9214 ] final -155.41 input   91.82 | X-H torsion
[ 8587 8568 8569 8570 ] final   25.84 input   67.63 | X-H torsion
[ 13465 1235 1234 1233 ] final  103.17 input    0.00 | X-H torsion
[ 13468 5549 5548 5547 ] final  -68.15 input   -0.00 | X-H torsion
[ 13472 8509 8508 8507 ] final -118.40 input    0.00 | X-H torsion
[ 13479 12900 12899 12898 ] final  144.33 input   -0.00 | X-H torsion
[ 13492 8406 8405 8404 ] final -106.46 input    0.00 | X-H torsion
[ 13496 8946 8945 8944 ] final -176.72 input   -0.00 | X-H torsion
[ 13499 9001 9000 8999 ] final -116.43 input    0.00 | X-H torsion
[ 13502 9025 9024 9023 ] final   -9.67 input    0.00 | X-H torsion
[ 13505 9071 9070 9069 ] final -118.42 input    0.00 | X-H torsion
[ 13510 9109 9108 9107 ] final  -68.71 input    0.00 | X-H torsion
[ 13521 8981 8980 8979 ] final -154.95 input   -0.00 | X-H torsion
[ 13523 8351 8350 8349 ] final   64.17 input   -0.00 | X-H torsion
[ 13531 8454 8453 8452 ] final  166.95 input    0.00 | X-H torsion
[ 13533 8432 8431 8430 ] final -107.35 input    0.00 | X-H torsion
[ 13535 3502 3501 3500 ] final -125.90 input    0.00 | X-H torsion
[ 13543 12828 12827 12826 ] final   50.57 input   -0.00 | X-H torsion

> <Gold.Protein.ActiveResidues>
 TRP311  MET341  HIS342  TRP414  ALA417  ARG419  CYS420  VAL421  GLY422  LEU460 
 SER462  SER482  GLN483  ARG486  ALA502  TYR567  GLY568  LEU569  PRO570  ALA571 
 VAL572  SER573  ASN574  MET575  LEU576  PHE589  SER590  GLY591  TRP592  TYR593 
 MET594  GLY595  GLU597  ILE598  ARG601  ASP602  ARG608  ILE653  VAL654  TRP683 
 PHE709  GLU710  TYR711  GLN712  ASP714  HEM750  H4B760 

> <Gold.Protein.RotatedAtoms>
  120.2941  252.4122  329.1192 H   0  0  0  0  0  0  0  0  0  0  0  0  # atno 3554 bound_to 3542
  122.5211  249.5284  328.8750 H   0  0  0  0  0  0  0  0  0  0  0  0  # atno 3579 bound_to 3563
  124.3640  249.0933  328.1726 H   0  0  0  0  0  0  0  0  0  0  0  0  # atno 3599 bound_to 3592
  125.0822  247.0173  319.3011 H   0  0  0  0  0  0  0  0  0  0  0  0  # atno 4901 bound_to 4888
  107.2002  243.2602  322.0986 H   0  0  0  0  0  0  0  0  0  0  0  0  # atno 5556 bound_to 5551
  108.4417  244.3823  318.2981 H   0  0  0  0  0  0  0  0  0  0  0  0  # atno 5580 bound_to 5571
  114.8477  242.4297  319.1631 H   0  0  0  0  0  0  0  0  0  0  0  0  # atno 8434 bound_to 8429
  114.4032  244.6750  319.0109 H   0  0  0  0  0  0  0  0  0  0  0  0  # atno 8458 bound_to 8451
  112.4021  247.6279  318.4905 H   0  0  0  0  0  0  0  0  0  0  0  0  # atno 8491 bound_to 8482
  109.4183  248.1909  318.4238 H   0  0  0  0  0  0  0  0  0  0  0  0  # atno 8520 bound_to 8506
  110.6914  251.0961  319.2374 H   0  0  0  0  0  0  0  0  0  0  0  0  # atno 8551 bound_to 8534
  111.0627  255.2698  320.6092 H   0  0  0  0  0  0  0  0  0  0  0  0  # atno 8587 bound_to 8568
  115.2111  248.2863  316.5152 H   0  0  0  0  0  0  0  0  0  0  0  0  # atno 8954 bound_to 8943
  119.0506  247.1904  315.9591 H   0  0  0  0  0  0  0  0  0  0  0  0  # atno 8984 bound_to 8978
  120.0505  245.6232  315.2272 H   0  0  0  0  0  0  0  0  0  0  0  0  # atno 8988 bound_to 8983
  120.1947  245.2360  319.5464 H   0  0  0  0  0  0  0  0  0  0  0  0  # atno 9002 bound_to 8998
  122.3135  242.9856  319.8780 H   0  0  0  0  0  0  0  0  0  0  0  0  # atno 9036 bound_to 9022
  122.8450  239.3751  322.6791 H   0  0  0  0  0  0  0  0  0  0  0  0  # atno 9087 bound_to 9068
  114.9966  238.1263  321.9042 H   0  0  0  0  0  0  0  0  0  0  0  0  # atno 9095 bound_to 9079
  121.1187  239.3952  326.0795 H   0  0  0  0  0  0  0  0  0  0  0  0  # atno 9123 bound_to 9106
  121.9976  237.8127  327.7803 H   0  0  0  0  0  0  0  0  0  0  0  0  # atno 9143 bound_to 9136
  118.3883  237.5080  329.7765 H   0  0  0  0  0  0  0  0  0  0  0  0  # atno 9198 bound_to 9183
  116.4703  237.4781  327.9199 H   0  0  0  0  0  0  0  0  0  0  0  0  # atno 9231 bound_to 9212
  126.2559  238.2639  325.0406 H   0  0  0  0  0  0  0  0  0  0  0  0  # atno 11056 bound_to 11049
  109.4950  257.0172  324.2358 H   0  0  0  0  0  0  0  0  0  0  0  0  # atno 12879 bound_to 12858
  111.7743  251.2535  328.5157 H   0  0  0  0  0  0  0  0  0  0  0  0  # atno 12887 bound_to 12869
  106.5746  254.1597  323.0186 H   0  0  0  0  0  0  0  0  0  0  0  0  # atno 12914 bound_to 12897
  109.0730  253.6579  331.3651 LP  0  0  0  0  0  0  0  0  0  0  0  0  # atno 13465 bound_to 1235
  109.8099  254.5462  332.6567 LP  0  0  0  0  0  0  0  0  0  0  0  0  # atno 13466 bound_to 1235
  109.7378  246.6207  319.1215 LP  0  0  0  0  0  0  0  0  0  0  0  0  # atno 13468 bound_to 5549
  110.2771  245.5944  320.4083 LP  0  0  0  0  0  0  0  0  0  0  0  0  # atno 13469 bound_to 5549
  107.7807  243.1586  320.5814 LP  0  0  0  0  0  0  0  0  0  0  0  0  # atno 13470 bound_to 5551
  106.1826  242.9726  320.8614 LP  0  0  0  0  0  0  0  0  0  0  0  0  # atno 13471 bound_to 5551
  107.6326  252.9152  319.8659 LP  0  0  0  0  0  0  0  0  0  0  0  0  # atno 13472 bound_to 8509
  107.3167  251.6143  320.9649 LP  0  0  0  0  0  0  0  0  0  0  0  0  # atno 13473 bound_to 8509
  109.0188  251.4320  319.6000 LP  0  0  0  0  0  0  0  0  0  0  0  0  # atno 13474 bound_to 8534
  110.3256  255.7492  325.1040 LP  0  0  0  0  0  0  0  0  0  0  0  0  # atno 13475 bound_to 12858
  110.7452  251.3831  329.7698 LP  0  0  0  0  0  0  0  0  0  0  0  0  # atno 13476 bound_to 12869
  111.9168  252.4997  329.5527 LP  0  0  0  0  0  0  0  0  0  0  0  0  # atno 13477 bound_to 12869
  107.0876  255.7654  323.4802 LP  0  0  0  0  0  0  0  0  0  0  0  0  # atno 13478 bound_to 12897
  103.6977  253.1176  323.3553 LP  0  0  0  0  0  0  0  0  0  0  0  0  # atno 13479 bound_to 12900
  105.1526  253.1109  322.4156 LP  0  0  0  0  0  0  0  0  0  0  0  0  # atno 13480 bound_to 12900
  117.8227  244.0818  319.6561 LP  0  0  0  0  0  0  0  0  0  0  0  0  # atno 13492 bound_to 8406
  118.5488  242.9992  318.5156 LP  0  0  0  0  0  0  0  0  0  0  0  0  # atno 13493 bound_to 8406
  116.5344  242.3013  318.7293 LP  0  0  0  0  0  0  0  0  0  0  0  0  # atno 13494 bound_to 8429
  115.2029  246.1476  318.5046 LP  0  0  0  0  0  0  0  0  0  0  0  0  # atno 13495 bound_to 8451
  116.8999  245.9838  318.1091 LP  0  0  0  0  0  0  0  0  0  0  0  0  # atno 13496 bound_to 8946
  115.7447  247.1624  317.5835 LP  0  0  0  0  0  0  0  0  0  0  0  0  # atno 13497 bound_to 8946
  120.5798  244.5356  317.9904 LP  0  0  0  0  0  0  0  0  0  0  0  0  # atno 13498 bound_to 8998
  121.4809  241.6022  318.6356 LP  0  0  0  0  0  0  0  0  0  0  0  0  # atno 13499 bound_to 9001
  122.8032  242.3302  317.7862 LP  0  0  0  0  0  0  0  0  0  0  0  0  # atno 13500 bound_to 9001
  123.1536  243.2792  321.3778 LP  0  0  0  0  0  0  0  0  0  0  0  0  # atno 13501 bound_to 9022
  122.5060  242.9679  322.8255 LP  0  0  0  0  0  0  0  0  0  0  0  0  # atno 13502 bound_to 9025
  121.7161  242.0339  324.0517 LP  0  0  0  0  0  0  0  0  0  0  0  0  # atno 13503 bound_to 9025
  121.5707  240.4841  322.2251 LP  0  0  0  0  0  0  0  0  0  0  0  0  # atno 13504 bound_to 9068
  123.7267  238.3511  325.7331 LP  0  0  0  0  0  0  0  0  0  0  0  0  # atno 13505 bound_to 9071
  124.0647  239.6073  324.5894 LP  0  0  0  0  0  0  0  0  0  0  0  0  # atno 13506 bound_to 9071
  114.7523  239.3572  322.9406 LP  0  0  0  0  0  0  0  0  0  0  0  0  # atno 13507 bound_to 9079
  114.6080  237.8136  323.4535 LP  0  0  0  0  0  0  0  0  0  0  0  0  # atno 13508 bound_to 9079
  122.0521  240.8752  326.0695 LP  0  0  0  0  0  0  0  0  0  0  0  0  # atno 13509 bound_to 9106
  119.7971  239.1116  328.7799 LP  0  0  0  0  0  0  0  0  0  0  0  0  # atno 13510 bound_to 9109
  119.8192  237.9202  327.5228 LP  0  0  0  0  0  0  0  0  0  0  0  0  # atno 13511 bound_to 9109
  118.4331  238.9860  330.7044 LP  0  0  0  0  0  0  0  0  0  0  0  0  # atno 13512 bound_to 9183
  123.8042  247.4441  328.2570 LP  0  0  0  0  0  0  0  0  0  0  0  0  # atno 13519 bound_to 3592
  118.3579  247.6483  317.4945 LP  0  0  0  0  0  0  0  0  0  0  0  0  # atno 13520 bound_to 8978
  122.4061  246.0841  317.3973 LP  0  0  0  0  0  0  0  0  0  0  0  0  # atno 13521 bound_to 8981
  121.1683  247.2051  316.9375 LP  0  0  0  0  0  0  0  0  0  0  0  0  # atno 13522 bound_to 8981
  121.1196  237.1834  319.0163 LP  0  0  0  0  0  0  0  0  0  0  0  0  # atno 13523 bound_to 8351
  119.8114  237.8112  319.9620 LP  0  0  0  0  0  0  0  0  0  0  0  0  # atno 13524 bound_to 8351
  122.8352  237.7855  329.3171 LP  0  0  0  0  0  0  0  0  0  0  0  0  # atno 13525 bound_to 9136
  125.2554  237.3330  326.1268 LP  0  0  0  0  0  0  0  0  0  0  0  0  # atno 13526 bound_to 11049
  126.3557  246.4511  318.4610 LP  0  0  0  0  0  0  0  0  0  0  0  0  # atno 13527 bound_to 4888
  124.9412  245.6351  318.4538 LP  0  0  0  0  0  0  0  0  0  0  0  0  # atno 13528 bound_to 4888
  119.2701  244.3981  314.4937 LP  0  0  0  0  0  0  0  0  0  0  0  0  # atno 13529 bound_to 8983
  120.5477  244.0919  315.4635 LP  0  0  0  0  0  0  0  0  0  0  0  0  # atno 13530 bound_to 8983
  113.2741  248.7078  317.0430 LP  0  0  0  0  0  0  0  0  0  0  0  0  # atno 13531 bound_to 8454
  114.4799  248.3556  318.2355 LP  0  0  0  0  0  0  0  0  0  0  0  0  # atno 13532 bound_to 8454
  112.8166  245.0221  316.8311 LP  0  0  0  0  0  0  0  0  0  0  0  0  # atno 13533 bound_to 8432
  112.6951  243.5867  317.7929 LP  0  0  0  0  0  0  0  0  0  0  0  0  # atno 13534 bound_to 8432
  119.8462  249.3452  330.9127 LP  0  0  0  0  0  0  0  0  0  0  0  0  # atno 13535 bound_to 3502
  118.1666  249.5303  330.5326 LP  0  0  0  0  0  0  0  0  0  0  0  0  # atno 13536 bound_to 3502
  119.6403  251.1730  330.1614 LP  0  0  0  0  0  0  0  0  0  0  0  0  # atno 13537 bound_to 3542
  110.9651  246.6409  318.5861 LP  0  0  0  0  0  0  0  0  0  0  0  0  # atno 13538 bound_to 8482
  115.5450  249.5475  315.3536 LP  0  0  0  0  0  0  0  0  0  0  0  0  # atno 13539 bound_to 8943
  110.4172  249.6215  318.4683 LP  0  0  0  0  0  0  0  0  0  0  0  0  # atno 13541 bound_to 8506
  108.7218  243.4106  319.7266 LP  0  0  0  0  0  0  0  0  0  0  0  0  # atno 13542 bound_to 5571
  111.0331  255.3017  322.0980 LP  0  0  0  0  0  0  0  0  0  0  0  0  # atno 13543 bound_to 12828
  109.3314  255.6221  322.0573 LP  0  0  0  0  0  0  0  0  0  0  0  0  # atno 13544 bound_to 12828

> <Gold.Score>
     Fitness  S(hb_ext) S(vdw_ext)  S(hb_int)    S(int)      intcor
     59.48      10.24      36.20       0.00      -0.54      -0.78

> <Gold.Goldscore.Fitness>
59.4833

> <Gold.Goldscore.Internal.Vdw>
-0.5993

> <Gold.Goldscore.Internal.Torsion>
-0.7160

> <Gold.Goldscore.External.Vdw>
36.2035

> <Gold.Goldscore.Internal.HBond>
0.0000

> <Gold.Goldscore.External.HBond>
10.2436

> <Gold.Goldscore.Internal.Correction>
-0.7752

> <Gold.Goldscore.Hbonds>
donor molecule, donor type, donor heavy atom, donor atom, acceptor molecule, acceptor atom, score
      P1  H  8998  9002       L1    17  0.12
      P1  M 13332 13547       L1    11  1.00

> <Gold.Goldscore.Internal.Vdw.Weighted>
-0.5993

> <Gold.Goldscore.Internal.Torsion.Weighted>
-0.7160

> <Gold.Goldscore.External.Vdw.Weighted>
49.7798

> <Gold.Goldscore.Internal.HBond.Weighted>
0.0000

> <Gold.Goldscore.External.HBond.Weighted>
10.2436

> <Gold.Goldscore.Internal.Correction.Weighted>
-0.7752

> <Gold.Rescore>
     Score     S(PLP)   S(hbond)     S(cho)   S(metal)  DE(clash)   DE(tors)     intcor
     53.71     -47.10       0.99       0.00       1.00       0.00       1.18       ----

> <Gold.PLP.Fitness>
53.7094

> <Gold.PLP.PLP>
-47.0968

> <Gold.PLP.part.hbond>
-3.0000

> <Gold.PLP.part.metal>
-0.9235

> <Gold.PLP.part.buried>
13.2382

> <Gold.PLP.part.nonpolar>
-61.3826

> <Gold.PLP.part.repulsive>
2.3488

> <Gold.PLP.ligand.clash>
0.0000

> <Gold.PLP.ligand.torsion>
1.1758

> <Gold.PLP.Chemscore.Hbond>
0.9881

> <Gold.PLP.Chemscore.CHOScore>
0.0000

> <Gold.PLP.Chemscore.Metal>
1.0000

> <Gold.Chemscore.Hbonds>
donor molecule, donor type, donor heavy atom, donor atom, acceptor molecule, acceptor atom, score
      P1  H  8998  9002       L1    17  0.62
      P1  M 13332 13332       L1    11  1.00

> <Gold.PLP.Chemscore.Internal.Correction>
   9.000000E+99

