#       Name:                CT1002167954
#       Creating user name   hitesit
#       Creation time:       Sun Apr 16 20:18:15 2023


#       File generated by GOLD software.
#

@<TRIPOS>MOLECULE
CT1002167954|ligand_prepared|mol2|1|dock3
    29    30     1
SMALL
NO_CHARGES


@<TRIPOS>ATOM
      1 C1         111.7690 246.0705 325.4372 C.3            1 RES1               0.0000
      2 C2         113.2186 245.6673 325.0983 C.ar           1 RES1               0.0000
      3 C3         111.8646 247.1513 326.5100 C.2            1 RES1               0.0000
      4 C4         111.1414 246.5442 324.1309 C.2            1 RES1               0.0000
      5 C5         110.9093 244.9081 325.9863 C.3            1 RES1               0.0000
      6 C6         114.2699 246.5524 325.3173 C.ar           1 RES1               0.0000
      7 C7         113.5199 244.4151 324.5694 C.ar           1 RES1               0.0000
      8 N8         111.6011 248.4365 326.1373 N.am           1 RES1               0.0000
      9 O9         112.2045 246.8856 327.6563 O.2            1 RES1               0.0000
     10 N10        110.7850 247.8636 324.0312 N.am           1 RES1               0.0000
     11 O11        110.9676 245.7905 323.1811 O.2            1 RES1               0.0000
     12 C12        109.5803 245.3537 326.5756 C.3            1 RES1               0.0000
     13 C13        115.5755 246.1976 325.0213 C.ar           1 RES1               0.0000
     14 C14        114.8263 244.0623 324.2738 C.ar           1 RES1               0.0000
     15 C15        111.0145 248.8379 324.9640 C.2            1 RES1               0.0000
     16 C16        115.8547 244.9523 324.4998 C.ar           1 RES1               0.0000
     17 O17        110.7139 250.0138 324.7793 O.2            1 RES1               0.0000
     18 H18        110.7147 244.1981 325.1730 H              1 RES1               0.0000
     19 H19        111.4804 244.3820 326.7612 H              1 RES1               0.0000
     20 H20        114.0692 247.5377 325.7248 H              1 RES1               0.0000
     21 H21        112.7268 243.6991 324.3824 H              1 RES1               0.0000
     22 H22        111.8646 249.1666 326.7914 H              1 RES1               0.0000
     23 H23        110.3038 248.1455 323.1831 H              1 RES1               0.0000
     24 H24        109.0170 244.4998 326.9461 H              1 RES1               0.0000
     25 H25        109.7368 246.0416 327.4039 H              1 RES1               0.0000
     26 H26        108.9756 245.8588 325.8252 H              1 RES1               0.0000
     27 H27        116.3811 246.9021 325.1997 H              1 RES1               0.0000
     28 H28        115.0413 243.0814 323.8630 H              1 RES1               0.0000
     29 H29        116.8776 244.6744 324.2683 H              1 RES1               0.0000
@<TRIPOS>BOND
    1    1    2 1     
    2    1    3 1     
    3    1    4 1     
    4    1    5 1     
    5    2    6 ar    
    6    2    7 ar    
    7    3    8 1     
    8    3    9 2     
    9    4   10 1     
   10    4   11 2     
   11    5   12 1     
   12    5   18 1     
   13    5   19 1     
   14    6   13 ar    
   15    6   20 1     
   16    7   14 ar    
   17    7   21 1     
   18    8   15 1     
   19    8   22 1     
   20   10   15 1     
   21   10   23 1     
   22   12   24 1     
   23   12   25 1     
   24   12   26 1     
   25   13   16 ar    
   26   13   27 1     
   27   14   16 ar    
   28   14   28 1     
   29   15   17 2     
   30   16   29 1     
@<TRIPOS>SUBSTRUCTURE
      1 RES1           1
@<TRIPOS>SET
DONOR_HYDROGENS      STATIC     ATOMS    <user>   **** ""
2 22 23
ATOM$RED        STATIC     ATOMS    COLORGROUP SYSTEM
2 22 23
@<TRIPOS>COMMENT
> <Gold.Version>
2022.3.0

> <Gold.Id.Protein>
unknown|5adg_clean|pdb

> <Gold.Protein.RotatedTorsions>
[ 5556 5551 5550 5547 ] final  -52.43 input   60.01 | X-H torsion
[ 8551 8534 8535 8536 ] final  -68.68 input   85.39 | X-H torsion
[ 12879 12858 12859 12860 ] final -137.40 input  110.07 | X-H torsion
[ 12887 12869 12868 12866 ] final -164.65 input   59.97 | X-H torsion
[ 12914 12897 12898 12899 ] final  123.13 input   35.92 | X-H torsion
[ 8434 8429 8430 8431 ] final -109.99 input   45.97 | X-H torsion
[ 8458 8451 8452 8453 ] final   27.14 input  104.20 | X-H torsion
[ 9002 8998 8999 9000 ] final  -11.50 input   46.10 | X-H torsion
[ 9036 9022 9023 9024 ] final -136.16 input   36.28 | X-H torsion
[ 9087 9068 9069 9070 ] final  -31.22 input   95.83 | X-H torsion
[ 9095 9079 9078 9076 ] final  133.73 input   59.97 | X-H torsion
[ 9123 9106 9107 9108 ] final   62.64 input   84.45 | X-H torsion
[ 9198 9183 9184 9185 ] final  -93.44 input  123.29 | X-H torsion
[ 3599 3592 3593 3594 ] final  -18.75 input   84.32 | X-H torsion
[ 8984 8978 8979 8980 ] final   36.97 input   29.51 | X-H torsion
[ 9143 9136 9137 9138 ] final  -58.83 input  134.07 | X-H torsion
[ 11056 11049 11050 11051 ] final   40.59 input   56.26 | X-H torsion
[ 4901 4888 4887 4884 ] final   23.52 input   60.00 | X-H torsion
[ 8988 8983 8982 8979 ] final   25.88 input   59.98 | X-H torsion
[ 3554 3542 3543 3544 ] final  108.40 input   80.85 | X-H torsion
[ 8491 8482 8483 8484 ] final   24.78 input   54.31 | X-H torsion
[ 8954 8943 8944 8945 ] final  -64.85 input   47.77 | X-H torsion
[ 8520 8506 8507 8508 ] final  -80.81 input   67.56 | X-H torsion
[ 5580 5571 5572 5573 ] final -162.45 input   48.82 | X-H torsion
[ 3579 3563 3564 3565 ] final    1.90 input  103.62 | X-H torsion
[ 9231 9212 9213 9214 ] final  136.80 input   91.82 | X-H torsion
[ 8587 8568 8569 8570 ] final  120.43 input   67.63 | X-H torsion
[ 13465 1235 1234 1233 ] final -175.31 input    0.00 | X-H torsion
[ 13468 5549 5548 5547 ] final -121.82 input   -0.00 | X-H torsion
[ 13472 8509 8508 8507 ] final -141.73 input    0.00 | X-H torsion
[ 13479 12900 12899 12898 ] final -168.35 input   -0.00 | X-H torsion
[ 13492 8406 8405 8404 ] final  138.67 input    0.00 | X-H torsion
[ 13496 8946 8945 8944 ] final   56.80 input   -0.00 | X-H torsion
[ 13499 9001 9000 8999 ] final  119.75 input    0.00 | X-H torsion
[ 13502 9025 9024 9023 ] final  161.38 input    0.00 | X-H torsion
[ 13505 9071 9070 9069 ] final    2.30 input    0.00 | X-H torsion
[ 13510 9109 9108 9107 ] final   39.84 input    0.00 | X-H torsion
[ 13521 8981 8980 8979 ] final   21.62 input   -0.00 | X-H torsion
[ 13523 8351 8350 8349 ] final   60.63 input   -0.00 | X-H torsion
[ 13531 8454 8453 8452 ] final   87.65 input    0.00 | X-H torsion
[ 13533 8432 8431 8430 ] final -107.63 input    0.00 | X-H torsion
[ 13535 3502 3501 3500 ] final  -63.79 input    0.00 | X-H torsion
[ 13543 12828 12827 12826 ] final   36.72 input   -0.00 | X-H torsion

> <Gold.Protein.ActiveResidues>
 TRP311  MET341  HIS342  TRP414  ALA417  ARG419  CYS420  VAL421  GLY422  LEU460 
 SER462  SER482  GLN483  ARG486  ALA502  TYR567  GLY568  LEU569  PRO570  ALA571 
 VAL572  SER573  ASN574  MET575  LEU576  PHE589  SER590  GLY591  TRP592  TYR593 
 MET594  GLY595  GLU597  ILE598  ARG601  ASP602  ARG608  ILE653  VAL654  TRP683 
 PHE709  GLU710  TYR711  GLN712  ASP714  HEM750  H4B760 

> <Gold.Protein.RotatedAtoms>
  120.0801  252.3596  328.9855 H   0  0  0  0  0  0  0  0  0  0  0  0  # atno 3554 bound_to 3542
  122.4111  248.9409  328.6442 H   0  0  0  0  0  0  0  0  0  0  0  0  # atno 3579 bound_to 3563
  124.4566  249.0554  328.2664 H   0  0  0  0  0  0  0  0  0  0  0  0  # atno 3599 bound_to 3592
  125.6301  245.6298  318.1923 H   0  0  0  0  0  0  0  0  0  0  0  0  # atno 4901 bound_to 4888
  106.5938  242.9754  320.3822 H   0  0  0  0  0  0  0  0  0  0  0  0  # atno 5556 bound_to 5551
  108.9755  244.4210  319.6196 H   0  0  0  0  0  0  0  0  0  0  0  0  # atno 5580 bound_to 5571
  116.3844  242.7523  319.3400 H   0  0  0  0  0  0  0  0  0  0  0  0  # atno 8434 bound_to 8429
  115.0012  246.0952  318.2025 H   0  0  0  0  0  0  0  0  0  0  0  0  # atno 8458 bound_to 8451
  110.9096  247.2375  318.9591 H   0  0  0  0  0  0  0  0  0  0  0  0  # atno 8491 bound_to 8482
  110.0220  249.4039  317.7233 H   0  0  0  0  0  0  0  0  0  0  0  0  # atno 8520 bound_to 8506
  109.0379  251.5663  319.2858 H   0  0  0  0  0  0  0  0  0  0  0  0  # atno 8551 bound_to 8534
  109.7626  255.2814  320.5018 H   0  0  0  0  0  0  0  0  0  0  0  0  # atno 8587 bound_to 8568
  115.4219  248.2296  315.3844 H   0  0  0  0  0  0  0  0  0  0  0  0  # atno 8954 bound_to 8943
  119.5029  247.4797  316.3748 H   0  0  0  0  0  0  0  0  0  0  0  0  # atno 8984 bound_to 8978
  120.5877  245.1399  315.6003 H   0  0  0  0  0  0  0  0  0  0  0  0  # atno 8988 bound_to 8983
  120.2963  244.0125  318.5984 H   0  0  0  0  0  0  0  0  0  0  0  0  # atno 9002 bound_to 8998
  122.3624  242.9806  319.8535 H   0  0  0  0  0  0  0  0  0  0  0  0  # atno 9036 bound_to 9022
  122.8233  240.4202  322.8538 H   0  0  0  0  0  0  0  0  0  0  0  0  # atno 9087 bound_to 9068
  115.0054  238.7025  321.8949 H   0  0  0  0  0  0  0  0  0  0  0  0  # atno 9095 bound_to 9079
  120.8266  240.3298  326.4857 H   0  0  0  0  0  0  0  0  0  0  0  0  # atno 9123 bound_to 9106
  121.6769  238.0847  328.1706 H   0  0  0  0  0  0  0  0  0  0  0  0  # atno 9143 bound_to 9136
  117.9992  238.3901  331.0110 H   0  0  0  0  0  0  0  0  0  0  0  0  # atno 9198 bound_to 9183
  117.3345  236.9869  327.9115 H   0  0  0  0  0  0  0  0  0  0  0  0  # atno 9231 bound_to 9212
  125.0306  238.0456  326.0284 H   0  0  0  0  0  0  0  0  0  0  0  0  # atno 11056 bound_to 11049
  110.4371  255.6759  324.5466 H   0  0  0  0  0  0  0  0  0  0  0  0  # atno 12879 bound_to 12858
  111.3626  252.3180  329.9812 H   0  0  0  0  0  0  0  0  0  0  0  0  # atno 12887 bound_to 12869
  107.3140  254.9907  322.5093 H   0  0  0  0  0  0  0  0  0  0  0  0  # atno 12914 bound_to 12897
  108.9924  254.7491  331.6508 LP  0  0  0  0  0  0  0  0  0  0  0  0  # atno 13465 bound_to 1235
  109.8905  253.4549  332.3710 LP  0  0  0  0  0  0  0  0  0  0  0  0  # atno 13466 bound_to 1235
  110.2845  246.0906  318.9445 LP  0  0  0  0  0  0  0  0  0  0  0  0  # atno 13468 bound_to 5549
  109.7304  246.1246  320.5852 LP  0  0  0  0  0  0  0  0  0  0  0  0  # atno 13469 bound_to 5549
  106.5846  243.1614  321.9990 LP  0  0  0  0  0  0  0  0  0  0  0  0  # atno 13470 bound_to 5551
  107.9891  243.2565  321.1715 LP  0  0  0  0  0  0  0  0  0  0  0  0  # atno 13471 bound_to 5551
  107.8519  252.9896  320.1285 LP  0  0  0  0  0  0  0  0  0  0  0  0  # atno 13472 bound_to 8509
  107.0973  251.5400  320.7024 LP  0  0  0  0  0  0  0  0  0  0  0  0  # atno 13473 bound_to 8509
  110.6540  250.9671  319.5522 LP  0  0  0  0  0  0  0  0  0  0  0  0  # atno 13474 bound_to 8534
  109.4039  257.0614  324.7999 LP  0  0  0  0  0  0  0  0  0  0  0  0  # atno 13475 bound_to 12858
  112.1703  251.8441  328.6502 LP  0  0  0  0  0  0  0  0  0  0  0  0  # atno 13476 bound_to 12869
  110.9061  250.9670  329.1969 LP  0  0  0  0  0  0  0  0  0  0  0  0  # atno 13477 bound_to 12869
  106.3662  254.9545  323.9772 LP  0  0  0  0  0  0  0  0  0  0  0  0  # atno 13478 bound_to 12897
  103.6020  252.9248  322.6944 LP  0  0  0  0  0  0  0  0  0  0  0  0  # atno 13479 bound_to 12900
  105.2483  253.3037  323.0766 LP  0  0  0  0  0  0  0  0  0  0  0  0  # atno 13480 bound_to 12900
  117.9889  243.6985  318.2574 LP  0  0  0  0  0  0  0  0  0  0  0  0  # atno 13492 bound_to 8406
  118.3826  243.3825  319.9143 LP  0  0  0  0  0  0  0  0  0  0  0  0  # atno 13493 bound_to 8406
  115.0260  241.9847  318.5557 LP  0  0  0  0  0  0  0  0  0  0  0  0  # atno 13494 bound_to 8429
  114.6244  244.7735  319.2867 LP  0  0  0  0  0  0  0  0  0  0  0  0  # atno 13495 bound_to 8451
  115.8546  246.5464  317.1179 LP  0  0  0  0  0  0  0  0  0  0  0  0  # atno 13496 bound_to 8946
  116.7900  246.5997  318.5747 LP  0  0  0  0  0  0  0  0  0  0  0  0  # atno 13497 bound_to 8946
  120.4811  245.7237  318.9109 LP  0  0  0  0  0  0  0  0  0  0  0  0  # atno 13498 bound_to 8998
  122.9634  241.7001  318.2785 LP  0  0  0  0  0  0  0  0  0  0  0  0  # atno 13499 bound_to 9001
  121.3207  242.2323  318.1433 LP  0  0  0  0  0  0  0  0  0  0  0  0  # atno 13500 bound_to 9001
  123.1052  243.2841  321.4020 LP  0  0  0  0  0  0  0  0  0  0  0  0  # atno 13501 bound_to 9022
  121.6017  242.0655  323.9873 LP  0  0  0  0  0  0  0  0  0  0  0  0  # atno 13502 bound_to 9025
  122.6204  242.9363  322.8900 LP  0  0  0  0  0  0  0  0  0  0  0  0  # atno 13503 bound_to 9025
  121.5918  239.4684  322.0554 LP  0  0  0  0  0  0  0  0  0  0  0  0  # atno 13504 bound_to 9068
  123.7490  238.8593  324.3162 LP  0  0  0  0  0  0  0  0  0  0  0  0  # atno 13505 bound_to 9071
  124.0425  239.0991  326.0063 LP  0  0  0  0  0  0  0  0  0  0  0  0  # atno 13506 bound_to 9071
  114.6273  239.0768  323.4331 LP  0  0  0  0  0  0  0  0  0  0  0  0  # atno 13507 bound_to 9079
  114.7241  237.5137  322.9704 LP  0  0  0  0  0  0  0  0  0  0  0  0  # atno 13508 bound_to 9079
  122.3352  239.9693  325.6758 LP  0  0  0  0  0  0  0  0  0  0  0  0  # atno 13509 bound_to 9106
  119.8666  238.9214  327.3884 LP  0  0  0  0  0  0  0  0  0  0  0  0  # atno 13510 bound_to 9109
  119.7497  238.1104  328.9143 LP  0  0  0  0  0  0  0  0  0  0  0  0  # atno 13511 bound_to 9109
  118.8152  238.1196  329.4917 LP  0  0  0  0  0  0  0  0  0  0  0  0  # atno 13512 bound_to 9183
  123.7126  247.4817  328.1642 LP  0  0  0  0  0  0  0  0  0  0  0  0  # atno 13519 bound_to 3592
  117.9128  247.3635  317.0854 LP  0  0  0  0  0  0  0  0  0  0  0  0  # atno 13520 bound_to 8978
  121.1630  247.1786  316.8932 LP  0  0  0  0  0  0  0  0  0  0  0  0  # atno 13521 bound_to 8981
  122.4114  246.1106  317.4417 LP  0  0  0  0  0  0  0  0  0  0  0  0  # atno 13522 bound_to 8981
  121.1213  237.1414  319.0495 LP  0  0  0  0  0  0  0  0  0  0  0  0  # atno 13523 bound_to 8351
  119.8097  237.8532  319.9288 LP  0  0  0  0  0  0  0  0  0  0  0  0  # atno 13524 bound_to 8351
  123.1453  237.5225  328.9398 LP  0  0  0  0  0  0  0  0  0  0  0  0  # atno 13525 bound_to 9136
  126.4588  237.5474  325.1568 LP  0  0  0  0  0  0  0  0  0  0  0  0  # atno 13526 bound_to 11049
  124.6073  246.4805  319.1294 LP  0  0  0  0  0  0  0  0  0  0  0  0  # atno 13527 bound_to 4888
  126.1376  247.0033  318.9023 LP  0  0  0  0  0  0  0  0  0  0  0  0  # atno 13528 bound_to 4888
  119.3055  245.2093  314.6008 LP  0  0  0  0  0  0  0  0  0  0  0  0  # atno 13529 bound_to 8983
  119.9713  243.7674  314.9806 LP  0  0  0  0  0  0  0  0  0  0  0  0  # atno 13530 bound_to 8983
  114.0641  247.9349  317.0402 LP  0  0  0  0  0  0  0  0  0  0  0  0  # atno 13531 bound_to 8454
  113.6899  249.1285  318.2382 LP  0  0  0  0  0  0  0  0  0  0  0  0  # atno 13532 bound_to 8454
  112.8145  245.0242  316.8340 LP  0  0  0  0  0  0  0  0  0  0  0  0  # atno 13533 bound_to 8432
  112.6972  243.5846  317.7899 LP  0  0  0  0  0  0  0  0  0  0  0  0  # atno 13534 bound_to 8432
  119.2603  249.6130  331.5319 LP  0  0  0  0  0  0  0  0  0  0  0  0  # atno 13535 bound_to 3502
  118.7525  249.2626  329.9135 LP  0  0  0  0  0  0  0  0  0  0  0  0  # atno 13536 bound_to 3502
  119.8502  251.2247  330.2926 LP  0  0  0  0  0  0  0  0  0  0  0  0  # atno 13537 bound_to 3542
  112.4293  247.0238  318.1264 LP  0  0  0  0  0  0  0  0  0  0  0  0  # atno 13538 bound_to 8482
  115.3387  249.6031  316.4605 LP  0  0  0  0  0  0  0  0  0  0  0  0  # atno 13539 bound_to 8943
  109.8235  248.4286  319.1571 LP  0  0  0  0  0  0  0  0  0  0  0  0  # atno 13541 bound_to 8506
  108.2053  243.3732  318.4482 LP  0  0  0  0  0  0  0  0  0  0  0  0  # atno 13542 bound_to 5571
  111.0440  255.4830  321.9948 LP  0  0  0  0  0  0  0  0  0  0  0  0  # atno 13543 bound_to 12828
  109.3204  255.4408  322.1605 LP  0  0  0  0  0  0  0  0  0  0  0  0  # atno 13544 bound_to 12828

> <Gold.Score>
     Fitness  S(hb_ext) S(vdw_ext)  S(hb_int)    S(int)      intcor
     41.02      12.07      21.71       0.00      -0.90      -0.78

> <Gold.Goldscore.Fitness>
41.0224

> <Gold.Goldscore.Internal.Vdw>
-1.0933

> <Gold.Goldscore.Internal.Torsion>
-0.5773

> <Gold.Goldscore.External.Vdw>
21.7092

> <Gold.Goldscore.Internal.HBond>
0.0000

> <Gold.Goldscore.External.HBond>
12.0676

> <Gold.Goldscore.Internal.Correction>
-0.7752

> <Gold.Goldscore.Hbonds>
donor molecule, donor type, donor heavy atom, donor atom, acceptor molecule, acceptor atom, score
      P1  H  5578  5587       L1    11  0.03
      L1  H     8    22       P1 13316  1.00
      L1  H    10    23       P1  8513  1.00

> <Gold.Goldscore.Internal.Vdw.Weighted>
-1.0933

> <Gold.Goldscore.Internal.Torsion.Weighted>
-0.5773

> <Gold.Goldscore.External.Vdw.Weighted>
29.8502

> <Gold.Goldscore.Internal.HBond.Weighted>
0.0000

> <Gold.Goldscore.External.HBond.Weighted>
12.0676

> <Gold.Goldscore.Internal.Correction.Weighted>
-0.7752

> <Gold.Rescore>
     Score     S(PLP)   S(hbond)     S(cho)   S(metal)  DE(clash)   DE(tors)     intcor
     34.95     -32.90       1.40       0.00       0.00       0.07       1.03       ----

> <Gold.PLP.Fitness>
34.9540

> <Gold.PLP.PLP>
-32.8971

> <Gold.PLP.part.hbond>
-2.2976

> <Gold.PLP.part.metal>
0.0000

> <Gold.PLP.part.buried>
-5.2671

> <Gold.PLP.part.nonpolar>
-28.9805

> <Gold.PLP.part.repulsive>
3.1728

> <Gold.PLP.ligand.clash>
0.0687

> <Gold.PLP.ligand.torsion>
1.0335

> <Gold.PLP.Chemscore.Hbond>
1.3975

> <Gold.PLP.Chemscore.CHOScore>
0.0000

> <Gold.PLP.Chemscore.Metal>
0.0000

> <Gold.Chemscore.Hbonds>
donor molecule, donor type, donor heavy atom, donor atom, acceptor molecule, acceptor atom, score
      L1  H     8    22       P1 13316  0.65
      L1  H    10    23       P1  8513  0.68

> <Gold.PLP.Chemscore.Internal.Correction>
   9.000000E+99

