#       Name:                CT1002167954
#       Creating user name   hitesit
#       Creation time:       Sun Apr 16 02:22:04 2023


#       File generated by GOLD software.
#

@<TRIPOS>MOLECULE
CT1002167954|ligand_prepared|mol2|1|dock1
    29    30     1
SMALL
NO_CHARGES


@<TRIPOS>ATOM
      1 C1         154.2910 113.4842 146.0044 C.3            1 RES1               0.0000
      2 C2         155.2641 114.5680 145.4973 C.ar           1 RES1               0.0000
      3 C3         153.2786 114.1997 146.8940 C.2            1 RES1               0.0000
      4 C4         153.6833 112.8416 144.7625 C.2            1 RES1               0.0000
      5 C5         154.9728 112.3708 146.8333 C.3            1 RES1               0.0000
      6 C6         154.9416 115.3482 144.3909 C.ar           1 RES1               0.0000
      7 C7         156.4844 114.8008 146.1259 C.ar           1 RES1               0.0000
      8 N8         152.0211 114.3832 146.3990 N.am           1 RES1               0.0000
      9 O9         153.5899 114.6314 147.9971 O.2            1 RES1               0.0000
     10 N10        152.3407 113.0087 144.5447 N.am           1 RES1               0.0000
     11 O11        154.3580 112.2061 143.9618 O.2            1 RES1               0.0000
     12 C12        154.0573 111.2013 147.1594 C.3            1 RES1               0.0000
     13 C13        155.8065 116.3276 143.9313 C.ar           1 RES1               0.0000
     14 C14        157.3479 115.7806 145.6646 C.ar           1 RES1               0.0000
     15 C15        151.4880 113.7762 145.2904 C.2            1 RES1               0.0000
     16 C16        157.0098 116.5447 144.5680 C.ar           1 RES1               0.0000
     17 O17        150.3041 113.9215 144.9998 O.2            1 RES1               0.0000
     18 H18        155.8396 111.9958 146.2754 H              1 RES1               0.0000
     19 H19        155.3400 112.8040 147.7719 H              1 RES1               0.0000
     20 H20        154.0001 115.1901 143.8755 H              1 RES1               0.0000
     21 H21        156.7718 114.2110 146.9897 H              1 RES1               0.0000
     22 H22        151.4217 115.0318 146.8994 H              1 RES1               0.0000
     23 H23        151.9399 112.5152 143.7534 H              1 RES1               0.0000
     24 H24        154.5850 110.4491 147.7419 H              1 RES1               0.0000
     25 H25        153.1967 111.5342 147.7360 H              1 RES1               0.0000
     26 H26        153.6934 110.7307 146.2484 H              1 RES1               0.0000
     27 H27        155.5363 116.9253 143.0671 H              1 RES1               0.0000
     28 H28        158.2942 115.9476 146.1684 H              1 RES1               0.0000
     29 H29        157.6870 117.3123 144.2080 H              1 RES1               0.0000
@<TRIPOS>BOND
    1    1    2 1     
    2    1    3 1     
    3    1    4 1     
    4    1    5 1     
    5    2    6 ar    
    6    2    7 ar    
    7    3    8 1     
    8    3    9 2     
    9    4   10 1     
   10    4   11 2     
   11    5   12 1     
   12    5   18 1     
   13    5   19 1     
   14    6   13 ar    
   15    6   20 1     
   16    7   14 ar    
   17    7   21 1     
   18    8   15 1     
   19    8   22 1     
   20   10   15 1     
   21   10   23 1     
   22   12   24 1     
   23   12   25 1     
   24   12   26 1     
   25   13   16 ar    
   26   13   27 1     
   27   14   16 ar    
   28   14   28 1     
   29   15   17 2     
   30   16   29 1     
@<TRIPOS>SUBSTRUCTURE
      1 RES1           1
@<TRIPOS>SET
DONOR_HYDROGENS      STATIC     ATOMS    <user>   **** ""
2 22 23
ATOM$RED        STATIC     ATOMS    COLORGROUP SYSTEM
2 22 23
@<TRIPOS>COMMENT
> <Gold.Version>
2022.3.0

> <Gold.Id.Protein>
unknown|7xmr_clean|pdb

> <Gold.Protein.RotatedTorsions>
[ 2787 2778 2777 2775 ] final -104.60 input   60.01 | X-H torsion
[ 2586 2581 2580 2577 ] final  127.01 input   60.02 | X-H torsion
[ 4081 4070 4069 4066 ] final -100.26 input   60.03 | X-H torsion
[ 2565 2560 2559 2556 ] final   70.43 input   59.98 | X-H torsion
[ 4125 4108 4107 4104 ] final  -17.22 input   60.01 | X-H torsion
[ 4210 4205 4204 4201 ] final -109.85 input   60.02 | X-H torsion
[ 4185 4180 4179 4176 ] final -129.05 input   59.98 | X-H torsion
[ 4064 4059 4058 4055 ] final  -95.51 input   60.03 | X-H torsion
[ 4290 4279 4278 4277 ] final  -45.61 input   59.98 | X-H torsion
[ 2901 2893 2892 2889 ] final  -57.36 input   60.03 | X-H torsion
[ 3984 3975 3974 3972 ] final  151.42 input   59.97 | X-H torsion
[ 4508 4487 4486 4484 ] final  -95.38 input   60.01 | X-H torsion
[  215  214  213  211 ] final  -80.75 input   59.98 | X-H torsion
[ 4472 4467 4466 4463 ] final  -69.17 input   60.02 | X-H torsion
[ 2798 2793 2792 2789 ] final  -24.60 input   60.00 | X-H torsion

> <Gold.Protein.ActiveResidues>
 ASP39   ASN43   TYR50   PHE92   GLY95   LEU96   LEU99   GLN102  VAL103  LEU105 
 VAL106  HIS107  TRP108  CYS115  VAL118  MET119  VAL121  ASP122  GLY123  ILE124 
 ASN125  GLN126  PHE127  ILE130  ILE174  PRO176  ILE177  TYR180  LEU183  ARG184 
 SER185  ASN186  GLN187  TRP188  ARG190  SER191  SER192  CYS193  THR194  ILE195 
 ASN196  TRP197  PRO198  GLY199  GLU200  SER201  GLY202  ALA203  TRP204  TYR205 
 THR206  GLY207  PHE208  ILE209  ILE210  TYR211  THR212  PHE213  LEU215  GLY216 
 PHE217  TRP269  PHE272  TYR273  PHE275  ASN276  VAL277  SER278  SER279  VAL280 
 SER281  MET282  ALA283  ILE284  SER285  PRO286  THR287  PRO288  ALA289  LEU290 
 LYS291  GLY292  MET293  PHE294  ASP295  VAL297  VAL298  VAL299  THR301  TYR302 

> <Gold.Protein.RotatedAtoms>
  146.9249  117.4656  146.2417 H   0  0  0  0  0  0  0  0  0  0  0  0  # atno 215  bound_to 214 
  151.4511  108.4574  141.3505 H   0  0  0  0  0  0  0  0  0  0  0  0  # atno 2565 bound_to 2560
  153.8844  112.2511  138.1280 H   0  0  0  0  0  0  0  0  0  0  0  0  # atno 2586 bound_to 2581
  159.9298  110.4325  133.5625 H   0  0  0  0  0  0  0  0  0  0  0  0  # atno 2787 bound_to 2778
  165.1627  122.0232  133.8120 H   0  0  0  0  0  0  0  0  0  0  0  0  # atno 2798 bound_to 2793
  153.9331  125.5885  134.2095 H   0  0  0  0  0  0  0  0  0  0  0  0  # atno 2901 bound_to 2893
  152.0025  126.8395  136.3891 H   0  0  0  0  0  0  0  0  0  0  0  0  # atno 3984 bound_to 3975
  162.1045  123.7245  144.7735 H   0  0  0  0  0  0  0  0  0  0  0  0  # atno 4064 bound_to 4059
  160.1475  118.9363  141.8380 H   0  0  0  0  0  0  0  0  0  0  0  0  # atno 4081 bound_to 4070
  165.9568  120.9589  141.3586 H   0  0  0  0  0  0  0  0  0  0  0  0  # atno 4125 bound_to 4108
  166.8547  113.4355  152.1518 H   0  0  0  0  0  0  0  0  0  0  0  0  # atno 4185 bound_to 4180
  162.7601  113.7270  154.3534 H   0  0  0  0  0  0  0  0  0  0  0  0  # atno 4210 bound_to 4205
  151.3378  112.5553  149.0928 H   0  0  0  0  0  0  0  0  0  0  0  0  # atno 4290 bound_to 4279
  151.4484  110.9097  148.9236 H   0  0  0  0  0  0  0  0  0  0  0  0  # atno 4291 bound_to 4279
  149.9802  111.6155  149.2306 H   0  0  0  0  0  0  0  0  0  0  0  0  # atno 4292 bound_to 4279
  149.0858  126.8454  143.3405 H   0  0  0  0  0  0  0  0  0  0  0  0  # atno 4472 bound_to 4467
  143.6869  120.2481  139.7473 H   0  0  0  0  0  0  0  0  0  0  0  0  # atno 4508 bound_to 4487
  160.4260  110.2316  135.0997 LP  0  0  0  0  0  0  0  0  0  0  0  0  # atno 12998 bound_to 2778
  161.4353  109.8910  133.8620 LP  0  0  0  0  0  0  0  0  0  0  0  0  # atno 12999 bound_to 2778
  153.2900  112.3829  136.6184 LP  0  0  0  0  0  0  0  0  0  0  0  0  # atno 13010 bound_to 2581
  154.7869  111.7765  136.8593 LP  0  0  0  0  0  0  0  0  0  0  0  0  # atno 13011 bound_to 2581
  160.0899  117.3184  142.0044 LP  0  0  0  0  0  0  0  0  0  0  0  0  # atno 13012 bound_to 4070
  161.3669  118.0213  141.2684 LP  0  0  0  0  0  0  0  0  0  0  0  0  # atno 13013 bound_to 4070
  152.2883  107.9740  140.0415 LP  0  0  0  0  0  0  0  0  0  0  0  0  # atno 13016 bound_to 2560
  153.0732  108.3497  141.4233 LP  0  0  0  0  0  0  0  0  0  0  0  0  # atno 13017 bound_to 2560
  166.1595  122.5367  141.0154 LP  0  0  0  0  0  0  0  0  0  0  0  0  # atno 13032 bound_to 4108
  167.2931  121.7325  141.8725 LP  0  0  0  0  0  0  0  0  0  0  0  0  # atno 13033 bound_to 4108
  162.4324  114.6696  153.0680 LP  0  0  0  0  0  0  0  0  0  0  0  0  # atno 13042 bound_to 4205
  162.2300  113.0521  152.9708 LP  0  0  0  0  0  0  0  0  0  0  0  0  # atno 13043 bound_to 4205
  165.3700  113.1624  152.7605 LP  0  0  0  0  0  0  0  0  0  0  0  0  # atno 13048 bound_to 4180
  165.5442  114.0065  151.3735 LP  0  0  0  0  0  0  0  0  0  0  0  0  # atno 13049 bound_to 4180
  162.4340  122.6911  145.9863 LP  0  0  0  0  0  0  0  0  0  0  0  0  # atno 13052 bound_to 4059
  162.0379  122.1206  144.5084 LP  0  0  0  0  0  0  0  0  0  0  0  0  # atno 13053 bound_to 4059
  153.2896  124.0957  134.1377 LP  0  0  0  0  0  0  0  0  0  0  0  0  # atno 13090 bound_to 2893
  152.9972  125.1723  132.9451 LP  0  0  0  0  0  0  0  0  0  0  0  0  # atno 13091 bound_to 2893
  153.1490  126.0370  135.5580 LP  0  0  0  0  0  0  0  0  0  0  0  0  # atno 13098 bound_to 3975
  153.0342  127.6614  135.4357 LP  0  0  0  0  0  0  0  0  0  0  0  0  # atno 13099 bound_to 3975
  142.5655  119.3079  140.4594 LP  0  0  0  0  0  0  0  0  0  0  0  0  # atno 13102 bound_to 4487
  144.1342  119.1859  140.8963 LP  0  0  0  0  0  0  0  0  0  0  0  0  # atno 13103 bound_to 4487
  147.4828  118.1609  147.6028 LP  0  0  0  0  0  0  0  0  0  0  0  0  # atno 13112 bound_to 214 
  146.7801  119.0734  146.4452 LP  0  0  0  0  0  0  0  0  0  0  0  0  # atno 13113 bound_to 214 
  149.3504  125.2491  143.1690 LP  0  0  0  0  0  0  0  0  0  0  0  0  # atno 13120 bound_to 4467
  148.8876  125.8524  144.6142 LP  0  0  0  0  0  0  0  0  0  0  0  0  # atno 13121 bound_to 4467

> <Gold.Score>
     Fitness  S(hb_ext) S(vdw_ext)  S(hb_int)    S(int)      intcor
     31.76       5.56      19.22       0.00      -0.23      -0.78

> <Gold.Goldscore.Fitness>
31.7569

> <Gold.Goldscore.Internal.Vdw>
-0.5332

> <Gold.Goldscore.Internal.Torsion>
-0.4791

> <Gold.Goldscore.External.Vdw>
19.2188

> <Gold.Goldscore.Internal.HBond>
0.0000

> <Gold.Goldscore.External.HBond>
5.5635

> <Gold.Goldscore.Internal.Correction>
-0.7799

> <Gold.Goldscore.Hbonds>
donor molecule, donor type, donor heavy atom, donor atom, acceptor molecule, acceptor atom, score
      L1  H     8    22       P1  4350  0.93

> <Gold.Goldscore.Internal.Vdw.Weighted>
-0.5332

> <Gold.Goldscore.Internal.Torsion.Weighted>
-0.4791

> <Gold.Goldscore.External.Vdw.Weighted>
26.4258

> <Gold.Goldscore.Internal.HBond.Weighted>
0.0000

> <Gold.Goldscore.External.HBond.Weighted>
5.5635

> <Gold.Goldscore.Internal.Correction.Weighted>
-0.7799

> <Gold.Rescore>
     Score     S(PLP)   S(hbond)     S(cho)   S(metal)  DE(clash)   DE(tors)     intcor
     32.36     -30.12       1.00       0.00       0.00       0.00       0.38       ----

> <Gold.PLP.Fitness>
32.3585

> <Gold.PLP.PLP>
-30.1205

> <Gold.PLP.part.hbond>
-1.0000

> <Gold.PLP.part.metal>
0.0000

> <Gold.PLP.part.buried>
0.3904

> <Gold.PLP.part.nonpolar>
-29.7912

> <Gold.PLP.part.repulsive>
1.5995

> <Gold.PLP.ligand.clash>
0.0000

> <Gold.PLP.ligand.torsion>
0.3810

> <Gold.PLP.Chemscore.Hbond>
1.0000

> <Gold.PLP.Chemscore.CHOScore>
0.0000

> <Gold.PLP.Chemscore.Metal>
0.0000

> <Gold.Chemscore.Hbonds>
donor molecule, donor type, donor heavy atom, donor atom, acceptor molecule, acceptor atom, score
      L1  H     8    22       P1  4350  1.00

> <Gold.PLP.Chemscore.Internal.Correction>
   9.000000E+99

