#       Name:                CT1002167954
#       Creating user name   hitesit
#       Creation time:       Sun Apr 16 02:22:14 2023


#       File generated by GOLD software.
#

@<TRIPOS>MOLECULE
CT1002167954|ligand_prepared|mol2|1|dock10
    29    30     1
SMALL
NO_CHARGES


@<TRIPOS>ATOM
      1 C1         152.1367 110.3487 145.9278 C.3            1 RES1               0.0000
      2 C2         152.7235 111.6769 146.4479 C.ar           1 RES1               0.0000
      3 C3         152.6645 110.1744 144.5068 C.2            1 RES1               0.0000
      4 C4         152.5985 109.2687 146.8999 C.2            1 RES1               0.0000
      5 C5         150.5911 110.3231 145.8843 C.3            1 RES1               0.0000
      6 C6         151.9166 112.8023 146.5856 C.ar           1 RES1               0.0000
      7 C7         154.0668 111.7911 146.7958 C.ar           1 RES1               0.0000
      8 N8         153.6380 109.2410 144.3045 N.am           1 RES1               0.0000
      9 O9         152.2609 110.8728 143.5851 O.2            1 RES1               0.0000
     10 N10        153.4569 108.3084 146.4322 N.am           1 RES1               0.0000
     11 O11        152.2398 109.2501 148.0709 O.2            1 RES1               0.0000
     12 C12        150.0103 108.9658 145.5202 C.3            1 RES1               0.0000
     13 C13        152.4331 113.9979 147.0569 C.ar           1 RES1               0.0000
     14 C14        154.5814 112.9878 147.2667 C.ar           1 RES1               0.0000
     15 C15        154.0218 108.2633 145.1868 C.2            1 RES1               0.0000
     16 C16        153.7656 114.0913 147.3982 C.ar           1 RES1               0.0000
     17 O17        154.8281 107.3980 144.8577 O.2            1 RES1               0.0000
     18 H18        150.2052 110.6201 146.8673 H              1 RES1               0.0000
     19 H19        150.2461 111.0628 145.1512 H              1 RES1               0.0000
     20 H20        150.8661 112.7485 146.3197 H              1 RES1               0.0000
     21 H21        154.7275 110.9363 146.6996 H              1 RES1               0.0000
     22 H22        154.1258 109.2728 143.4149 H              1 RES1               0.0000
     23 H23        153.6971 107.5576 147.0718 H              1 RES1               0.0000
     24 H24        148.9231 109.0032 145.5038 H              1 RES1               0.0000
     25 H25        150.3534 108.6506 144.5369 H              1 RES1               0.0000
     26 H26        150.3126 108.2105 146.2427 H              1 RES1               0.0000
     27 H27        151.7872 114.8639 147.1572 H              1 RES1               0.0000
     28 H28        155.6308 113.0569 147.5335 H              1 RES1               0.0000
     29 H29        154.1699 115.0279 147.7677 H              1 RES1               0.0000
@<TRIPOS>BOND
    1    1    2 1     
    2    1    3 1     
    3    1    4 1     
    4    1    5 1     
    5    2    6 ar    
    6    2    7 ar    
    7    3    8 1     
    8    3    9 2     
    9    4   10 1     
   10    4   11 2     
   11    5   12 1     
   12    5   18 1     
   13    5   19 1     
   14    6   13 ar    
   15    6   20 1     
   16    7   14 ar    
   17    7   21 1     
   18    8   15 1     
   19    8   22 1     
   20   10   15 1     
   21   10   23 1     
   22   12   24 1     
   23   12   25 1     
   24   12   26 1     
   25   13   16 ar    
   26   13   27 1     
   27   14   16 ar    
   28   14   28 1     
   29   15   17 2     
   30   16   29 1     
@<TRIPOS>SUBSTRUCTURE
      1 RES1           1
@<TRIPOS>SET
DONOR_HYDROGENS      STATIC     ATOMS    <user>   **** ""
2 22 23
ATOM$RED        STATIC     ATOMS    COLORGROUP SYSTEM
2 22 23
@<TRIPOS>COMMENT
> <Gold.Version>
2022.3.0

> <Gold.Id.Protein>
unknown|7xmr_clean|pdb

> <Gold.Protein.RotatedTorsions>
[ 2787 2778 2777 2775 ] final   14.81 input   60.01 | X-H torsion
[ 2586 2581 2580 2577 ] final  -80.69 input   60.02 | X-H torsion
[ 4081 4070 4069 4066 ] final  134.06 input   60.03 | X-H torsion
[ 2565 2560 2559 2556 ] final  119.32 input   59.98 | X-H torsion
[ 4125 4108 4107 4104 ] final  -11.52 input   60.01 | X-H torsion
[ 4210 4205 4204 4201 ] final  149.21 input   60.02 | X-H torsion
[ 4185 4180 4179 4176 ] final -175.90 input   59.98 | X-H torsion
[ 4064 4059 4058 4055 ] final -124.53 input   60.03 | X-H torsion
[ 4290 4279 4278 4277 ] final  -49.05 input   59.98 | X-H torsion
[ 2901 2893 2892 2889 ] final  111.89 input   60.03 | X-H torsion
[ 3984 3975 3974 3972 ] final   22.98 input   59.97 | X-H torsion
[ 4508 4487 4486 4484 ] final  137.22 input   60.01 | X-H torsion
[  215  214  213  211 ] final -102.75 input   59.98 | X-H torsion
[ 4472 4467 4466 4463 ] final  150.37 input   60.02 | X-H torsion
[ 2798 2793 2792 2789 ] final  -20.94 input   60.00 | X-H torsion

> <Gold.Protein.ActiveResidues>
 ASP39   ASN43   TYR50   PHE92   GLY95   LEU96   LEU99   GLN102  VAL103  LEU105 
 VAL106  HIS107  TRP108  CYS115  VAL118  MET119  VAL121  ASP122  GLY123  ILE124 
 ASN125  GLN126  PHE127  ILE130  ILE174  PRO176  ILE177  TYR180  LEU183  ARG184 
 SER185  ASN186  GLN187  TRP188  ARG190  SER191  SER192  CYS193  THR194  ILE195 
 ASN196  TRP197  PRO198  GLY199  GLU200  SER201  GLY202  ALA203  TRP204  TYR205 
 THR206  GLY207  PHE208  ILE209  ILE210  TYR211  THR212  PHE213  LEU215  GLY216 
 PHE217  TRP269  PHE272  TYR273  PHE275  ASN276  VAL277  SER278  SER279  VAL280 
 SER281  MET282  ALA283  ILE284  SER285  PRO286  THR287  PRO288  ALA289  LEU290 
 LYS291  GLY292  MET293  PHE294  ASP295  VAL297  VAL298  VAL299  THR301  TYR302 

> <Gold.Protein.RotatedAtoms>
  147.0857  117.3254  146.5283 H   0  0  0  0  0  0  0  0  0  0  0  0  # atno 215  bound_to 214 
  152.0703  108.5518  141.8069 H   0  0  0  0  0  0  0  0  0  0  0  0  # atno 2565 bound_to 2560
  154.4757  111.8718  136.4500 H   0  0  0  0  0  0  0  0  0  0  0  0  # atno 2586 bound_to 2581
  161.4275  109.8959  133.8549 H   0  0  0  0  0  0  0  0  0  0  0  0  # atno 2787 bound_to 2778
  165.1327  122.0138  133.8629 H   0  0  0  0  0  0  0  0  0  0  0  0  # atno 2798 bound_to 2793
  152.8627  124.4443  133.2001 H   0  0  0  0  0  0  0  0  0  0  0  0  # atno 2901 bound_to 2893
  153.2304  126.1205  135.4835 H   0  0  0  0  0  0  0  0  0  0  0  0  # atno 3984 bound_to 3975
  162.2258  123.7730  145.2239 H   0  0  0  0  0  0  0  0  0  0  0  0  # atno 4064 bound_to 4059
  160.1655  117.2754  141.9707 H   0  0  0  0  0  0  0  0  0  0  0  0  # atno 4081 bound_to 4070
  166.0239  120.9170  141.4077 H   0  0  0  0  0  0  0  0  0  0  0  0  # atno 4125 bound_to 4108
  166.4879  113.1132  152.7141 H   0  0  0  0  0  0  0  0  0  0  0  0  # atno 4185 bound_to 4180
  162.5325  114.7437  153.3532 H   0  0  0  0  0  0  0  0  0  0  0  0  # atno 4210 bound_to 4205
  151.2860  112.5782  149.1034 H   0  0  0  0  0  0  0  0  0  0  0  0  # atno 4290 bound_to 4279
  151.4946  110.9437  148.9191 H   0  0  0  0  0  0  0  0  0  0  0  0  # atno 4291 bound_to 4279
  149.9858  111.5585  149.2245 H   0  0  0  0  0  0  0  0  0  0  0  0  # atno 4292 bound_to 4279
  149.2914  125.1000  143.4617 H   0  0  0  0  0  0  0  0  0  0  0  0  # atno 4472 bound_to 4467
  142.6114  119.2353  140.5454 H   0  0  0  0  0  0  0  0  0  0  0  0  # atno 4508 bound_to 4487
  159.9188  110.4344  133.5659 LP  0  0  0  0  0  0  0  0  0  0  0  0  # atno 12998 bound_to 2778
  160.4350  110.2284  135.1015 LP  0  0  0  0  0  0  0  0  0  0  0  0  # atno 12999 bound_to 2778
  154.3624  112.0489  138.0642 LP  0  0  0  0  0  0  0  0  0  0  0  0  # atno 13010 bound_to 2581
  153.1195  112.4923  137.1023 LP  0  0  0  0  0  0  0  0  0  0  0  0  # atno 13011 bound_to 2581
  161.3659  118.1143  141.2609 LP  0  0  0  0  0  0  0  0  0  0  0  0  # atno 13012 bound_to 4070
  160.0728  118.8975  141.8782 LP  0  0  0  0  0  0  0  0  0  0  0  0  # atno 13013 bound_to 4070
  151.5738  108.1212  140.3181 LP  0  0  0  0  0  0  0  0  0  0  0  0  # atno 13016 bound_to 2560
  153.1644  108.1076  140.6871 LP  0  0  0  0  0  0  0  0  0  0  0  0  # atno 13017 bound_to 2560
  166.0841  122.4881  140.9880 LP  0  0  0  0  0  0  0  0  0  0  0  0  # atno 13032 bound_to 4108
  167.3009  121.8233  141.8505 LP  0  0  0  0  0  0  0  0  0  0  0  0  # atno 13033 bound_to 4108
  162.1807  113.2720  152.7545 LP  0  0  0  0  0  0  0  0  0  0  0  0  # atno 13042 bound_to 4205
  162.7107  113.4260  154.2914 LP  0  0  0  0  0  0  0  0  0  0  0  0  # atno 13043 bound_to 4205
  164.9908  113.5202  152.2219 LP  0  0  0  0  0  0  0  0  0  0  0  0  # atno 13048 bound_to 4180
  166.2925  113.9731  151.3461 LP  0  0  0  0  0  0  0  0  0  0  0  0  # atno 13049 bound_to 4180
  162.3856  122.2598  145.7999 LP  0  0  0  0  0  0  0  0  0  0  0  0  # atno 13052 bound_to 4059
  161.9641  122.5030  144.2411 LP  0  0  0  0  0  0  0  0  0  0  0  0  # atno 13053 bound_to 4059
  153.6242  125.8424  133.5364 LP  0  0  0  0  0  0  0  0  0  0  0  0  # atno 13090 bound_to 2893
  153.7409  124.5782  134.5633 LP  0  0  0  0  0  0  0  0  0  0  0  0  # atno 13091 bound_to 2893
  152.9332  127.7205  135.5102 LP  0  0  0  0  0  0  0  0  0  0  0  0  # atno 13098 bound_to 3975
  152.0138  126.7016  136.3952 LP  0  0  0  0  0  0  0  0  0  0  0  0  # atno 13099 bound_to 3975
  144.2121  119.2592  140.8385 LP  0  0  0  0  0  0  0  0  0  0  0  0  # atno 13102 bound_to 4487
  143.5702  120.2541  139.7139 LP  0  0  0  0  0  0  0  0  0  0  0  0  # atno 13103 bound_to 4487
  147.4206  118.5150  147.5866 LP  0  0  0  0  0  0  0  0  0  0  0  0  # atno 13112 bound_to 214 
  146.6803  118.8605  146.1727 LP  0  0  0  0  0  0  0  0  0  0  0  0  # atno 13113 bound_to 214 
  148.8485  126.1843  144.5911 LP  0  0  0  0  0  0  0  0  0  0  0  0  # atno 13120 bound_to 4467
  149.1824  126.6755  143.0700 LP  0  0  0  0  0  0  0  0  0  0  0  0  # atno 13121 bound_to 4467

> <Gold.Score>
     Fitness  S(hb_ext) S(vdw_ext)  S(hb_int)    S(int)      intcor
     30.28       6.34      17.91       0.00      -0.69      -0.76

> <Gold.Goldscore.Fitness>
30.2791

> <Gold.Goldscore.Internal.Vdw>
-1.0183

> <Gold.Goldscore.Internal.Torsion>
-0.4300

> <Gold.Goldscore.External.Vdw>
17.9128

> <Gold.Goldscore.Internal.HBond>
0.0000

> <Gold.Goldscore.External.HBond>
6.3387

> <Gold.Goldscore.Internal.Correction>
-0.7585

> <Gold.Goldscore.Hbonds>
donor molecule, donor type, donor heavy atom, donor atom, acceptor molecule, acceptor atom, score
      P1  H  2560  2565       L1     9  0.17
      P1  H  4279  4291       L1    11  1.00

> <Gold.Goldscore.Internal.Vdw.Weighted>
-1.0183

> <Gold.Goldscore.Internal.Torsion.Weighted>
-0.4300

> <Gold.Goldscore.External.Vdw.Weighted>
24.6302

> <Gold.Goldscore.Internal.HBond.Weighted>
0.0000

> <Gold.Goldscore.External.HBond.Weighted>
6.3387

> <Gold.Goldscore.Internal.Correction.Weighted>
-0.7585

> <Gold.Rescore>
     Score     S(PLP)   S(hbond)     S(cho)   S(metal)  DE(clash)   DE(tors)     intcor
     27.37     -24.81       1.00       0.00       0.00       0.00       0.22       ----

> <Gold.PLP.Fitness>
27.3685

> <Gold.PLP.PLP>
-24.8139

> <Gold.PLP.part.hbond>
-1.0000

> <Gold.PLP.part.metal>
0.0000

> <Gold.PLP.part.buried>
-0.0723

> <Gold.PLP.part.nonpolar>
-22.7531

> <Gold.PLP.part.repulsive>
0.0133

> <Gold.PLP.ligand.clash>
0.0000

> <Gold.PLP.ligand.torsion>
0.2227

> <Gold.PLP.Chemscore.Hbond>
1.0000

> <Gold.PLP.Chemscore.CHOScore>
0.0000

> <Gold.PLP.Chemscore.Metal>
0.0000

> <Gold.Chemscore.Hbonds>
donor molecule, donor type, donor heavy atom, donor atom, acceptor molecule, acceptor atom, score
      P1  H  4279  4291       L1    11  1.00

> <Gold.PLP.Chemscore.Internal.Correction>
   9.000000E+99

