#       Name:                CT1002167954
#       Creating user name   hitesit
#       Creation time:       Sun Apr 16 02:22:11 2023


#       File generated by GOLD software.
#

@<TRIPOS>MOLECULE
CT1002167954|ligand_prepared|mol2|1|dock7
    29    30     1
SMALL
NO_CHARGES


@<TRIPOS>ATOM
      1 C1         152.5568 112.5421 144.8706 C.3            1 RES1               0.0000
      2 C2         151.6184 111.3433 145.1176 C.ar           1 RES1               0.0000
      3 C3         151.8726 113.7568 145.4908 C.2            1 RES1               0.0000
      4 C4         153.8894 112.1810 145.5174 C.2            1 RES1               0.0000
      5 C5         152.8158 112.8349 143.3744 C.3            1 RES1               0.0000
      6 C6         151.6595 110.2281 144.2862 C.ar           1 RES1               0.0000
      7 C7         150.7096 111.3370 146.1725 C.ar           1 RES1               0.0000
      8 N8         152.3839 114.2425 146.6581 N.am           1 RES1               0.0000
      9 O9         150.8756 114.2565 144.9842 O.2            1 RES1               0.0000
     10 N10        154.3041 112.9242 146.5914 N.am           1 RES1               0.0000
     11 O11        154.5761 111.2491 145.1171 O.2            1 RES1               0.0000
     12 C12        153.6022 114.1126 143.1268 C.3            1 RES1               0.0000
     13 C13        150.8247 109.1445 144.5032 C.ar           1 RES1               0.0000
     14 C14        149.8755 110.2524 146.3876 C.ar           1 RES1               0.0000
     15 C15        153.5972 113.9190 147.2102 C.2            1 RES1               0.0000
     16 C16        149.9325 109.1557 145.5541 C.ar           1 RES1               0.0000
     17 O17        154.0135 114.5049 148.2054 O.2            1 RES1               0.0000
     18 H18        153.3663 111.9916 142.9396 H              1 RES1               0.0000
     19 H19        151.8513 112.9082 142.8568 H              1 RES1               0.0000
     20 H20        152.3535 110.2023 143.4526 H              1 RES1               0.0000
     21 H21        150.6466 112.1894 146.8404 H              1 RES1               0.0000
     22 H22        151.8110 114.9077 147.1677 H              1 RES1               0.0000
     23 H23        155.2253 112.7168 146.9640 H              1 RES1               0.0000
     24 H24        153.7560 114.2705 142.0614 H              1 RES1               0.0000
     25 H25        153.0715 114.9753 143.5241 H              1 RES1               0.0000
     26 H26        154.5776 114.0642 143.6065 H              1 RES1               0.0000
     27 H27        150.8725 108.2843 143.8436 H              1 RES1               0.0000
     28 H28        149.1744 110.2658 147.2156 H              1 RES1               0.0000
     29 H29        149.2789 108.3065 145.7242 H              1 RES1               0.0000
@<TRIPOS>BOND
    1    1    2 1     
    2    1    3 1     
    3    1    4 1     
    4    1    5 1     
    5    2    6 ar    
    6    2    7 ar    
    7    3    8 1     
    8    3    9 2     
    9    4   10 1     
   10    4   11 2     
   11    5   12 1     
   12    5   18 1     
   13    5   19 1     
   14    6   13 ar    
   15    6   20 1     
   16    7   14 ar    
   17    7   21 1     
   18    8   15 1     
   19    8   22 1     
   20   10   15 1     
   21   10   23 1     
   22   12   24 1     
   23   12   25 1     
   24   12   26 1     
   25   13   16 ar    
   26   13   27 1     
   27   14   16 ar    
   28   14   28 1     
   29   15   17 2     
   30   16   29 1     
@<TRIPOS>SUBSTRUCTURE
      1 RES1           1
@<TRIPOS>SET
DONOR_HYDROGENS      STATIC     ATOMS    <user>   **** ""
2 22 23
ATOM$RED        STATIC     ATOMS    COLORGROUP SYSTEM
2 22 23
@<TRIPOS>COMMENT
> <Gold.Version>
2022.3.0

> <Gold.Id.Protein>
unknown|7xmr_clean|pdb

> <Gold.Protein.RotatedTorsions>
[ 2787 2778 2777 2775 ] final -155.50 input   60.01 | X-H torsion
[ 2586 2581 2580 2577 ] final  116.04 input   60.02 | X-H torsion
[ 4081 4070 4069 4066 ] final -128.52 input   60.03 | X-H torsion
[ 2565 2560 2559 2556 ] final -162.78 input   59.98 | X-H torsion
[ 4125 4108 4107 4104 ] final  -88.82 input   60.01 | X-H torsion
[ 4210 4205 4204 4201 ] final -135.49 input   60.02 | X-H torsion
[ 4185 4180 4179 4176 ] final    5.88 input   59.98 | X-H torsion
[ 4064 4059 4058 4055 ] final  117.45 input   60.03 | X-H torsion
[ 4290 4279 4278 4277 ] final -155.39 input   59.98 | X-H torsion
[ 2901 2893 2892 2889 ] final -112.35 input   60.03 | X-H torsion
[ 3984 3975 3974 3972 ] final   98.08 input   59.97 | X-H torsion
[ 4508 4487 4486 4484 ] final  -83.71 input   60.01 | X-H torsion
[  215  214  213  211 ] final  -39.44 input   59.98 | X-H torsion
[ 4472 4467 4466 4463 ] final  -71.51 input   60.02 | X-H torsion
[ 2798 2793 2792 2789 ] final  151.29 input   60.00 | X-H torsion

> <Gold.Protein.ActiveResidues>
 ASP39   ASN43   TYR50   PHE92   GLY95   LEU96   LEU99   GLN102  VAL103  LEU105 
 VAL106  HIS107  TRP108  CYS115  VAL118  MET119  VAL121  ASP122  GLY123  ILE124 
 ASN125  GLN126  PHE127  ILE130  ILE174  PRO176  ILE177  TYR180  LEU183  ARG184 
 SER185  ASN186  GLN187  TRP188  ARG190  SER191  SER192  CYS193  THR194  ILE195 
 ASN196  TRP197  PRO198  GLY199  GLU200  SER201  GLY202  ALA203  TRP204  TYR205 
 THR206  GLY207  PHE208  ILE209  ILE210  TYR211  THR212  PHE213  LEU215  GLY216 
 PHE217  TRP269  PHE272  TYR273  PHE275  ASN276  VAL277  SER278  SER279  VAL280 
 SER281  MET282  ALA283  ILE284  SER285  PRO286  THR287  PRO288  ALA289  LEU290 
 LYS291  GLY292  MET293  PHE294  ASP295  VAL297  VAL298  VAL299  THR301  TYR302 

> <Gold.Protein.RotatedAtoms>
  146.6928  118.0014  145.9333 H   0  0  0  0  0  0  0  0  0  0  0  0  # atno 215  bound_to 214 
  153.1192  108.3128  141.3284 H   0  0  0  0  0  0  0  0  0  0  0  0  # atno 2565 bound_to 2560
  153.7229  112.3152  138.0849 H   0  0  0  0  0  0  0  0  0  0  0  0  # atno 2586 bound_to 2581
  159.7266  110.4934  134.3390 H   0  0  0  0  0  0  0  0  0  0  0  0  # atno 2787 bound_to 2778
  166.6630  121.3864  134.7284 H   0  0  0  0  0  0  0  0  0  0  0  0  # atno 2798 bound_to 2793
  153.8469  124.8123  134.5797 H   0  0  0  0  0  0  0  0  0  0  0  0  # atno 2901 bound_to 2893
  152.3476  126.0949  136.2067 H   0  0  0  0  0  0  0  0  0  0  0  0  # atno 3984 bound_to 3975
  162.3912  122.2898  145.8132 H   0  0  0  0  0  0  0  0  0  0  0  0  # atno 4064 bound_to 4059
  159.8469  118.6450  142.0220 H   0  0  0  0  0  0  0  0  0  0  0  0  # atno 4081 bound_to 4070
  165.6908  121.9313  140.9301 H   0  0  0  0  0  0  0  0  0  0  0  0  # atno 4125 bound_to 4108
  165.3391  113.9453  151.4910 H   0  0  0  0  0  0  0  0  0  0  0  0  # atno 4185 bound_to 4180
  162.7820  114.1371  154.2902 H   0  0  0  0  0  0  0  0  0  0  0  0  # atno 4210 bound_to 4205
  149.9836  111.7846  149.2461 H   0  0  0  0  0  0  0  0  0  0  0  0  # atno 4290 bound_to 4279
  151.4820  112.4697  149.0608 H   0  0  0  0  0  0  0  0  0  0  0  0  # atno 4291 bound_to 4279
  151.3003  110.8264  148.9402 H   0  0  0  0  0  0  0  0  0  0  0  0  # atno 4292 bound_to 4279
  149.0966  126.8306  143.3071 H   0  0  0  0  0  0  0  0  0  0  0  0  # atno 4472 bound_to 4467
  143.8641  120.2202  139.8108 H   0  0  0  0  0  0  0  0  0  0  0  0  # atno 4508 bound_to 4487
  161.1653  109.9719  134.8936 LP  0  0  0  0  0  0  0  0  0  0  0  0  # atno 12998 bound_to 2778
  160.9007  110.0895  133.2865 LP  0  0  0  0  0  0  0  0  0  0  0  0  # atno 12999 bound_to 2778
  153.4018  112.3260  136.4891 LP  0  0  0  0  0  0  0  0  0  0  0  0  # atno 13010 bound_to 2581
  154.8376  111.7690  137.0320 LP  0  0  0  0  0  0  0  0  0  0  0  0  # atno 13011 bound_to 2581
  160.4772  117.1592  141.8131 LP  0  0  0  0  0  0  0  0  0  0  0  0  # atno 13012 bound_to 4070
  161.2823  118.4738  141.2744 LP  0  0  0  0  0  0  0  0  0  0  0  0  # atno 13013 bound_to 4070
  151.5051  108.4857  141.4440 LP  0  0  0  0  0  0  0  0  0  0  0  0  # atno 13016 bound_to 2560
  152.1771  107.9837  140.0429 LP  0  0  0  0  0  0  0  0  0  0  0  0  # atno 13017 bound_to 2560
  167.1054  122.4187  141.5701 LP  0  0  0  0  0  0  0  0  0  0  0  0  # atno 13032 bound_to 4108
  166.6150  120.8714  141.7491 LP  0  0  0  0  0  0  0  0  0  0  0  0  # atno 13033 bound_to 4108
  162.3030  114.4172  152.7605 LP  0  0  0  0  0  0  0  0  0  0  0  0  # atno 13042 bound_to 4205
  162.3372  112.8917  153.3420 LP  0  0  0  0  0  0  0  0  0  0  0  0  # atno 13043 bound_to 4205
  166.8553  113.5656  151.9452 LP  0  0  0  0  0  0  0  0  0  0  0  0  # atno 13048 bound_to 4180
  165.5846  113.0902  152.8540 LP  0  0  0  0  0  0  0  0  0  0  0  0  # atno 13049 bound_to 4180
  161.9674  122.4730  144.2530 LP  0  0  0  0  0  0  0  0  0  0  0  0  # atno 13052 bound_to 4059
  162.2156  123.7842  145.1942 LP  0  0  0  0  0  0  0  0  0  0  0  0  # atno 13053 bound_to 4059
  152.8962  124.2623  133.3791 LP  0  0  0  0  0  0  0  0  0  0  0  0  # atno 13090 bound_to 2893
  153.4775  125.7876  133.3307 LP  0  0  0  0  0  0  0  0  0  0  0  0  # atno 13091 bound_to 2893
  153.4595  126.7436  135.2110 LP  0  0  0  0  0  0  0  0  0  0  0  0  # atno 13098 bound_to 3975
  152.3764  127.7043  135.9663 LP  0  0  0  0  0  0  0  0  0  0  0  0  # atno 13099 bound_to 3975
  142.5320  119.4378  140.3227 LP  0  0  0  0  0  0  0  0  0  0  0  0  # atno 13102 bound_to 4487
  143.9892  119.0840  140.9692 LP  0  0  0  0  0  0  0  0  0  0  0  0  # atno 13103 bound_to 4487
  147.4340  117.5637  147.3141 LP  0  0  0  0  0  0  0  0  0  0  0  0  # atno 13112 bound_to 214 
  147.0626  119.1309  147.0446 LP  0  0  0  0  0  0  0  0  0  0  0  0  # atno 13113 bound_to 214 
  149.3455  125.2262  143.1995 LP  0  0  0  0  0  0  0  0  0  0  0  0  # atno 13120 bound_to 4467
  148.8816  125.8902  144.6174 LP  0  0  0  0  0  0  0  0  0  0  0  0  # atno 13121 bound_to 4467

> <Gold.Score>
     Fitness  S(hb_ext) S(vdw_ext)  S(hb_int)    S(int)      intcor
     27.18       5.88      16.33       0.00      -1.15      -0.76

> <Gold.Goldscore.Fitness>
27.1760

> <Gold.Goldscore.Internal.Vdw>
-1.4672

> <Gold.Goldscore.Internal.Torsion>
-0.4485

> <Gold.Goldscore.External.Vdw>
16.3267

> <Gold.Goldscore.Internal.HBond>
0.0000

> <Gold.Goldscore.External.HBond>
5.8775

> <Gold.Goldscore.Internal.Correction>
-0.7650

> <Gold.Goldscore.Hbonds>
donor molecule, donor type, donor heavy atom, donor atom, acceptor molecule, acceptor atom, score
      L1  H     8    22       P1  4350  0.98

> <Gold.Goldscore.Internal.Vdw.Weighted>
-1.4672

> <Gold.Goldscore.Internal.Torsion.Weighted>
-0.4485

> <Gold.Goldscore.External.Vdw.Weighted>
22.4492

> <Gold.Goldscore.Internal.HBond.Weighted>
0.0000

> <Gold.Goldscore.External.HBond.Weighted>
5.8775

> <Gold.Goldscore.Internal.Correction.Weighted>
-0.7650

> <Gold.Rescore>
     Score     S(PLP)   S(hbond)     S(cho)   S(metal)  DE(clash)   DE(tors)     intcor
     24.77     -23.38       1.00       0.00       0.00       0.00       0.80       ----

> <Gold.PLP.Fitness>
24.7740

> <Gold.PLP.PLP>
-23.3783

> <Gold.PLP.part.hbond>
-1.0000

> <Gold.PLP.part.metal>
0.0000

> <Gold.PLP.part.buried>
-0.3185

> <Gold.PLP.part.nonpolar>
-21.5423

> <Gold.PLP.part.repulsive>
0.3416

> <Gold.PLP.ligand.clash>
0.0005

> <Gold.PLP.ligand.torsion>
0.8019

> <Gold.PLP.Chemscore.Hbond>
1.0000

> <Gold.PLP.Chemscore.CHOScore>
0.0000

> <Gold.PLP.Chemscore.Metal>
0.0000

> <Gold.Chemscore.Hbonds>
donor molecule, donor type, donor heavy atom, donor atom, acceptor molecule, acceptor atom, score
      L1  H     8    22       P1  4350  1.00

> <Gold.PLP.Chemscore.Internal.Correction>
   9.000000E+99

