#       Name:                GA Fitting Points
#       Creating user name   hitesit
#       Creation time:       Sun Apr 16 02:21:56 2023


#       Fitting Points Used by GA Software.
#

@<TRIPOS>MOLECULE
GA Fitting Points
  6641    0    0
SMALL
NO_CHARGES


@<TRIPOS>ATOM
      1 ****        13.7500   5.0000  -5.5000 Du        
      2 ****        13.7500   5.2500  -5.5000 Du        
      3 ****        13.7500   5.2500  -5.2500 Du        
      4 ****        13.7500   5.2500  -5.0000 Du        
      5 ****        13.7500   5.5000  -5.5000 Du        
      6 ****        13.7500   5.5000  -5.2500 Du        
      7 ****        13.7500   5.5000  -5.0000 Du        
      8 ****        13.7500   5.7500  -5.5000 Du        
      9 ****        13.7500   5.7500  -5.2500 Du        
     10 ****        13.7500   5.7500  -5.0000 Du        
     11 ****        13.7500   6.0000  -5.5000 Du        
     12 ****        13.7500   6.0000  -5.2500 Du        
     13 ****        13.7500   6.2500  -5.5000 Du        
     14 ****        13.7500   6.2500  -5.2500 Du        
     15 ****        14.0000   5.0000  -5.7500 Du        
     16 ****        14.0000   5.0000  -5.5000 Du        
     17 ****        14.0000   5.0000  -5.2500 Du        
     18 ****        14.0000   5.2500  -5.7500 Du        
     19 ****        14.0000   5.2500  -5.5000 Du        
     20 ****        14.0000   5.2500  -5.2500 Du        
     21 ****        14.0000   5.2500  -5.0000 Du        
     22 ****        14.0000   5.5000  -5.7500 Du        
     23 ****        14.0000   5.5000  -5.5000 Du        
     24 ****        14.0000   5.5000  -5.2500 Du        
     25 ****        14.0000   5.5000  -5.0000 Du        
     26 ****        14.0000   5.5000  -4.7500 Du        
     27 ****        14.0000   5.7500  -5.7500 Du        
     28 ****        14.0000   5.7500  -5.5000 Du        
     29 ****        14.0000   5.7500  -5.2500 Du        
     30 ****        14.0000   5.7500  -5.0000 Du        
     31 ****        14.0000   5.7500  -4.7500 Du        
     32 ****        14.0000   6.0000  -5.7500 Du        
     33 ****        14.0000   6.0000  -5.5000 Du        
     34 ****        14.0000   6.0000  -5.2500 Du        
     35 ****        14.0000   6.0000  -5.0000 Du        
     36 ****        14.0000   6.0000  -4.7500 Du        
     37 ****        14.0000   6.2500  -5.7500 Du        
     38 ****        14.0000   6.2500  -5.5000 Du        
     39 ****        14.0000   6.2500  -5.2500 Du        
     40 ****        14.0000   6.2500  -5.0000 Du        
     41 ****        14.2500   4.7500  -6.0000 Du        
     42 ****        14.2500   4.7500  -5.7500 Du        
     43 ****        14.2500   4.7500  -5.5000 Du        
     44 ****        14.2500   5.0000  -6.0000 Du        
     45 ****        14.2500   5.0000  -5.7500 Du        
     46 ****        14.2500   5.0000  -5.5000 Du        
     47 ****        14.2500   5.0000  -5.2500 Du        
     48 ****        14.2500   5.0000  -5.0000 Du        
     49 ****        14.2500   5.2500  -6.0000 Du        
     50 ****        14.2500   5.2500  -5.7500 Du        
     51 ****        14.2500   5.2500  -5.5000 Du        
     52 ****        14.2500   5.2500  -5.2500 Du        
     53 ****        14.2500   5.2500  -5.0000 Du        
     54 ****        14.2500   5.2500  -4.7500 Du        
     55 ****        14.2500   5.5000  -6.0000 Du        
     56 ****        14.2500   5.5000  -5.7500 Du        
     57 ****        14.2500   5.5000  -5.5000 Du        
     58 ****        14.2500   5.5000  -5.2500 Du        
     59 ****        14.2500   5.5000  -5.0000 Du        
     60 ****        14.2500   5.5000  -4.7500 Du        
     61 ****        14.2500   5.7500  -6.0000 Du        
     62 ****        14.2500   5.7500  -5.7500 Du        
     63 ****        14.2500   5.7500  -5.5000 Du        
     64 ****        14.2500   5.7500  -5.2500 Du        
     65 ****        14.2500   5.7500  -5.0000 Du        
     66 ****        14.2500   5.7500  -4.7500 Du        
     67 ****        14.2500   5.7500  -4.5000 Du        
     68 ****        14.2500   6.0000  -6.0000 Du        
     69 ****        14.2500   6.0000  -5.7500 Du        
     70 ****        14.2500   6.0000  -5.5000 Du        
     71 ****        14.2500   6.0000  -5.2500 Du        
     72 ****        14.2500   6.0000  -5.0000 Du        
     73 ****        14.2500   6.0000  -4.7500 Du        
     74 ****        14.2500   6.2500  -6.0000 Du        
     75 ****        14.2500   6.2500  -5.7500 Du        
     76 ****        14.2500   6.2500  -5.5000 Du        
     77 ****        14.2500   6.2500  -5.2500 Du        
     78 ****        14.2500   6.2500  -5.0000 Du        
     79 ****        14.2500   6.2500  -4.7500 Du        
     80 ****        14.2500   6.5000  -5.7500 Du        
     81 ****        14.2500   6.7500  -5.7500 Du        
     82 ****        14.5000   4.5000  -6.0000 Du        
     83 ****        14.5000   4.5000  -5.7500 Du        
     84 ****        14.5000   4.7500  -6.2500 Du        
     85 ****        14.5000   4.7500  -6.0000 Du        
     86 ****        14.5000   4.7500  -5.7500 Du        
     87 ****        14.5000   4.7500  -5.5000 Du        
     88 ****        14.5000   5.0000  -6.2500 Du        
     89 ****        14.5000   5.0000  -6.0000 Du        
     90 ****        14.5000   5.0000  -5.7500 Du        
     91 ****        14.5000   5.0000  -5.5000 Du        
     92 ****        14.5000   5.0000  -5.2500 Du        
     93 ****        14.5000   5.0000  -5.0000 Du        
     94 ****        14.5000   5.2500  -6.2500 Du        
     95 ****        14.5000   5.2500  -6.0000 Du        
     96 ****        14.5000   5.2500  -5.7500 Du        
     97 ****        14.5000   5.2500  -5.5000 Du        
     98 ****        14.5000   5.2500  -5.2500 Du        
     99 ****        14.5000   5.2500  -5.0000 Du        
    100 ****        14.5000   5.2500  -4.7500 Du        
    101 ****        14.5000   5.5000  -6.2500 Du        
    102 ****        14.5000   5.5000  -6.0000 Du        
    103 ****        14.5000   5.5000  -5.7500 Du        
    104 ****        14.5000   5.5000  -5.5000 Du        
    105 ****        14.5000   5.5000  -5.2500 Du        
    106 ****        14.5000   5.5000  -5.0000 Du        
    107 ****        14.5000   5.5000  -4.7500 Du        
    108 ****        14.5000   5.7500  -6.2500 Du        
    109 ****        14.5000   5.7500  -6.0000 Du        
    110 ****        14.5000   5.7500  -5.7500 Du        
    111 ****        14.5000   5.7500  -5.5000 Du        
    112 ****        14.5000   5.7500  -5.2500 Du        
    113 ****        14.5000   5.7500  -5.0000 Du        
    114 ****        14.5000   5.7500  -4.7500 Du        
    115 ****        14.5000   5.7500  -4.5000 Du        
    116 ****        14.5000   6.0000  -6.2500 Du        
    117 ****        14.5000   6.0000  -6.0000 Du        
    118 ****        14.5000   6.0000  -5.7500 Du        
    119 ****        14.5000   6.0000  -5.5000 Du        
    120 ****        14.5000   6.0000  -5.2500 Du        
    121 ****        14.5000   6.0000  -5.0000 Du        
    122 ****        14.5000   6.0000  -4.7500 Du        
    123 ****        14.5000   6.0000  -4.5000 Du        
    124 ****        14.5000   6.2500  -6.0000 Du        
    125 ****        14.5000   6.2500  -5.7500 Du        
    126 ****        14.5000   6.2500  -5.5000 Du        
    127 ****        14.5000   6.2500  -5.2500 Du        
    128 ****        14.5000   6.2500  -5.0000 Du        
    129 ****        14.5000   6.2500  -4.7500 Du        
    130 ****        14.5000   6.5000  -5.5000 Du        
    131 ****        14.5000   6.5000  -5.2500 Du        
    132 ****        14.5000   6.7500  -5.5000 Du        
    133 ****        14.5000   6.7500  -5.2500 Du        
    134 ****        14.7500   4.5000  -6.2500 Du        
    135 ****        14.7500   4.5000  -6.0000 Du        
    136 ****        14.7500   4.5000  -5.7500 Du        
    137 ****        14.7500   4.7500  -6.5000 Du        
    138 ****        14.7500   4.7500  -6.2500 Du        
    139 ****        14.7500   4.7500  -6.0000 Du        
    140 ****        14.7500   4.7500  -5.7500 Du        
    141 ****        14.7500   4.7500  -5.5000 Du        
    142 ****        14.7500   4.7500  -5.2500 Du        
    143 ****        14.7500   5.0000  -6.5000 Du        
    144 ****        14.7500   5.0000  -6.2500 Du        
    145 ****        14.7500   5.0000  -6.0000 Du        
    146 ****        14.7500   5.0000  -5.7500 Du        
    147 ****        14.7500   5.0000  -5.5000 Du        
    148 ****        14.7500   5.0000  -5.2500 Du        
    149 ****        14.7500   5.0000  -5.0000 Du        
    150 ****        14.7500   5.0000  -4.7500 Du        
    151 ****        14.7500   5.2500  -6.5000 Du        
    152 ****        14.7500   5.2500  -6.2500 Du        
    153 ****        14.7500   5.2500  -6.0000 Du        
    154 ****        14.7500   5.2500  -5.7500 Du        
    155 ****        14.7500   5.2500  -5.5000 Du        
    156 ****        14.7500   5.2500  -5.2500 Du        
    157 ****        14.7500   5.2500  -5.0000 Du        
    158 ****        14.7500   5.2500  -4.7500 Du        
    159 ****        14.7500   5.5000  -6.5000 Du        
    160 ****        14.7500   5.5000  -6.2500 Du        
    161 ****        14.7500   5.5000  -6.0000 Du        
    162 ****        14.7500   5.5000  -5.7500 Du        
    163 ****        14.7500   5.5000  -5.5000 Du        
    164 ****        14.7500   5.5000  -5.2500 Du        
    165 ****        14.7500   5.5000  -5.0000 Du        
    166 ****        14.7500   5.5000  -4.7500 Du        
    167 ****        14.7500   5.5000  -4.5000 Du        
    168 ****        14.7500   5.7500  -6.5000 Du        
    169 ****        14.7500   5.7500  -6.2500 Du        
    170 ****        14.7500   5.7500  -6.0000 Du        
    171 ****        14.7500   5.7500  -5.7500 Du        
    172 ****        14.7500   5.7500  -5.5000 Du        
    173 ****        14.7500   5.7500  -5.2500 Du        
    174 ****        14.7500   5.7500  -5.0000 Du        
    175 ****        14.7500   5.7500  -4.7500 Du        
    176 ****        14.7500   5.7500  -4.5000 Du        
    177 ****        14.7500   6.0000  -6.2500 Du        
    178 ****        14.7500   6.0000  -6.0000 Du        
    179 ****        14.7500   6.0000  -5.7500 Du        
    180 ****        14.7500   6.0000  -5.5000 Du        
    181 ****        14.7500   6.0000  -5.2500 Du        
    182 ****        14.7500   6.0000  -5.0000 Du        
    183 ****        14.7500   6.0000  -4.7500 Du        
    184 ****        14.7500   6.0000  -4.5000 Du        
    185 ****        14.7500   6.2500  -6.2500 Du        
    186 ****        14.7500   6.2500  -6.0000 Du        
    187 ****        14.7500   6.2500  -5.7500 Du        
    188 ****        14.7500   6.2500  -5.5000 Du        
    189 ****        14.7500   6.2500  -5.2500 Du        
    190 ****        14.7500   6.2500  -5.0000 Du        
    191 ****        14.7500   6.2500  -4.7500 Du        
    192 ****        14.7500   6.2500  -4.5000 Du        
    193 ****        14.7500   6.5000  -5.7500 Du        
    194 ****        14.7500   6.5000  -5.5000 Du        
    195 ****        14.7500   6.5000  -5.2500 Du        
    196 ****        14.7500   6.7500  -5.7500 Du        
    197 ****        14.7500   6.7500  -5.5000 Du        
    198 ****        14.7500   6.7500  -5.2500 Du        
    199 ****        15.0000   4.2500  -6.0000 Du        
    200 ****        15.0000   4.2500  -5.7500 Du        
    201 ****        15.0000   4.5000  -6.2500 Du        
    202 ****        15.0000   4.5000  -6.0000 Du        
    203 ****        15.0000   4.5000  -5.7500 Du        
    204 ****        15.0000   4.5000  -5.5000 Du        
    205 ****        15.0000   4.7500  -6.5000 Du        
    206 ****        15.0000   4.7500  -6.2500 Du        
    207 ****        15.0000   4.7500  -6.0000 Du        
    208 ****        15.0000   4.7500  -5.7500 Du        
    209 ****        15.0000   4.7500  -5.5000 Du        
    210 ****        15.0000   4.7500  -5.2500 Du        
    211 ****        15.0000   4.7500  -5.0000 Du        
    212 ****        15.0000   5.0000  -6.5000 Du        
    213 ****        15.0000   5.0000  -6.2500 Du        
    214 ****        15.0000   5.0000  -6.0000 Du        
    215 ****        15.0000   5.0000  -5.7500 Du        
    216 ****        15.0000   5.0000  -5.5000 Du        
    217 ****        15.0000   5.0000  -5.2500 Du        
    218 ****        15.0000   5.0000  -5.0000 Du        
    219 ****        15.0000   5.0000  -4.7500 Du        
    220 ****        15.0000   5.2500  -6.5000 Du        
    221 ****        15.0000   5.2500  -6.2500 Du        
    222 ****        15.0000   5.2500  -6.0000 Du        
    223 ****        15.0000   5.2500  -5.7500 Du        
    224 ****        15.0000   5.2500  -5.5000 Du        
    225 ****        15.0000   5.2500  -5.2500 Du        
    226 ****        15.0000   5.2500  -5.0000 Du        
    227 ****        15.0000   5.2500  -4.7500 Du        
    228 ****        15.0000   5.2500  -4.5000 Du        
    229 ****        15.0000   5.5000  -6.5000 Du        
    230 ****        15.0000   5.5000  -6.2500 Du        
    231 ****        15.0000   5.5000  -6.0000 Du        
    232 ****        15.0000   5.5000  -5.7500 Du        
    233 ****        15.0000   5.5000  -5.5000 Du        
    234 ****        15.0000   5.5000  -5.2500 Du        
    235 ****        15.0000   5.5000  -5.0000 Du        
    236 ****        15.0000   5.5000  -4.7500 Du        
    237 ****        15.0000   5.5000  -4.5000 Du        
    238 ****        15.0000   5.7500  -6.5000 Du        
    239 ****        15.0000   5.7500  -6.2500 Du        
    240 ****        15.0000   5.7500  -6.0000 Du        
    241 ****        15.0000   5.7500  -5.7500 Du        
    242 ****        15.0000   5.7500  -5.5000 Du        
    243 ****        15.0000   5.7500  -5.2500 Du        
    244 ****        15.0000   5.7500  -5.0000 Du        
    245 ****        15.0000   5.7500  -4.7500 Du        
    246 ****        15.0000   5.7500  -4.5000 Du        
    247 ****        15.0000   6.0000  -6.5000 Du        
    248 ****        15.0000   6.0000  -6.2500 Du        
    249 ****        15.0000   6.0000  -6.0000 Du        
    250 ****        15.0000   6.0000  -5.7500 Du        
    251 ****        15.0000   6.0000  -5.5000 Du        
    252 ****        15.0000   6.0000  -5.2500 Du        
    253 ****        15.0000   6.0000  -5.0000 Du        
    254 ****        15.0000   6.0000  -4.7500 Du        
    255 ****        15.0000   6.0000  -4.5000 Du        
    256 ****        15.0000   6.2500  -6.2500 Du        
    257 ****        15.0000   6.2500  -6.0000 Du        
    258 ****        15.0000   6.2500  -5.7500 Du        
    259 ****        15.0000   6.2500  -5.5000 Du        
    260 ****        15.0000   6.2500  -5.2500 Du        
    261 ****        15.0000   6.2500  -5.0000 Du        
    262 ****        15.0000   6.2500  -4.7500 Du        
    263 ****        15.0000   6.2500  -4.5000 Du        
    264 ****        15.0000   6.5000  -6.0000 Du        
    265 ****        15.0000   6.5000  -5.7500 Du        
    266 ****        15.0000   6.5000  -5.5000 Du        
    267 ****        15.0000   6.5000  -5.2500 Du        
    268 ****        15.0000   6.5000  -5.0000 Du        
    269 ****        15.0000   6.5000  -4.7500 Du        
    270 ****        15.0000   6.7500  -5.7500 Du        
    271 ****        15.0000   6.7500  -5.5000 Du        
    272 ****        15.0000   6.7500  -5.2500 Du        
    273 ****        15.0000   6.7500  -5.0000 Du        
    274 ****        15.0000   6.7500  -4.7500 Du        
    275 ****        15.2500   4.2500  -6.0000 Du        
    276 ****        15.2500   4.2500  -5.7500 Du        
    277 ****        15.2500   4.2500  -5.5000 Du        
    278 ****        15.2500   4.5000  -6.2500 Du        
    279 ****        15.2500   4.5000  -6.0000 Du        
    280 ****        15.2500   4.5000  -5.7500 Du        
    281 ****        15.2500   4.5000  -5.5000 Du        
    282 ****        15.2500   4.5000  -5.2500 Du        
    283 ****        15.2500   4.7500  -6.5000 Du        
    284 ****        15.2500   4.7500  -6.2500 Du        
    285 ****        15.2500   4.7500  -6.0000 Du        
    286 ****        15.2500   4.7500  -5.7500 Du        
    287 ****        15.2500   4.7500  -5.5000 Du        
    288 ****        15.2500   4.7500  -5.2500 Du        
    289 ****        15.2500   4.7500  -5.0000 Du        
    290 ****        15.2500   4.7500  -4.7500 Du        
    291 ****        15.2500   5.0000  -6.5000 Du        
    292 ****        15.2500   5.0000  -6.2500 Du        
    293 ****        15.2500   5.0000  -6.0000 Du        
    294 ****        15.2500   5.0000  -5.7500 Du        
    295 ****        15.2500   5.0000  -5.5000 Du        
    296 ****        15.2500   5.0000  -5.2500 Du        
    297 ****        15.2500   5.0000  -5.0000 Du        
    298 ****        15.2500   5.0000  -4.7500 Du        
    299 ****        15.2500   5.2500  -6.5000 Du        
    300 ****        15.2500   5.2500  -6.2500 Du        
    301 ****        15.2500   5.2500  -6.0000 Du        
    302 ****        15.2500   5.2500  -5.7500 Du        
    303 ****        15.2500   5.2500  -5.5000 Du        
    304 ****        15.2500   5.2500  -5.2500 Du        
    305 ****        15.2500   5.2500  -5.0000 Du        
    306 ****        15.2500   5.2500  -4.7500 Du        
    307 ****        15.2500   5.2500  -4.5000 Du        
    308 ****        15.2500   5.5000  -6.5000 Du        
    309 ****        15.2500   5.5000  -6.2500 Du        
    310 ****        15.2500   5.5000  -6.0000 Du        
    311 ****        15.2500   5.5000  -5.7500 Du        
    312 ****        15.2500   5.5000  -5.5000 Du        
    313 ****        15.2500   5.5000  -5.2500 Du        
    314 ****        15.2500   5.5000  -5.0000 Du        
    315 ****        15.2500   5.5000  -4.7500 Du        
    316 ****        15.2500   5.5000  -4.5000 Du        
    317 ****        15.2500   5.7500  -6.5000 Du        
    318 ****        15.2500   5.7500  -6.2500 Du        
    319 ****        15.2500   5.7500  -6.0000 Du        
    320 ****        15.2500   5.7500  -5.7500 Du        
    321 ****        15.2500   5.7500  -5.5000 Du        
    322 ****        15.2500   5.7500  -5.2500 Du        
    323 ****        15.2500   5.7500  -5.0000 Du        
    324 ****        15.2500   5.7500  -4.7500 Du        
    325 ****        15.2500   5.7500  -4.5000 Du        
    326 ****        15.2500   6.0000  -6.2500 Du        
    327 ****        15.2500   6.0000  -6.0000 Du        
    328 ****        15.2500   6.0000  -5.7500 Du        
    329 ****        15.2500   6.0000  -5.5000 Du        
    330 ****        15.2500   6.0000  -5.2500 Du        
    331 ****        15.2500   6.0000  -5.0000 Du        
    332 ****        15.2500   6.0000  -4.7500 Du        
    333 ****        15.2500   6.0000  -4.5000 Du        
    334 ****        15.2500   6.2500  -6.2500 Du        
    335 ****        15.2500   6.2500  -6.0000 Du        
    336 ****        15.2500   6.2500  -5.7500 Du        
    337 ****        15.2500   6.2500  -5.5000 Du        
    338 ****        15.2500   6.2500  -5.2500 Du        
    339 ****        15.2500   6.2500  -5.0000 Du        
    340 ****        15.2500   6.2500  -4.7500 Du        
    341 ****        15.2500   6.2500  -4.5000 Du        
    342 ****        15.2500   6.5000  -6.0000 Du        
    343 ****        15.2500   6.5000  -5.7500 Du        
    344 ****        15.2500   6.5000  -5.5000 Du        
    345 ****        15.2500   6.5000  -5.2500 Du        
    346 ****        15.2500   6.5000  -5.0000 Du        
    347 ****        15.2500   6.5000  -4.7500 Du        
    348 ****        15.2500   6.7500  -6.0000 Du        
    349 ****        15.2500   6.7500  -5.5000 Du        
    350 ****        15.2500   6.7500  -5.2500 Du        
    351 ****        15.2500   6.7500  -5.0000 Du        
    352 ****        15.2500   6.7500  -4.7500 Du        
    353 ****        15.5000   4.2500  -6.0000 Du        
    354 ****        15.5000   4.2500  -5.7500 Du        
    355 ****        15.5000   4.2500  -5.5000 Du        
    356 ****        15.5000   4.2500  -5.2500 Du        
    357 ****        15.5000   4.5000  -6.0000 Du        
    358 ****        15.5000   4.5000  -5.7500 Du        
    359 ****        15.5000   4.5000  -5.5000 Du        
    360 ****        15.5000   4.5000  -5.2500 Du        
    361 ****        15.5000   4.5000  -5.0000 Du        
    362 ****        15.5000   4.7500  -6.2500 Du        
    363 ****        15.5000   4.7500  -6.0000 Du        
    364 ****        15.5000   4.7500  -5.7500 Du        
    365 ****        15.5000   4.7500  -5.5000 Du        
    366 ****        15.5000   4.7500  -5.2500 Du        
    367 ****        15.5000   4.7500  -5.0000 Du        
    368 ****        15.5000   4.7500  -4.7500 Du        
    369 ****        15.5000   5.0000  -6.2500 Du        
    370 ****        15.5000   5.0000  -6.0000 Du        
    371 ****        15.5000   5.0000  -5.7500 Du        
    372 ****        15.5000   5.0000  -5.5000 Du        
    373 ****        15.5000   5.0000  -5.2500 Du        
    374 ****        15.5000   5.0000  -5.0000 Du        
    375 ****        15.5000   5.0000  -4.7500 Du        
    376 ****        15.5000   5.2500  -6.2500 Du        
    377 ****        15.5000   5.2500  -6.0000 Du        
    378 ****        15.5000   5.2500  -5.7500 Du        
    379 ****        15.5000   5.2500  -5.5000 Du        
    380 ****        15.5000   5.2500  -5.2500 Du        
    381 ****        15.5000   5.2500  -5.0000 Du        
    382 ****        15.5000   5.2500  -4.7500 Du        
    383 ****        15.5000   5.2500  -4.5000 Du        
    384 ****        15.5000   5.5000  -6.0000 Du        
    385 ****        15.5000   5.5000  -5.7500 Du        
    386 ****        15.5000   5.5000  -5.5000 Du        
    387 ****        15.5000   5.5000  -5.2500 Du        
    388 ****        15.5000   5.5000  -5.0000 Du        
    389 ****        15.5000   5.5000  -4.7500 Du        
    390 ****        15.5000   5.7500  -6.0000 Du        
    391 ****        15.5000   5.7500  -5.7500 Du        
    392 ****        15.5000   5.7500  -5.5000 Du        
    393 ****        15.5000   5.7500  -5.2500 Du        
    394 ****        15.5000   5.7500  -5.0000 Du        
    395 ****        15.5000   5.7500  -4.7500 Du        
    396 ****        15.5000   6.0000  -6.0000 Du        
    397 ****        15.5000   6.0000  -5.7500 Du        
    398 ****        15.5000   6.0000  -5.5000 Du        
    399 ****        15.5000   6.0000  -5.2500 Du        
    400 ****        15.5000   6.0000  -5.0000 Du        
    401 ****        15.5000   6.0000  -4.7500 Du        
    402 ****        15.5000   6.2500  -6.0000 Du        
    403 ****        15.5000   6.2500  -5.7500 Du        
    404 ****        15.5000   6.2500  -5.5000 Du        
    405 ****        15.5000   6.2500  -5.2500 Du        
    406 ****        15.5000   6.2500  -5.0000 Du        
    407 ****        15.5000   6.2500  -4.7500 Du        
    408 ****        15.5000   6.5000  -5.2500 Du        
    409 ****        15.5000   6.5000  -5.0000 Du        
    410 ****        15.5000   6.7500  -5.2500 Du        
    411 ****        15.5000   6.7500  -5.0000 Du        
    412 ****        15.7500   4.0000  -5.7500 Du        
    413 ****        15.7500   4.0000  -5.5000 Du        
    414 ****        15.7500   4.0000  -5.2500 Du        
    415 ****        15.7500   4.0000  -5.0000 Du        
    416 ****        15.7500   4.2500  -6.0000 Du        
    417 ****        15.7500   4.2500  -5.7500 Du        
    418 ****        15.7500   4.2500  -5.5000 Du        
    419 ****        15.7500   4.2500  -5.2500 Du        
    420 ****        15.7500   4.2500  -5.0000 Du        
    421 ****        15.7500   4.2500  -4.7500 Du        
    422 ****        15.7500   4.5000  -6.0000 Du        
    423 ****        15.7500   4.5000  -5.7500 Du        
    424 ****        15.7500   4.5000  -5.5000 Du        
    425 ****        15.7500   4.5000  -5.2500 Du        
    426 ****        15.7500   4.5000  -5.0000 Du        
    427 ****        15.7500   4.5000  -4.7500 Du        
    428 ****        15.7500   4.7500  -6.2500 Du        
    429 ****        15.7500   4.7500  -6.0000 Du        
    430 ****        15.7500   4.7500  -5.7500 Du        
    431 ****        15.7500   4.7500  -5.5000 Du        
    432 ****        15.7500   4.7500  -5.2500 Du        
    433 ****        15.7500   4.7500  -5.0000 Du        
    434 ****        15.7500   4.7500  -4.7500 Du        
    435 ****        15.7500   4.7500  -4.5000 Du        
    436 ****        15.7500   5.0000  -6.2500 Du        
    437 ****        15.7500   5.0000  -6.0000 Du        
    438 ****        15.7500   5.0000  -5.7500 Du        
    439 ****        15.7500   5.0000  -5.5000 Du        
    440 ****        15.7500   5.0000  -5.2500 Du        
    441 ****        15.7500   5.0000  -5.0000 Du        
    442 ****        15.7500   5.0000  -4.7500 Du        
    443 ****        15.7500   5.0000  -4.5000 Du        
    444 ****        15.7500   5.2500  -6.2500 Du        
    445 ****        15.7500   5.2500  -6.0000 Du        
    446 ****        15.7500   5.2500  -5.7500 Du        
    447 ****        15.7500   5.2500  -5.5000 Du        
    448 ****        15.7500   5.2500  -5.2500 Du        
    449 ****        15.7500   5.2500  -5.0000 Du        
    450 ****        15.7500   5.2500  -4.7500 Du        
    451 ****        15.7500   5.2500  -4.5000 Du        
    452 ****        15.7500   5.5000  -6.0000 Du        
    453 ****        15.7500   5.5000  -5.7500 Du        
    454 ****        15.7500   5.5000  -5.5000 Du        
    455 ****        15.7500   5.5000  -5.2500 Du        
    456 ****        15.7500   5.5000  -5.0000 Du        
    457 ****        15.7500   5.5000  -4.7500 Du        
    458 ****        15.7500   5.7500  -6.0000 Du        
    459 ****        15.7500   5.7500  -5.7500 Du        
    460 ****        15.7500   5.7500  -5.5000 Du        
    461 ****        15.7500   5.7500  -5.2500 Du        
    462 ****        15.7500   5.7500  -5.0000 Du        
    463 ****        15.7500   5.7500  -4.7500 Du        
    464 ****        15.7500   6.0000  -6.0000 Du        
    465 ****        15.7500   6.0000  -5.7500 Du        
    466 ****        15.7500   6.0000  -5.5000 Du        
    467 ****        15.7500   6.0000  -5.2500 Du        
    468 ****        15.7500   6.0000  -5.0000 Du        
    469 ****        15.7500   6.0000  -4.7500 Du        
    470 ****        15.7500   6.2500  -5.7500 Du        
    471 ****        15.7500   6.2500  -5.5000 Du        
    472 ****        15.7500   6.2500  -5.2500 Du        
    473 ****        15.7500   6.2500  -5.0000 Du        
    474 ****        15.7500   6.2500  -4.7500 Du        
    475 ****        15.7500   6.5000  -5.2500 Du        
    476 ****        15.7500   6.5000  -5.0000 Du        
    477 ****        15.7500   6.7500  -5.2500 Du        
    478 ****        15.7500   6.7500  -5.0000 Du        
    479 ****        16.0000   3.2500  -5.2500 Du        
    480 ****        16.0000   3.5000  -5.2500 Du        
    481 ****        16.0000   3.7500  -5.5000 Du        
    482 ****        16.0000   3.7500  -5.2500 Du        
    483 ****        16.0000   3.7500  -5.0000 Du        
    484 ****        16.0000   3.7500  -4.7500 Du        
    485 ****        16.0000   4.0000  -5.7500 Du        
    486 ****        16.0000   4.0000  -5.5000 Du        
    487 ****        16.0000   4.0000  -5.2500 Du        
    488 ****        16.0000   4.0000  -5.0000 Du        
    489 ****        16.0000   4.0000  -4.7500 Du        
    490 ****        16.0000   4.0000  -4.5000 Du        
    491 ****        16.0000   4.2500  -6.0000 Du        
    492 ****        16.0000   4.2500  -5.7500 Du        
    493 ****        16.0000   4.2500  -5.5000 Du        
    494 ****        16.0000   4.2500  -5.2500 Du        
    495 ****        16.0000   4.2500  -5.0000 Du        
    496 ****        16.0000   4.2500  -4.7500 Du        
    497 ****        16.0000   4.2500  -4.5000 Du        
    498 ****        16.0000   4.5000  -6.0000 Du        
    499 ****        16.0000   4.5000  -5.7500 Du        
    500 ****        16.0000   4.5000  -5.5000 Du        
    501 ****        16.0000   4.5000  -5.2500 Du        
    502 ****        16.0000   4.5000  -5.0000 Du        
    503 ****        16.0000   4.5000  -4.7500 Du        
    504 ****        16.0000   4.5000  -4.5000 Du        
    505 ****        16.0000   4.7500  -6.0000 Du        
    506 ****        16.0000   4.7500  -5.7500 Du        
    507 ****        16.0000   4.7500  -5.5000 Du        
    508 ****        16.0000   4.7500  -5.2500 Du        
    509 ****        16.0000   4.7500  -5.0000 Du        
    510 ****        16.0000   4.7500  -4.7500 Du        
    511 ****        16.0000   4.7500  -4.5000 Du        
    512 ****        16.0000   5.0000  -6.2500 Du        
    513 ****        16.0000   5.0000  -6.0000 Du        
    514 ****        16.0000   5.0000  -5.7500 Du        
    515 ****        16.0000   5.0000  -5.5000 Du        
    516 ****        16.0000   5.0000  -5.2500 Du        
    517 ****        16.0000   5.0000  -5.0000 Du        
    518 ****        16.0000   5.0000  -4.7500 Du        
    519 ****        16.0000   5.0000  -4.5000 Du        
    520 ****        16.0000   5.2500  -6.0000 Du        
    521 ****        16.0000   5.2500  -5.7500 Du        
    522 ****        16.0000   5.2500  -5.5000 Du        
    523 ****        16.0000   5.2500  -5.2500 Du        
    524 ****        16.0000   5.2500  -5.0000 Du        
    525 ****        16.0000   5.2500  -4.7500 Du        
    526 ****        16.0000   5.5000  -6.0000 Du        
    527 ****        16.0000   5.5000  -5.7500 Du        
    528 ****        16.0000   5.5000  -5.5000 Du        
    529 ****        16.0000   5.5000  -5.2500 Du        
    530 ****        16.0000   5.5000  -5.0000 Du        
    531 ****        16.0000   5.5000  -4.7500 Du        
    532 ****        16.0000   5.7500  -6.0000 Du        
    533 ****        16.0000   5.7500  -5.7500 Du        
    534 ****        16.0000   5.7500  -5.5000 Du        
    535 ****        16.0000   5.7500  -5.2500 Du        
    536 ****        16.0000   5.7500  -5.0000 Du        
    537 ****        16.0000   5.7500  -4.7500 Du        
    538 ****        16.0000   6.0000  -5.7500 Du        
    539 ****        16.0000   6.0000  -5.5000 Du        
    540 ****        16.0000   6.0000  -5.2500 Du        
    541 ****        16.0000   6.0000  -5.0000 Du        
    542 ****        16.0000   6.2500  -5.7500 Du        
    543 ****        16.0000   6.2500  -5.5000 Du        
    544 ****        16.0000   6.2500  -5.2500 Du        
    545 ****        16.0000   6.2500  -5.0000 Du        
    546 ****        16.0000   6.7500  -5.2500 Du        
    547 ****        16.2500   3.0000  -5.5000 Du        
    548 ****        16.2500   3.0000  -5.2500 Du        
    549 ****        16.2500   3.2500  -5.5000 Du        
    550 ****        16.2500   3.2500  -5.2500 Du        
    551 ****        16.2500   3.2500  -5.0000 Du        
    552 ****        16.2500   3.5000  -5.5000 Du        
    553 ****        16.2500   3.5000  -5.2500 Du        
    554 ****        16.2500   3.5000  -5.0000 Du        
    555 ****        16.2500   3.5000  -4.7500 Du        
    556 ****        16.2500   3.7500  -5.5000 Du        
    557 ****        16.2500   3.7500  -5.2500 Du        
    558 ****        16.2500   3.7500  -5.0000 Du        
    559 ****        16.2500   3.7500  -4.7500 Du        
    560 ****        16.2500   3.7500  -4.5000 Du        
    561 ****        16.2500   4.0000  -5.7500 Du        
    562 ****        16.2500   4.0000  -5.5000 Du        
    563 ****        16.2500   4.0000  -5.2500 Du        
    564 ****        16.2500   4.0000  -5.0000 Du        
    565 ****        16.2500   4.0000  -4.7500 Du        
    566 ****        16.2500   4.0000  -4.5000 Du        
    567 ****        16.2500   4.2500  -5.7500 Du        
    568 ****        16.2500   4.2500  -5.5000 Du        
    569 ****        16.2500   4.2500  -5.2500 Du        
    570 ****        16.2500   4.2500  -5.0000 Du        
    571 ****        16.2500   4.2500  -4.7500 Du        
    572 ****        16.2500   4.2500  -4.5000 Du        
    573 ****        16.2500   4.2500  -4.2500 Du        
    574 ****        16.2500   4.5000  -5.7500 Du        
    575 ****        16.2500   4.5000  -5.5000 Du        
    576 ****        16.2500   4.5000  -5.2500 Du        
    577 ****        16.2500   4.5000  -5.0000 Du        
    578 ****        16.2500   4.5000  -4.7500 Du        
    579 ****        16.2500   4.5000  -4.5000 Du        
    580 ****        16.2500   4.5000  -4.2500 Du        
    581 ****        16.2500   4.7500  -6.0000 Du        
    582 ****        16.2500   4.7500  -5.7500 Du        
    583 ****        16.2500   4.7500  -5.5000 Du        
    584 ****        16.2500   4.7500  -5.2500 Du        
    585 ****        16.2500   4.7500  -5.0000 Du        
    586 ****        16.2500   4.7500  -4.7500 Du        
    587 ****        16.2500   4.7500  -4.5000 Du        
    588 ****        16.2500   5.0000  -6.0000 Du        
    589 ****        16.2500   5.0000  -5.7500 Du        
    590 ****        16.2500   5.0000  -5.5000 Du        
    591 ****        16.2500   5.0000  -5.2500 Du        
    592 ****        16.2500   5.0000  -5.0000 Du        
    593 ****        16.2500   5.0000  -4.7500 Du        
    594 ****        16.2500   5.0000  -4.5000 Du        
    595 ****        16.2500   5.2500  -6.0000 Du        
    596 ****        16.2500   5.2500  -5.7500 Du        
    597 ****        16.2500   5.2500  -5.5000 Du        
    598 ****        16.2500   5.2500  -5.2500 Du        
    599 ****        16.2500   5.2500  -5.0000 Du        
    600 ****        16.2500   5.2500  -4.7500 Du        
    601 ****        16.2500   5.5000  -6.0000 Du        
    602 ****        16.2500   5.5000  -5.7500 Du        
    603 ****        16.2500   5.5000  -5.5000 Du        
    604 ****        16.2500   5.5000  -5.2500 Du        
    605 ****        16.2500   5.5000  -5.0000 Du        
    606 ****        16.2500   5.7500  -6.0000 Du        
    607 ****        16.2500   5.7500  -5.7500 Du        
    608 ****        16.2500   5.7500  -5.5000 Du        
    609 ****        16.2500   5.7500  -5.2500 Du        
    610 ****        16.2500   5.7500  -5.0000 Du        
    611 ****        16.2500   6.0000  -5.5000 Du        
    612 ****        16.2500   6.0000  -5.2500 Du        
    613 ****        16.2500   6.2500  -5.5000 Du        
    614 ****        16.2500   6.2500  -5.2500 Du        
    615 ****        16.5000   3.0000  -5.2500 Du        
    616 ****        16.5000   3.2500  -5.5000 Du        
    617 ****        16.5000   3.2500  -5.2500 Du        
    618 ****        16.5000   3.2500  -5.0000 Du        
    619 ****        16.5000   3.2500  -4.7500 Du        
    620 ****        16.5000   3.5000  -5.5000 Du        
    621 ****        16.5000   3.5000  -5.2500 Du        
    622 ****        16.5000   3.5000  -5.0000 Du        
    623 ****        16.5000   3.5000  -4.7500 Du        
    624 ****        16.5000   3.5000  -4.5000 Du        
    625 ****        16.5000   3.7500  -5.5000 Du        
    626 ****        16.5000   3.7500  -5.2500 Du        
    627 ****        16.5000   3.7500  -5.0000 Du        
    628 ****        16.5000   3.7500  -4.7500 Du        
    629 ****        16.5000   3.7500  -4.5000 Du        
    630 ****        16.5000   4.0000  -5.5000 Du        
    631 ****        16.5000   4.0000  -5.2500 Du        
    632 ****        16.5000   4.0000  -5.0000 Du        
    633 ****        16.5000   4.0000  -4.7500 Du        
    634 ****        16.5000   4.0000  -4.5000 Du        
    635 ****        16.5000   4.0000  -4.2500 Du        
    636 ****        16.5000   4.2500  -5.7500 Du        
    637 ****        16.5000   4.2500  -5.5000 Du        
    638 ****        16.5000   4.2500  -5.2500 Du        
    639 ****        16.5000   4.2500  -5.0000 Du        
    640 ****        16.5000   4.2500  -4.7500 Du        
    641 ****        16.5000   4.2500  -4.5000 Du        
    642 ****        16.5000   4.2500  -4.2500 Du        
    643 ****        16.5000   4.5000  -5.5000 Du        
    644 ****        16.5000   4.5000  -5.2500 Du        
    645 ****        16.5000   4.5000  -5.0000 Du        
    646 ****        16.5000   4.5000  -4.7500 Du        
    647 ****        16.5000   4.5000  -4.5000 Du        
    648 ****        16.5000   4.5000  -4.2500 Du        
    649 ****        16.5000   4.7500  -5.7500 Du        
    650 ****        16.5000   4.7500  -5.5000 Du        
    651 ****        16.5000   4.7500  -5.2500 Du        
    652 ****        16.5000   4.7500  -5.0000 Du        
    653 ****        16.5000   4.7500  -4.7500 Du        
    654 ****        16.5000   4.7500  -4.5000 Du        
    655 ****        16.5000   5.0000  -5.7500 Du        
    656 ****        16.5000   5.0000  -5.5000 Du        
    657 ****        16.5000   5.0000  -5.2500 Du        
    658 ****        16.5000   5.0000  -5.0000 Du        
    659 ****        16.5000   5.0000  -4.7500 Du        
    660 ****        16.5000   5.0000  -4.5000 Du        
    661 ****        16.5000   5.2500  -5.5000 Du        
    662 ****        16.5000   5.2500  -5.2500 Du        
    663 ****        16.5000   5.2500  -5.0000 Du        
    664 ****        16.5000   5.2500  -4.7500 Du        
    665 ****        16.5000   5.5000  -5.5000 Du        
    666 ****        16.5000   5.5000  -5.2500 Du        
    667 ****        16.5000   5.5000  -5.0000 Du        
    668 ****        16.5000   5.7500  -5.5000 Du        
    669 ****        16.5000   5.7500  -5.2500 Du        
    670 ****        16.5000   6.0000  -5.5000 Du        
    671 ****        16.7500   0.2500  -6.7500 Du        
    672 ****        16.7500   0.2500  -6.5000 Du        
    673 ****        16.7500   0.2500  -6.2500 Du        
    674 ****        16.7500   0.5000  -6.5000 Du        
    675 ****        16.7500   0.5000  -6.2500 Du        
    676 ****        16.7500   0.5000  -6.0000 Du        
    677 ****        16.7500   0.7500  -6.5000 Du        
    678 ****        16.7500   0.7500  -6.2500 Du        
    679 ****        16.7500   0.7500  -6.0000 Du        
    680 ****        16.7500   1.0000  -6.2500 Du        
    681 ****        16.7500   1.0000  -6.0000 Du        
    682 ****        16.7500   1.2500  -6.2500 Du        
    683 ****        16.7500   1.2500  -6.0000 Du        
    684 ****        16.7500   1.2500  -5.7500 Du        
    685 ****        16.7500   1.7500  -5.7500 Du        
    686 ****        16.7500   2.0000  -5.7500 Du        
    687 ****        16.7500   2.0000  -5.5000 Du        
    688 ****        16.7500   2.2500  -5.7500 Du        
    689 ****        16.7500   2.2500  -5.5000 Du        
    690 ****        16.7500   2.2500  -5.2500 Du        
    691 ****        16.7500   2.5000  -5.2500 Du        
    692 ****        16.7500   2.7500  -5.7500 Du        
    693 ****        16.7500   2.7500  -5.5000 Du        
    694 ****        16.7500   2.7500  -5.2500 Du        
    695 ****        16.7500   2.7500  -5.0000 Du        
    696 ****        16.7500   2.7500  -4.7500 Du        
    697 ****        16.7500   3.0000  -5.7500 Du        
    698 ****        16.7500   3.0000  -5.5000 Du        
    699 ****        16.7500   3.0000  -5.2500 Du        
    700 ****        16.7500   3.0000  -5.0000 Du        
    701 ****        16.7500   3.0000  -4.7500 Du        
    702 ****        16.7500   3.0000  -4.5000 Du        
    703 ****        16.7500   3.2500  -5.7500 Du        
    704 ****        16.7500   3.2500  -5.5000 Du        
    705 ****        16.7500   3.2500  -5.2500 Du        
    706 ****        16.7500   3.2500  -5.0000 Du        
    707 ****        16.7500   3.2500  -4.7500 Du        
    708 ****        16.7500   3.2500  -4.5000 Du        
    709 ****        16.7500   3.5000  -5.5000 Du        
    710 ****        16.7500   3.5000  -5.2500 Du        
    711 ****        16.7500   3.5000  -5.0000 Du        
    712 ****        16.7500   3.5000  -4.7500 Du        
    713 ****        16.7500   3.5000  -4.5000 Du        
    714 ****        16.7500   3.7500  -5.5000 Du        
    715 ****        16.7500   3.7500  -5.2500 Du        
    716 ****        16.7500   3.7500  -5.0000 Du        
    717 ****        16.7500   3.7500  -4.7500 Du        
    718 ****        16.7500   3.7500  -4.5000 Du        
    719 ****        16.7500   3.7500  -4.2500 Du        
    720 ****        16.7500   4.0000  -5.7500 Du        
    721 ****        16.7500   4.0000  -5.5000 Du        
    722 ****        16.7500   4.0000  -5.2500 Du        
    723 ****        16.7500   4.0000  -5.0000 Du        
    724 ****        16.7500   4.0000  -4.7500 Du        
    725 ****        16.7500   4.0000  -4.5000 Du        
    726 ****        16.7500   4.0000  -4.2500 Du        
    727 ****        16.7500   4.2500  -5.7500 Du        
    728 ****        16.7500   4.2500  -5.5000 Du        
    729 ****        16.7500   4.2500  -5.2500 Du        
    730 ****        16.7500   4.2500  -5.0000 Du        
    731 ****        16.7500   4.2500  -4.7500 Du        
    732 ****        16.7500   4.2500  -4.5000 Du        
    733 ****        16.7500   4.2500  -4.2500 Du        
    734 ****        16.7500   4.5000  -5.7500 Du        
    735 ****        16.7500   4.5000  -5.5000 Du        
    736 ****        16.7500   4.5000  -5.2500 Du        
    737 ****        16.7500   4.5000  -5.0000 Du        
    738 ****        16.7500   4.5000  -4.7500 Du        
    739 ****        16.7500   4.5000  -4.5000 Du        
    740 ****        16.7500   4.5000  -4.2500 Du        
    741 ****        16.7500   4.7500  -5.7500 Du        
    742 ****        16.7500   4.7500  -5.5000 Du        
    743 ****        16.7500   4.7500  -5.2500 Du        
    744 ****        16.7500   4.7500  -5.0000 Du        
    745 ****        16.7500   4.7500  -4.7500 Du        
    746 ****        16.7500   4.7500  -4.5000 Du        
    747 ****        16.7500   4.7500  -4.2500 Du        
    748 ****        16.7500   5.0000  -5.7500 Du        
    749 ****        16.7500   5.0000  -5.5000 Du        
    750 ****        16.7500   5.0000  -5.2500 Du        
    751 ****        16.7500   5.0000  -5.0000 Du        
    752 ****        16.7500   5.0000  -4.7500 Du        
    753 ****        16.7500   5.0000  -4.5000 Du        
    754 ****        16.7500   5.2500  -5.5000 Du        
    755 ****        16.7500   5.2500  -5.2500 Du        
    756 ****        16.7500   5.2500  -5.0000 Du        
    757 ****        16.7500   5.2500  -4.7500 Du        
    758 ****        16.7500   5.5000  -5.5000 Du        
    759 ****        16.7500   5.5000  -5.2500 Du        
    760 ****        16.7500   5.5000  -5.0000 Du        
    761 ****        16.7500   5.7500  -5.5000 Du        
    762 ****        16.7500   5.7500  -5.2500 Du        
    763 ****        16.7500   6.0000  -5.5000 Du        
    764 ****        17.0000   0.0000  -6.7500 Du        
    765 ****        17.0000   0.0000  -6.5000 Du        
    766 ****        17.0000   0.0000  -6.2500 Du        
    767 ****        17.0000   0.2500  -7.0000 Du        
    768 ****        17.0000   0.2500  -6.7500 Du        
    769 ****        17.0000   0.2500  -6.5000 Du        
    770 ****        17.0000   0.2500  -6.2500 Du        
    771 ****        17.0000   0.2500  -6.0000 Du        
    772 ****        17.0000   0.5000  -6.7500 Du        
    773 ****        17.0000   0.5000  -6.5000 Du        
    774 ****        17.0000   0.5000  -6.2500 Du        
    775 ****        17.0000   0.5000  -6.0000 Du        
    776 ****        17.0000   0.5000  -5.7500 Du        
    777 ****        17.0000   0.7500  -6.7500 Du        
    778 ****        17.0000   0.7500  -6.5000 Du        
    779 ****        17.0000   0.7500  -6.2500 Du        
    780 ****        17.0000   0.7500  -6.0000 Du        
    781 ****        17.0000   0.7500  -5.7500 Du        
    782 ****        17.0000   1.0000  -6.5000 Du        
    783 ****        17.0000   1.0000  -6.2500 Du        
    784 ****        17.0000   1.0000  -6.0000 Du        
    785 ****        17.0000   1.0000  -5.7500 Du        
    786 ****        17.0000   1.0000  -5.5000 Du        
    787 ****        17.0000   1.2500  -6.2500 Du        
    788 ****        17.0000   1.2500  -6.0000 Du        
    789 ****        17.0000   1.2500  -5.7500 Du        
    790 ****        17.0000   1.2500  -5.5000 Du        
    791 ****        17.0000   1.5000  -6.2500 Du        
    792 ****        17.0000   1.5000  -6.0000 Du        
    793 ****        17.0000   1.5000  -5.7500 Du        
    794 ****        17.0000   1.5000  -5.5000 Du        
    795 ****        17.0000   1.7500  -6.0000 Du        
    796 ****        17.0000   1.7500  -5.7500 Du        
    797 ****        17.0000   1.7500  -5.5000 Du        
    798 ****        17.0000   1.7500  -5.2500 Du        
    799 ****        17.0000   2.0000  -6.0000 Du        
    800 ****        17.0000   2.0000  -5.7500 Du        
    801 ****        17.0000   2.0000  -5.5000 Du        
    802 ****        17.0000   2.0000  -5.2500 Du        
    803 ****        17.0000   2.0000  -5.0000 Du        
    804 ****        17.0000   2.2500  -6.0000 Du        
    805 ****        17.0000   2.2500  -5.7500 Du        
    806 ****        17.0000   2.2500  -5.5000 Du        
    807 ****        17.0000   2.2500  -5.2500 Du        
    808 ****        17.0000   2.2500  -5.0000 Du        
    809 ****        17.0000   2.2500  -4.7500 Du        
    810 ****        17.0000   2.5000  -5.7500 Du        
    811 ****        17.0000   2.5000  -5.5000 Du        
    812 ****        17.0000   2.5000  -5.2500 Du        
    813 ****        17.0000   2.5000  -5.0000 Du        
    814 ****        17.0000   2.5000  -4.7500 Du        
    815 ****        17.0000   2.7500  -5.7500 Du        
    816 ****        17.0000   2.7500  -5.5000 Du        
    817 ****        17.0000   2.7500  -5.2500 Du        
    818 ****        17.0000   2.7500  -5.0000 Du        
    819 ****        17.0000   2.7500  -4.7500 Du        
    820 ****        17.0000   2.7500  -4.5000 Du        
    821 ****        17.0000   3.0000  -5.7500 Du        
    822 ****        17.0000   3.0000  -5.5000 Du        
    823 ****        17.0000   3.0000  -5.2500 Du        
    824 ****        17.0000   3.0000  -5.0000 Du        
    825 ****        17.0000   3.0000  -4.7500 Du        
    826 ****        17.0000   3.0000  -4.5000 Du        
    827 ****        17.0000   3.2500  -5.7500 Du        
    828 ****        17.0000   3.2500  -5.5000 Du        
    829 ****        17.0000   3.2500  -5.2500 Du        
    830 ****        17.0000   3.2500  -5.0000 Du        
    831 ****        17.0000   3.2500  -4.7500 Du        
    832 ****        17.0000   3.2500  -4.5000 Du        
    833 ****        17.0000   3.2500  -4.2500 Du        
    834 ****        17.0000   3.5000  -5.5000 Du        
    835 ****        17.0000   3.5000  -5.2500 Du        
    836 ****        17.0000   3.5000  -5.0000 Du        
    837 ****        17.0000   3.5000  -4.7500 Du        
    838 ****        17.0000   3.5000  -4.5000 Du        
    839 ****        17.0000   3.5000  -4.2500 Du        
    840 ****        17.0000   3.7500  -5.5000 Du        
    841 ****        17.0000   3.7500  -5.2500 Du        
    842 ****        17.0000   3.7500  -5.0000 Du        
    843 ****        17.0000   3.7500  -4.7500 Du        
    844 ****        17.0000   3.7500  -4.5000 Du        
    845 ****        17.0000   3.7500  -4.2500 Du        
    846 ****        17.0000   4.0000  -5.7500 Du        
    847 ****        17.0000   4.0000  -5.5000 Du        
    848 ****        17.0000   4.0000  -5.2500 Du        
    849 ****        17.0000   4.0000  -5.0000 Du        
    850 ****        17.0000   4.0000  -4.7500 Du        
    851 ****        17.0000   4.0000  -4.5000 Du        
    852 ****        17.0000   4.0000  -4.2500 Du        
    853 ****        17.0000   4.0000  -4.0000 Du        
    854 ****        17.0000   4.2500  -5.7500 Du        
    855 ****        17.0000   4.2500  -5.5000 Du        
    856 ****        17.0000   4.2500  -5.2500 Du        
    857 ****        17.0000   4.2500  -5.0000 Du        
    858 ****        17.0000   4.2500  -4.7500 Du        
    859 ****        17.0000   4.2500  -4.5000 Du        
    860 ****        17.0000   4.2500  -4.2500 Du        
    861 ****        17.0000   4.2500  -4.0000 Du        
    862 ****        17.0000   4.5000  -5.7500 Du        
    863 ****        17.0000   4.5000  -5.5000 Du        
    864 ****        17.0000   4.5000  -5.2500 Du        
    865 ****        17.0000   4.5000  -5.0000 Du        
    866 ****        17.0000   4.5000  -4.7500 Du        
    867 ****        17.0000   4.5000  -4.5000 Du        
    868 ****        17.0000   4.5000  -4.2500 Du        
    869 ****        17.0000   4.7500  -5.7500 Du        
    870 ****        17.0000   4.7500  -5.5000 Du        
    871 ****        17.0000   4.7500  -5.2500 Du        
    872 ****        17.0000   4.7500  -5.0000 Du        
    873 ****        17.0000   4.7500  -4.7500 Du        
    874 ****        17.0000   4.7500  -4.5000 Du        
    875 ****        17.0000   4.7500  -4.2500 Du        
    876 ****        17.0000   5.0000  -5.7500 Du        
    877 ****        17.0000   5.0000  -5.5000 Du        
    878 ****        17.0000   5.0000  -5.2500 Du        
    879 ****        17.0000   5.0000  -5.0000 Du        
    880 ****        17.0000   5.0000  -4.7500 Du        
    881 ****        17.0000   5.2500  -5.7500 Du        
    882 ****        17.0000   5.2500  -5.5000 Du        
    883 ****        17.0000   5.2500  -5.2500 Du        
    884 ****        17.0000   5.2500  -5.0000 Du        
    885 ****        17.0000   5.2500  -4.7500 Du        
    886 ****        17.0000   5.5000  -5.5000 Du        
    887 ****        17.0000   5.5000  -5.2500 Du        
    888 ****        17.0000   5.5000  -5.0000 Du        
    889 ****        17.0000   5.7500  -5.5000 Du        
    890 ****        17.0000   5.7500  -5.2500 Du        
    891 ****        17.2500   0.0000  -7.0000 Du        
    892 ****        17.2500   0.0000  -6.7500 Du        
    893 ****        17.2500   0.0000  -6.5000 Du        
    894 ****        17.2500   0.0000  -6.2500 Du        
    895 ****        17.2500   0.2500  -7.0000 Du        
    896 ****        17.2500   0.2500  -6.7500 Du        
    897 ****        17.2500   0.2500  -6.5000 Du        
    898 ****        17.2500   0.2500  -6.2500 Du        
    899 ****        17.2500   0.2500  -6.0000 Du        
    900 ****        17.2500   0.2500  -5.7500 Du        
    901 ****        17.2500   0.5000  -7.0000 Du        
    902 ****        17.2500   0.5000  -6.7500 Du        
    903 ****        17.2500   0.5000  -6.5000 Du        
    904 ****        17.2500   0.5000  -6.2500 Du        
    905 ****        17.2500   0.5000  -6.0000 Du        
    906 ****        17.2500   0.5000  -5.7500 Du        
    907 ****        17.2500   0.7500  -7.0000 Du        
    908 ****        17.2500   0.7500  -6.7500 Du        
    909 ****        17.2500   0.7500  -6.5000 Du        
    910 ****        17.2500   0.7500  -6.2500 Du        
    911 ****        17.2500   0.7500  -6.0000 Du        
    912 ****        17.2500   0.7500  -5.7500 Du        
    913 ****        17.2500   0.7500  -5.5000 Du        
    914 ****        17.2500   1.0000  -6.7500 Du        
    915 ****        17.2500   1.0000  -6.5000 Du        
    916 ****        17.2500   1.0000  -6.2500 Du        
    917 ****        17.2500   1.0000  -6.0000 Du        
    918 ****        17.2500   1.0000  -5.7500 Du        
    919 ****        17.2500   1.0000  -5.5000 Du        
    920 ****        17.2500   1.2500  -6.5000 Du        
    921 ****        17.2500   1.2500  -6.2500 Du        
    922 ****        17.2500   1.2500  -6.0000 Du        
    923 ****        17.2500   1.2500  -5.7500 Du        
    924 ****        17.2500   1.2500  -5.5000 Du        
    925 ****        17.2500   1.2500  -5.2500 Du        
    926 ****        17.2500   1.5000  -6.2500 Du        
    927 ****        17.2500   1.5000  -6.0000 Du        
    928 ****        17.2500   1.5000  -5.7500 Du        
    929 ****        17.2500   1.5000  -5.5000 Du        
    930 ****        17.2500   1.5000  -5.2500 Du        
    931 ****        17.2500   1.5000  -5.0000 Du        
    932 ****        17.2500   1.7500  -6.2500 Du        
    933 ****        17.2500   1.7500  -6.0000 Du        
    934 ****        17.2500   1.7500  -5.7500 Du        
    935 ****        17.2500   1.7500  -5.5000 Du        
    936 ****        17.2500   1.7500  -5.2500 Du        
    937 ****        17.2500   1.7500  -5.0000 Du        
    938 ****        17.2500   2.0000  -6.2500 Du        
    939 ****        17.2500   2.0000  -6.0000 Du        
    940 ****        17.2500   2.0000  -5.7500 Du        
    941 ****        17.2500   2.0000  -5.5000 Du        
    942 ****        17.2500   2.0000  -5.2500 Du        
    943 ****        17.2500   2.0000  -5.0000 Du        
    944 ****        17.2500   2.0000  -4.7500 Du        
    945 ****        17.2500   2.2500  -6.0000 Du        
    946 ****        17.2500   2.2500  -5.7500 Du        
    947 ****        17.2500   2.2500  -5.5000 Du        
    948 ****        17.2500   2.2500  -5.2500 Du        
    949 ****        17.2500   2.2500  -5.0000 Du        
    950 ****        17.2500   2.2500  -4.7500 Du        
    951 ****        17.2500   2.2500  -4.5000 Du        
    952 ****        17.2500   2.5000  -6.0000 Du        
    953 ****        17.2500   2.5000  -5.7500 Du        
    954 ****        17.2500   2.5000  -5.5000 Du        
    955 ****        17.2500   2.5000  -5.2500 Du        
    956 ****        17.2500   2.5000  -5.0000 Du        
    957 ****        17.2500   2.5000  -4.7500 Du        
    958 ****        17.2500   2.5000  -4.5000 Du        
    959 ****        17.2500   2.7500  -5.7500 Du        
    960 ****        17.2500   2.7500  -5.5000 Du        
    961 ****        17.2500   2.7500  -5.2500 Du        
    962 ****        17.2500   2.7500  -5.0000 Du        
    963 ****        17.2500   2.7500  -4.7500 Du        
    964 ****        17.2500   2.7500  -4.5000 Du        
    965 ****        17.2500   2.7500  -4.2500 Du        
    966 ****        17.2500   3.0000  -5.7500 Du        
    967 ****        17.2500   3.0000  -5.5000 Du        
    968 ****        17.2500   3.0000  -5.2500 Du        
    969 ****        17.2500   3.0000  -5.0000 Du        
    970 ****        17.2500   3.0000  -4.7500 Du        
    971 ****        17.2500   3.0000  -4.5000 Du        
    972 ****        17.2500   3.0000  -4.2500 Du        
    973 ****        17.2500   3.2500  -5.7500 Du        
    974 ****        17.2500   3.2500  -5.5000 Du        
    975 ****        17.2500   3.2500  -5.2500 Du        
    976 ****        17.2500   3.2500  -5.0000 Du        
    977 ****        17.2500   3.2500  -4.7500 Du        
    978 ****        17.2500   3.2500  -4.5000 Du        
    979 ****        17.2500   3.2500  -4.2500 Du        
    980 ****        17.2500   3.5000  -5.5000 Du        
    981 ****        17.2500   3.5000  -5.2500 Du        
    982 ****        17.2500   3.5000  -5.0000 Du        
    983 ****        17.2500   3.5000  -4.7500 Du        
    984 ****        17.2500   3.5000  -4.5000 Du        
    985 ****        17.2500   3.5000  -4.2500 Du        
    986 ****        17.2500   3.7500  -5.7500 Du        
    987 ****        17.2500   3.7500  -5.5000 Du        
    988 ****        17.2500   3.7500  -5.2500 Du        
    989 ****        17.2500   3.7500  -5.0000 Du        
    990 ****        17.2500   3.7500  -4.7500 Du        
    991 ****        17.2500   3.7500  -4.5000 Du        
    992 ****        17.2500   3.7500  -4.2500 Du        
    993 ****        17.2500   4.0000  -5.7500 Du        
    994 ****        17.2500   4.0000  -5.5000 Du        
    995 ****        17.2500   4.0000  -5.2500 Du        
    996 ****        17.2500   4.0000  -5.0000 Du        
    997 ****        17.2500   4.0000  -4.7500 Du        
    998 ****        17.2500   4.0000  -4.5000 Du        
    999 ****        17.2500   4.0000  -4.2500 Du        
   1000 ****        17.2500   4.0000  -4.0000 Du        
   1001 ****        17.2500   4.2500  -5.7500 Du        
   1002 ****        17.2500   4.2500  -5.5000 Du        
   1003 ****        17.2500   4.2500  -5.2500 Du        
   1004 ****        17.2500   4.2500  -5.0000 Du        
   1005 ****        17.2500   4.2500  -4.7500 Du        
   1006 ****        17.2500   4.2500  -4.5000 Du        
   1007 ****        17.2500   4.2500  -4.2500 Du        
   1008 ****        17.2500   4.2500  -4.0000 Du        
   1009 ****        17.2500   4.5000  -6.0000 Du        
   1010 ****        17.2500   4.5000  -5.7500 Du        
   1011 ****        17.2500   4.5000  -5.5000 Du        
   1012 ****        17.2500   4.5000  -5.2500 Du        
   1013 ****        17.2500   4.5000  -5.0000 Du        
   1014 ****        17.2500   4.5000  -4.7500 Du        
   1015 ****        17.2500   4.5000  -4.5000 Du        
   1016 ****        17.2500   4.5000  -4.2500 Du        
   1017 ****        17.2500   4.5000  -4.0000 Du        
   1018 ****        17.2500   4.7500  -6.0000 Du        
   1019 ****        17.2500   4.7500  -5.7500 Du        
   1020 ****        17.2500   4.7500  -5.5000 Du        
   1021 ****        17.2500   4.7500  -5.2500 Du        
   1022 ****        17.2500   4.7500  -5.0000 Du        
   1023 ****        17.2500   4.7500  -4.7500 Du        
   1024 ****        17.2500   4.7500  -4.5000 Du        
   1025 ****        17.2500   4.7500  -4.2500 Du        
   1026 ****        17.2500   5.0000  -6.0000 Du        
   1027 ****        17.2500   5.0000  -5.7500 Du        
   1028 ****        17.2500   5.0000  -5.5000 Du        
   1029 ****        17.2500   5.0000  -5.2500 Du        
   1030 ****        17.2500   5.0000  -5.0000 Du        
   1031 ****        17.2500   5.0000  -4.7500 Du        
   1032 ****        17.2500   5.2500  -6.0000 Du        
   1033 ****        17.2500   5.2500  -5.7500 Du        
   1034 ****        17.2500   5.2500  -5.5000 Du        
   1035 ****        17.2500   5.2500  -5.2500 Du        
   1036 ****        17.2500   5.2500  -5.0000 Du        
   1037 ****        17.2500   5.5000  -5.5000 Du        
   1038 ****        17.2500   5.5000  -5.2500 Du        
   1039 ****        17.2500   5.7500  -5.5000 Du        
   1040 ****        17.5000   0.0000  -7.0000 Du        
   1041 ****        17.5000   0.0000  -6.7500 Du        
   1042 ****        17.5000   0.0000  -6.5000 Du        
   1043 ****        17.5000   0.0000  -6.2500 Du        
   1044 ****        17.5000   0.0000  -6.0000 Du        
   1045 ****        17.5000   0.2500  -7.0000 Du        
   1046 ****        17.5000   0.2500  -6.7500 Du        
   1047 ****        17.5000   0.2500  -6.5000 Du        
   1048 ****        17.5000   0.2500  -6.2500 Du        
   1049 ****        17.5000   0.2500  -6.0000 Du        
   1050 ****        17.5000   0.2500  -5.7500 Du        
   1051 ****        17.5000   0.5000  -7.0000 Du        
   1052 ****        17.5000   0.5000  -6.7500 Du        
   1053 ****        17.5000   0.5000  -6.5000 Du        
   1054 ****        17.5000   0.5000  -6.2500 Du        
   1055 ****        17.5000   0.5000  -6.0000 Du        
   1056 ****        17.5000   0.5000  -5.7500 Du        
   1057 ****        17.5000   0.5000  -5.5000 Du        
   1058 ****        17.5000   0.7500  -7.0000 Du        
   1059 ****        17.5000   0.7500  -6.7500 Du        
   1060 ****        17.5000   0.7500  -6.5000 Du        
   1061 ****        17.5000   0.7500  -6.2500 Du        
   1062 ****        17.5000   0.7500  -6.0000 Du        
   1063 ****        17.5000   0.7500  -5.7500 Du        
   1064 ****        17.5000   0.7500  -5.5000 Du        
   1065 ****        17.5000   1.0000  -6.7500 Du        
   1066 ****        17.5000   1.0000  -6.5000 Du        
   1067 ****        17.5000   1.0000  -6.2500 Du        
   1068 ****        17.5000   1.0000  -6.0000 Du        
   1069 ****        17.5000   1.0000  -5.7500 Du        
   1070 ****        17.5000   1.0000  -5.5000 Du        
   1071 ****        17.5000   1.0000  -5.2500 Du        
   1072 ****        17.5000   1.2500  -6.7500 Du        
   1073 ****        17.5000   1.2500  -6.5000 Du        
   1074 ****        17.5000   1.2500  -6.2500 Du        
   1075 ****        17.5000   1.2500  -6.0000 Du        
   1076 ****        17.5000   1.2500  -5.7500 Du        
   1077 ****        17.5000   1.2500  -5.5000 Du        
   1078 ****        17.5000   1.2500  -5.2500 Du        
   1079 ****        17.5000   1.2500  -5.0000 Du        
   1080 ****        17.5000   1.5000  -6.5000 Du        
   1081 ****        17.5000   1.5000  -6.2500 Du        
   1082 ****        17.5000   1.5000  -6.0000 Du        
   1083 ****        17.5000   1.5000  -5.7500 Du        
   1084 ****        17.5000   1.5000  -5.5000 Du        
   1085 ****        17.5000   1.5000  -5.2500 Du        
   1086 ****        17.5000   1.5000  -5.0000 Du        
   1087 ****        17.5000   1.7500  -6.2500 Du        
   1088 ****        17.5000   1.7500  -6.0000 Du        
   1089 ****        17.5000   1.7500  -5.7500 Du        
   1090 ****        17.5000   1.7500  -5.5000 Du        
   1091 ****        17.5000   1.7500  -5.2500 Du        
   1092 ****        17.5000   1.7500  -5.0000 Du        
   1093 ****        17.5000   1.7500  -4.7500 Du        
   1094 ****        17.5000   2.0000  -6.2500 Du        
   1095 ****        17.5000   2.0000  -6.0000 Du        
   1096 ****        17.5000   2.0000  -5.7500 Du        
   1097 ****        17.5000   2.0000  -5.5000 Du        
   1098 ****        17.5000   2.0000  -5.2500 Du        
   1099 ****        17.5000   2.0000  -5.0000 Du        
   1100 ****        17.5000   2.0000  -4.7500 Du        
   1101 ****        17.5000   2.0000  -4.5000 Du        
   1102 ****        17.5000   2.2500  -6.0000 Du        
   1103 ****        17.5000   2.2500  -5.7500 Du        
   1104 ****        17.5000   2.2500  -5.5000 Du        
   1105 ****        17.5000   2.2500  -5.2500 Du        
   1106 ****        17.5000   2.2500  -5.0000 Du        
   1107 ****        17.5000   2.2500  -4.7500 Du        
   1108 ****        17.5000   2.2500  -4.5000 Du        
   1109 ****        17.5000   2.2500  -4.2500 Du        
   1110 ****        17.5000   2.5000  -5.7500 Du        
   1111 ****        17.5000   2.5000  -5.5000 Du        
   1112 ****        17.5000   2.5000  -5.2500 Du        
   1113 ****        17.5000   2.5000  -5.0000 Du        
   1114 ****        17.5000   2.5000  -4.7500 Du        
   1115 ****        17.5000   2.5000  -4.5000 Du        
   1116 ****        17.5000   2.5000  -4.2500 Du        
   1117 ****        17.5000   2.7500  -5.7500 Du        
   1118 ****        17.5000   2.7500  -5.5000 Du        
   1119 ****        17.5000   2.7500  -5.2500 Du        
   1120 ****        17.5000   2.7500  -5.0000 Du        
   1121 ****        17.5000   2.7500  -4.7500 Du        
   1122 ****        17.5000   2.7500  -4.5000 Du        
   1123 ****        17.5000   2.7500  -4.2500 Du        
   1124 ****        17.5000   3.0000  -5.7500 Du        
   1125 ****        17.5000   3.0000  -5.5000 Du        
   1126 ****        17.5000   3.0000  -5.2500 Du        
   1127 ****        17.5000   3.0000  -5.0000 Du        
   1128 ****        17.5000   3.0000  -4.7500 Du        
   1129 ****        17.5000   3.0000  -4.5000 Du        
   1130 ****        17.5000   3.0000  -4.2500 Du        
   1131 ****        17.5000   3.2500  -5.5000 Du        
   1132 ****        17.5000   3.2500  -5.2500 Du        
   1133 ****        17.5000   3.2500  -5.0000 Du        
   1134 ****        17.5000   3.2500  -4.7500 Du        
   1135 ****        17.5000   3.2500  -4.5000 Du        
   1136 ****        17.5000   3.2500  -4.2500 Du        
   1137 ****        17.5000   3.5000  -5.5000 Du        
   1138 ****        17.5000   3.5000  -5.2500 Du        
   1139 ****        17.5000   3.5000  -5.0000 Du        
   1140 ****        17.5000   3.5000  -4.7500 Du        
   1141 ****        17.5000   3.5000  -4.5000 Du        
   1142 ****        17.5000   3.5000  -4.2500 Du        
   1143 ****        17.5000   3.7500  -5.7500 Du        
   1144 ****        17.5000   3.7500  -5.5000 Du        
   1145 ****        17.5000   3.7500  -5.2500 Du        
   1146 ****        17.5000   3.7500  -5.0000 Du        
   1147 ****        17.5000   3.7500  -4.7500 Du        
   1148 ****        17.5000   3.7500  -4.5000 Du        
   1149 ****        17.5000   3.7500  -4.2500 Du        
   1150 ****        17.5000   3.7500  -4.0000 Du        
   1151 ****        17.5000   4.0000  -5.7500 Du        
   1152 ****        17.5000   4.0000  -5.5000 Du        
   1153 ****        17.5000   4.0000  -5.2500 Du        
   1154 ****        17.5000   4.0000  -5.0000 Du        
   1155 ****        17.5000   4.0000  -4.7500 Du        
   1156 ****        17.5000   4.0000  -4.5000 Du        
   1157 ****        17.5000   4.0000  -4.2500 Du        
   1158 ****        17.5000   4.0000  -4.0000 Du        
   1159 ****        17.5000   4.2500  -5.7500 Du        
   1160 ****        17.5000   4.2500  -5.5000 Du        
   1161 ****        17.5000   4.2500  -5.2500 Du        
   1162 ****        17.5000   4.2500  -5.0000 Du        
   1163 ****        17.5000   4.2500  -4.7500 Du        
   1164 ****        17.5000   4.2500  -4.5000 Du        
   1165 ****        17.5000   4.2500  -4.2500 Du        
   1166 ****        17.5000   4.2500  -4.0000 Du        
   1167 ****        17.5000   4.5000  -6.0000 Du        
   1168 ****        17.5000   4.5000  -5.7500 Du        
   1169 ****        17.5000   4.5000  -5.5000 Du        
   1170 ****        17.5000   4.5000  -5.2500 Du        
   1171 ****        17.5000   4.5000  -5.0000 Du        
   1172 ****        17.5000   4.5000  -4.7500 Du        
   1173 ****        17.5000   4.5000  -4.5000 Du        
   1174 ****        17.5000   4.5000  -4.2500 Du        
   1175 ****        17.5000   4.5000  -4.0000 Du        
   1176 ****        17.5000   4.7500  -6.0000 Du        
   1177 ****        17.5000   4.7500  -5.7500 Du        
   1178 ****        17.5000   4.7500  -5.5000 Du        
   1179 ****        17.5000   4.7500  -5.2500 Du        
   1180 ****        17.5000   4.7500  -5.0000 Du        
   1181 ****        17.5000   4.7500  -4.7500 Du        
   1182 ****        17.5000   4.7500  -4.5000 Du        
   1183 ****        17.5000   5.0000  -6.0000 Du        
   1184 ****        17.5000   5.0000  -5.7500 Du        
   1185 ****        17.5000   5.0000  -5.5000 Du        
   1186 ****        17.5000   5.0000  -5.2500 Du        
   1187 ****        17.5000   5.0000  -5.0000 Du        
   1188 ****        17.5000   5.0000  -4.7500 Du        
   1189 ****        17.5000   5.2500  -6.0000 Du        
   1190 ****        17.5000   5.2500  -5.7500 Du        
   1191 ****        17.5000   5.2500  -5.5000 Du        
   1192 ****        17.5000   5.2500  -5.2500 Du        
   1193 ****        17.5000   5.2500  -5.0000 Du        
   1194 ****        17.7500  -5.7500 -11.0000 Du        
   1195 ****        17.7500  -5.7500 -10.7500 Du        
   1196 ****        17.7500  -0.2500  -6.7500 Du        
   1197 ****        17.7500  -0.2500  -6.5000 Du        
   1198 ****        17.7500   0.0000  -7.0000 Du        
   1199 ****        17.7500   0.0000  -6.7500 Du        
   1200 ****        17.7500   0.0000  -6.5000 Du        
   1201 ****        17.7500   0.0000  -6.2500 Du        
   1202 ****        17.7500   0.0000  -6.0000 Du        
   1203 ****        17.7500   0.2500  -7.0000 Du        
   1204 ****        17.7500   0.2500  -6.7500 Du        
   1205 ****        17.7500   0.2500  -6.5000 Du        
   1206 ****        17.7500   0.2500  -6.2500 Du        
   1207 ****        17.7500   0.2500  -6.0000 Du        
   1208 ****        17.7500   0.2500  -5.7500 Du        
   1209 ****        17.7500   0.2500  -5.5000 Du        
   1210 ****        17.7500   0.5000  -7.2500 Du        
   1211 ****        17.7500   0.5000  -7.0000 Du        
   1212 ****        17.7500   0.5000  -6.7500 Du        
   1213 ****        17.7500   0.5000  -6.5000 Du        
   1214 ****        17.7500   0.5000  -6.2500 Du        
   1215 ****        17.7500   0.5000  -6.0000 Du        
   1216 ****        17.7500   0.5000  -5.7500 Du        
   1217 ****        17.7500   0.5000  -5.5000 Du        
   1218 ****        17.7500   0.7500  -7.2500 Du        
   1219 ****        17.7500   0.7500  -7.0000 Du        
   1220 ****        17.7500   0.7500  -6.7500 Du        
   1221 ****        17.7500   0.7500  -6.5000 Du        
   1222 ****        17.7500   0.7500  -6.2500 Du        
   1223 ****        17.7500   0.7500  -6.0000 Du        
   1224 ****        17.7500   0.7500  -5.7500 Du        
   1225 ****        17.7500   0.7500  -5.5000 Du        
   1226 ****        17.7500   0.7500  -5.2500 Du        
   1227 ****        17.7500   1.0000  -7.2500 Du        
   1228 ****        17.7500   1.0000  -7.0000 Du        
   1229 ****        17.7500   1.0000  -6.7500 Du        
   1230 ****        17.7500   1.0000  -6.5000 Du        
   1231 ****        17.7500   1.0000  -6.2500 Du        
   1232 ****        17.7500   1.0000  -6.0000 Du        
   1233 ****        17.7500   1.0000  -5.7500 Du        
   1234 ****        17.7500   1.0000  -5.5000 Du        
   1235 ****        17.7500   1.0000  -5.2500 Du        
   1236 ****        17.7500   1.0000  -5.0000 Du        
   1237 ****        17.7500   1.2500  -7.0000 Du        
   1238 ****        17.7500   1.2500  -6.7500 Du        
   1239 ****        17.7500   1.2500  -6.5000 Du        
   1240 ****        17.7500   1.2500  -6.2500 Du        
   1241 ****        17.7500   1.2500  -6.0000 Du        
   1242 ****        17.7500   1.2500  -5.7500 Du        
   1243 ****        17.7500   1.2500  -5.5000 Du        
   1244 ****        17.7500   1.2500  -5.2500 Du        
   1245 ****        17.7500   1.2500  -5.0000 Du        
   1246 ****        17.7500   1.2500  -4.7500 Du        
   1247 ****        17.7500   1.5000  -6.5000 Du        
   1248 ****        17.7500   1.5000  -6.2500 Du        
   1249 ****        17.7500   1.5000  -6.0000 Du        
   1250 ****        17.7500   1.5000  -5.7500 Du        
   1251 ****        17.7500   1.5000  -5.5000 Du        
   1252 ****        17.7500   1.5000  -5.2500 Du        
   1253 ****        17.7500   1.5000  -5.0000 Du        
   1254 ****        17.7500   1.5000  -4.7500 Du        
   1255 ****        17.7500   1.7500  -6.5000 Du        
   1256 ****        17.7500   1.7500  -6.2500 Du        
   1257 ****        17.7500   1.7500  -6.0000 Du        
   1258 ****        17.7500   1.7500  -5.7500 Du        
   1259 ****        17.7500   1.7500  -5.5000 Du        
   1260 ****        17.7500   1.7500  -5.2500 Du        
   1261 ****        17.7500   1.7500  -5.0000 Du        
   1262 ****        17.7500   1.7500  -4.7500 Du        
   1263 ****        17.7500   1.7500  -4.5000 Du        
   1264 ****        17.7500   2.0000 -10.7500 Du        
   1265 ****        17.7500   2.0000  -6.2500 Du        
   1266 ****        17.7500   2.0000  -6.0000 Du        
   1267 ****        17.7500   2.0000  -5.7500 Du        
   1268 ****        17.7500   2.0000  -5.5000 Du        
   1269 ****        17.7500   2.0000  -5.2500 Du        
   1270 ****        17.7500   2.0000  -5.0000 Du        
   1271 ****        17.7500   2.0000  -4.7500 Du        
   1272 ****        17.7500   2.0000  -4.5000 Du        
   1273 ****        17.7500   2.0000  -4.2500 Du        
   1274 ****        17.7500   2.2500 -11.0000 Du        
   1275 ****        17.7500   2.2500 -10.7500 Du        
   1276 ****        17.7500   2.2500 -10.5000 Du        
   1277 ****        17.7500   2.2500  -6.2500 Du        
   1278 ****        17.7500   2.2500  -6.0000 Du        
   1279 ****        17.7500   2.2500  -5.7500 Du        
   1280 ****        17.7500   2.2500  -5.5000 Du        
   1281 ****        17.7500   2.2500  -5.2500 Du        
   1282 ****        17.7500   2.2500  -5.0000 Du        
   1283 ****        17.7500   2.2500  -4.7500 Du        
   1284 ****        17.7500   2.2500  -4.5000 Du        
   1285 ****        17.7500   2.2500  -4.2500 Du        
   1286 ****        17.7500   2.5000 -11.0000 Du        
   1287 ****        17.7500   2.5000 -10.7500 Du        
   1288 ****        17.7500   2.5000 -10.5000 Du        
   1289 ****        17.7500   2.5000  -5.7500 Du        
   1290 ****        17.7500   2.5000  -5.5000 Du        
   1291 ****        17.7500   2.5000  -5.2500 Du        
   1292 ****        17.7500   2.5000  -5.0000 Du        
   1293 ****        17.7500   2.5000  -4.7500 Du        
   1294 ****        17.7500   2.5000  -4.5000 Du        
   1295 ****        17.7500   2.5000  -4.2500 Du        
   1296 ****        17.7500   2.7500 -11.0000 Du        
   1297 ****        17.7500   2.7500 -10.7500 Du        
   1298 ****        17.7500   2.7500 -10.5000 Du        
   1299 ****        17.7500   2.7500 -10.2500 Du        
   1300 ****        17.7500   2.7500  -5.7500 Du        
   1301 ****        17.7500   2.7500  -5.5000 Du        
   1302 ****        17.7500   2.7500  -5.2500 Du        
   1303 ****        17.7500   2.7500  -5.0000 Du        
   1304 ****        17.7500   2.7500  -4.7500 Du        
   1305 ****        17.7500   2.7500  -4.5000 Du        
   1306 ****        17.7500   2.7500  -4.2500 Du        
   1307 ****        17.7500   3.0000 -11.0000 Du        
   1308 ****        17.7500   3.0000 -10.7500 Du        
   1309 ****        17.7500   3.0000 -10.5000 Du        
   1310 ****        17.7500   3.0000 -10.2500 Du        
   1311 ****        17.7500   3.0000  -5.7500 Du        
   1312 ****        17.7500   3.0000  -5.5000 Du        
   1313 ****        17.7500   3.0000  -5.2500 Du        
   1314 ****        17.7500   3.0000  -5.0000 Du        
   1315 ****        17.7500   3.0000  -4.7500 Du        
   1316 ****        17.7500   3.0000  -4.5000 Du        
   1317 ****        17.7500   3.0000  -4.2500 Du        
   1318 ****        17.7500   3.0000  -4.0000 Du        
   1319 ****        17.7500   3.2500 -10.7500 Du        
   1320 ****        17.7500   3.2500 -10.5000 Du        
   1321 ****        17.7500   3.2500 -10.2500 Du        
   1322 ****        17.7500   3.2500  -5.7500 Du        
   1323 ****        17.7500   3.2500  -5.5000 Du        
   1324 ****        17.7500   3.2500  -5.2500 Du        
   1325 ****        17.7500   3.2500  -5.0000 Du        
   1326 ****        17.7500   3.2500  -4.7500 Du        
   1327 ****        17.7500   3.2500  -4.5000 Du        
   1328 ****        17.7500   3.2500  -4.2500 Du        
   1329 ****        17.7500   3.2500  -4.0000 Du        
   1330 ****        17.7500   3.5000  -5.7500 Du        
   1331 ****        17.7500   3.5000  -5.5000 Du        
   1332 ****        17.7500   3.5000  -5.2500 Du        
   1333 ****        17.7500   3.5000  -5.0000 Du        
   1334 ****        17.7500   3.5000  -4.7500 Du        
   1335 ****        17.7500   3.5000  -4.5000 Du        
   1336 ****        17.7500   3.5000  -4.2500 Du        
   1337 ****        17.7500   3.5000  -4.0000 Du        
   1338 ****        17.7500   3.7500  -5.7500 Du        
   1339 ****        17.7500   3.7500  -5.5000 Du        
   1340 ****        17.7500   3.7500  -5.2500 Du        
   1341 ****        17.7500   3.7500  -5.0000 Du        
   1342 ****        17.7500   3.7500  -4.7500 Du        
   1343 ****        17.7500   3.7500  -4.5000 Du        
   1344 ****        17.7500   3.7500  -4.2500 Du        
   1345 ****        17.7500   3.7500  -4.0000 Du        
   1346 ****        17.7500   4.0000  -5.7500 Du        
   1347 ****        17.7500   4.0000  -5.5000 Du        
   1348 ****        17.7500   4.0000  -5.2500 Du        
   1349 ****        17.7500   4.0000  -5.0000 Du        
   1350 ****        17.7500   4.0000  -4.7500 Du        
   1351 ****        17.7500   4.0000  -4.5000 Du        
   1352 ****        17.7500   4.0000  -4.2500 Du        
   1353 ****        17.7500   4.0000  -4.0000 Du        
   1354 ****        17.7500   4.0000  -3.7500 Du        
   1355 ****        17.7500   4.2500  -6.0000 Du        
   1356 ****        17.7500   4.2500  -5.7500 Du        
   1357 ****        17.7500   4.2500  -5.5000 Du        
   1358 ****        17.7500   4.2500  -5.2500 Du        
   1359 ****        17.7500   4.2500  -5.0000 Du        
   1360 ****        17.7500   4.2500  -4.7500 Du        
   1361 ****        17.7500   4.2500  -4.5000 Du        
   1362 ****        17.7500   4.2500  -4.2500 Du        
   1363 ****        17.7500   4.2500  -4.0000 Du        
   1364 ****        17.7500   4.2500  -3.7500 Du        
   1365 ****        17.7500   4.5000  -6.0000 Du        
   1366 ****        17.7500   4.5000  -5.7500 Du        
   1367 ****        17.7500   4.5000  -5.5000 Du        
   1368 ****        17.7500   4.5000  -5.2500 Du        
   1369 ****        17.7500   4.5000  -5.0000 Du        
   1370 ****        17.7500   4.5000  -4.7500 Du        
   1371 ****        17.7500   4.5000  -4.5000 Du        
   1372 ****        17.7500   4.5000  -4.2500 Du        
   1373 ****        17.7500   4.5000  -4.0000 Du        
   1374 ****        17.7500   4.7500  -6.0000 Du        
   1375 ****        17.7500   4.7500  -5.7500 Du        
   1376 ****        17.7500   4.7500  -5.5000 Du        
   1377 ****        17.7500   4.7500  -5.2500 Du        
   1378 ****        17.7500   4.7500  -5.0000 Du        
   1379 ****        17.7500   4.7500  -4.7500 Du        
   1380 ****        17.7500   4.7500  -4.5000 Du        
   1381 ****        17.7500   4.7500  -4.2500 Du        
   1382 ****        17.7500   5.0000  -6.2500 Du        
   1383 ****        17.7500   5.0000  -6.0000 Du        
   1384 ****        17.7500   5.0000  -5.7500 Du        
   1385 ****        17.7500   5.0000  -5.5000 Du        
   1386 ****        17.7500   5.0000  -5.2500 Du        
   1387 ****        17.7500   5.0000  -5.0000 Du        
   1388 ****        17.7500   5.0000  -4.7500 Du        
   1389 ****        17.7500   5.2500  -6.2500 Du        
   1390 ****        17.7500   5.2500  -6.0000 Du        
   1391 ****        17.7500   5.2500  -5.7500 Du        
   1392 ****        17.7500   5.2500  -5.5000 Du        
   1393 ****        17.7500   5.2500  -5.2500 Du        
   1394 ****        17.7500   5.2500  -5.0000 Du        
   1395 ****        18.0000  -6.2500  -7.0000 Du        
   1396 ****        18.0000  -6.0000 -10.5000 Du        
   1397 ****        18.0000  -6.0000 -10.2500 Du        
   1398 ****        18.0000  -6.0000  -7.5000 Du        
   1399 ****        18.0000  -6.0000  -7.2500 Du        
   1400 ****        18.0000  -6.0000  -7.0000 Du        
   1401 ****        18.0000  -6.0000  -6.7500 Du        
   1402 ****        18.0000  -5.7500 -11.0000 Du        
   1403 ****        18.0000  -5.7500 -10.7500 Du        
   1404 ****        18.0000  -5.7500 -10.5000 Du        
   1405 ****        18.0000  -5.7500 -10.2500 Du        
   1406 ****        18.0000  -5.7500 -10.0000 Du        
   1407 ****        18.0000  -5.7500  -9.7500 Du        
   1408 ****        18.0000  -5.7500  -8.0000 Du        
   1409 ****        18.0000  -5.7500  -7.7500 Du        
   1410 ****        18.0000  -5.7500  -7.5000 Du        
   1411 ****        18.0000  -5.7500  -7.2500 Du        
   1412 ****        18.0000  -5.7500  -7.0000 Du        
   1413 ****        18.0000  -5.7500  -6.7500 Du        
   1414 ****        18.0000  -5.5000 -10.5000 Du        
   1415 ****        18.0000  -5.5000 -10.2500 Du        
   1416 ****        18.0000  -5.5000 -10.0000 Du        
   1417 ****        18.0000  -5.5000  -9.7500 Du        
   1418 ****        18.0000  -5.5000  -8.0000 Du        
   1419 ****        18.0000  -5.5000  -7.7500 Du        
   1420 ****        18.0000  -5.5000  -7.5000 Du        
   1421 ****        18.0000  -5.5000  -7.2500 Du        
   1422 ****        18.0000  -5.5000  -7.0000 Du        
   1423 ****        18.0000  -0.2500  -6.7500 Du        
   1424 ****        18.0000  -0.2500  -6.5000 Du        
   1425 ****        18.0000  -0.2500  -6.2500 Du        
   1426 ****        18.0000  -0.2500  -6.0000 Du        
   1427 ****        18.0000   0.0000  -7.0000 Du        
   1428 ****        18.0000   0.0000  -6.7500 Du        
   1429 ****        18.0000   0.0000  -6.5000 Du        
   1430 ****        18.0000   0.0000  -6.2500 Du        
   1431 ****        18.0000   0.0000  -6.0000 Du        
   1432 ****        18.0000   0.0000  -5.7500 Du        
   1433 ****        18.0000   0.2500  -7.2500 Du        
   1434 ****        18.0000   0.2500  -7.0000 Du        
   1435 ****        18.0000   0.2500  -6.7500 Du        
   1436 ****        18.0000   0.2500  -6.5000 Du        
   1437 ****        18.0000   0.2500  -6.2500 Du        
   1438 ****        18.0000   0.2500  -6.0000 Du        
   1439 ****        18.0000   0.2500  -5.7500 Du        
   1440 ****        18.0000   0.2500  -5.5000 Du        
   1441 ****        18.0000   0.2500  -5.2500 Du        
   1442 ****        18.0000   0.5000  -7.2500 Du        
   1443 ****        18.0000   0.5000  -7.0000 Du        
   1444 ****        18.0000   0.5000  -6.7500 Du        
   1445 ****        18.0000   0.5000  -6.5000 Du        
   1446 ****        18.0000   0.5000  -6.2500 Du        
   1447 ****        18.0000   0.5000  -6.0000 Du        
   1448 ****        18.0000   0.5000  -5.7500 Du        
   1449 ****        18.0000   0.5000  -5.5000 Du        
   1450 ****        18.0000   0.5000  -5.2500 Du        
   1451 ****        18.0000   0.7500  -7.2500 Du        
   1452 ****        18.0000   0.7500  -7.0000 Du        
   1453 ****        18.0000   0.7500  -6.7500 Du        
   1454 ****        18.0000   0.7500  -6.5000 Du        
   1455 ****        18.0000   0.7500  -6.2500 Du        
   1456 ****        18.0000   0.7500  -6.0000 Du        
   1457 ****        18.0000   0.7500  -5.7500 Du        
   1458 ****        18.0000   0.7500  -5.5000 Du        
   1459 ****        18.0000   0.7500  -5.2500 Du        
   1460 ****        18.0000   0.7500  -5.0000 Du        
   1461 ****        18.0000   1.0000  -7.2500 Du        
   1462 ****        18.0000   1.0000  -7.0000 Du        
   1463 ****        18.0000   1.0000  -6.7500 Du        
   1464 ****        18.0000   1.0000  -6.5000 Du        
   1465 ****        18.0000   1.0000  -6.2500 Du        
   1466 ****        18.0000   1.0000  -6.0000 Du        
   1467 ****        18.0000   1.0000  -5.7500 Du        
   1468 ****        18.0000   1.0000  -5.5000 Du        
   1469 ****        18.0000   1.0000  -5.2500 Du        
   1470 ****        18.0000   1.0000  -5.0000 Du        
   1471 ****        18.0000   1.0000  -4.7500 Du        
   1472 ****        18.0000   1.2500  -7.2500 Du        
   1473 ****        18.0000   1.2500  -7.0000 Du        
   1474 ****        18.0000   1.2500  -6.7500 Du        
   1475 ****        18.0000   1.2500  -6.5000 Du        
   1476 ****        18.0000   1.2500  -6.2500 Du        
   1477 ****        18.0000   1.2500  -6.0000 Du        
   1478 ****        18.0000   1.2500  -5.7500 Du        
   1479 ****        18.0000   1.2500  -5.5000 Du        
   1480 ****        18.0000   1.2500  -5.2500 Du        
   1481 ****        18.0000   1.2500  -5.0000 Du        
   1482 ****        18.0000   1.2500  -4.7500 Du        
   1483 ****        18.0000   1.2500  -4.5000 Du        
   1484 ****        18.0000   1.5000  -7.0000 Du        
   1485 ****        18.0000   1.5000  -6.7500 Du        
   1486 ****        18.0000   1.5000  -6.5000 Du        
   1487 ****        18.0000   1.5000  -6.2500 Du        
   1488 ****        18.0000   1.5000  -6.0000 Du        
   1489 ****        18.0000   1.5000  -5.7500 Du        
   1490 ****        18.0000   1.5000  -5.5000 Du        
   1491 ****        18.0000   1.5000  -5.2500 Du        
   1492 ****        18.0000   1.5000  -5.0000 Du        
   1493 ****        18.0000   1.5000  -4.7500 Du        
   1494 ****        18.0000   1.5000  -4.5000 Du        
   1495 ****        18.0000   1.5000  -4.2500 Du        
   1496 ****        18.0000   1.7500  -6.7500 Du        
   1497 ****        18.0000   1.7500  -6.5000 Du        
   1498 ****        18.0000   1.7500  -6.2500 Du        
   1499 ****        18.0000   1.7500  -6.0000 Du        
   1500 ****        18.0000   1.7500  -5.7500 Du        
   1501 ****        18.0000   1.7500  -5.5000 Du        
   1502 ****        18.0000   1.7500  -5.2500 Du        
   1503 ****        18.0000   1.7500  -5.0000 Du        
   1504 ****        18.0000   1.7500  -4.7500 Du        
   1505 ****        18.0000   1.7500  -4.5000 Du        
   1506 ****        18.0000   1.7500  -4.2500 Du        
   1507 ****        18.0000   1.7500  -4.0000 Du        
   1508 ****        18.0000   2.0000 -10.7500 Du        
   1509 ****        18.0000   2.0000 -10.5000 Du        
   1510 ****        18.0000   2.0000 -10.2500 Du        
   1511 ****        18.0000   2.0000  -6.5000 Du        
   1512 ****        18.0000   2.0000  -6.2500 Du        
   1513 ****        18.0000   2.0000  -6.0000 Du        
   1514 ****        18.0000   2.0000  -5.7500 Du        
   1515 ****        18.0000   2.0000  -5.5000 Du        
   1516 ****        18.0000   2.0000  -5.2500 Du        
   1517 ****        18.0000   2.0000  -5.0000 Du        
   1518 ****        18.0000   2.0000  -4.7500 Du        
   1519 ****        18.0000   2.0000  -4.5000 Du        
   1520 ****        18.0000   2.0000  -4.2500 Du        
   1521 ****        18.0000   2.0000  -4.0000 Du        
   1522 ****        18.0000   2.2500 -11.0000 Du        
   1523 ****        18.0000   2.2500 -10.7500 Du        
   1524 ****        18.0000   2.2500 -10.5000 Du        
   1525 ****        18.0000   2.2500 -10.2500 Du        
   1526 ****        18.0000   2.2500 -10.0000 Du        
   1527 ****        18.0000   2.2500  -6.5000 Du        
   1528 ****        18.0000   2.2500  -6.2500 Du        
   1529 ****        18.0000   2.2500  -6.0000 Du        
   1530 ****        18.0000   2.2500  -5.7500 Du        
   1531 ****        18.0000   2.2500  -5.5000 Du        
   1532 ****        18.0000   2.2500  -5.2500 Du        
   1533 ****        18.0000   2.2500  -5.0000 Du        
   1534 ****        18.0000   2.2500  -4.7500 Du        
   1535 ****        18.0000   2.2500  -4.5000 Du        
   1536 ****        18.0000   2.2500  -4.2500 Du        
   1537 ****        18.0000   2.2500  -4.0000 Du        
   1538 ****        18.0000   2.5000 -11.0000 Du        
   1539 ****        18.0000   2.5000 -10.7500 Du        
   1540 ****        18.0000   2.5000 -10.5000 Du        
   1541 ****        18.0000   2.5000 -10.2500 Du        
   1542 ****        18.0000   2.5000 -10.0000 Du        
   1543 ****        18.0000   2.5000  -6.0000 Du        
   1544 ****        18.0000   2.5000  -5.7500 Du        
   1545 ****        18.0000   2.5000  -5.5000 Du        
   1546 ****        18.0000   2.5000  -5.2500 Du        
   1547 ****        18.0000   2.5000  -5.0000 Du        
   1548 ****        18.0000   2.5000  -4.7500 Du        
   1549 ****        18.0000   2.5000  -4.5000 Du        
   1550 ****        18.0000   2.5000  -4.2500 Du        
   1551 ****        18.0000   2.5000  -4.0000 Du        
   1552 ****        18.0000   2.7500 -11.0000 Du        
   1553 ****        18.0000   2.7500 -10.7500 Du        
   1554 ****        18.0000   2.7500 -10.5000 Du        
   1555 ****        18.0000   2.7500 -10.2500 Du        
   1556 ****        18.0000   2.7500 -10.0000 Du        
   1557 ****        18.0000   2.7500  -6.0000 Du        
   1558 ****        18.0000   2.7500  -5.7500 Du        
   1559 ****        18.0000   2.7500  -5.5000 Du        
   1560 ****        18.0000   2.7500  -5.2500 Du        
   1561 ****        18.0000   2.7500  -5.0000 Du        
   1562 ****        18.0000   2.7500  -4.7500 Du        
   1563 ****        18.0000   2.7500  -4.5000 Du        
   1564 ****        18.0000   2.7500  -4.2500 Du        
   1565 ****        18.0000   2.7500  -4.0000 Du        
   1566 ****        18.0000   3.0000 -11.0000 Du        
   1567 ****        18.0000   3.0000 -10.7500 Du        
   1568 ****        18.0000   3.0000 -10.5000 Du        
   1569 ****        18.0000   3.0000 -10.2500 Du        
   1570 ****        18.0000   3.0000 -10.0000 Du        
   1571 ****        18.0000   3.0000  -6.0000 Du        
   1572 ****        18.0000   3.0000  -5.7500 Du        
   1573 ****        18.0000   3.0000  -5.5000 Du        
   1574 ****        18.0000   3.0000  -5.2500 Du        
   1575 ****        18.0000   3.0000  -5.0000 Du        
   1576 ****        18.0000   3.0000  -4.7500 Du        
   1577 ****        18.0000   3.0000  -4.5000 Du        
   1578 ****        18.0000   3.0000  -4.2500 Du        
   1579 ****        18.0000   3.0000  -4.0000 Du        
   1580 ****        18.0000   3.2500 -11.0000 Du        
   1581 ****        18.0000   3.2500 -10.7500 Du        
   1582 ****        18.0000   3.2500 -10.5000 Du        
   1583 ****        18.0000   3.2500 -10.2500 Du        
   1584 ****        18.0000   3.2500 -10.0000 Du        
   1585 ****        18.0000   3.2500  -5.7500 Du        
   1586 ****        18.0000   3.2500  -5.5000 Du        
   1587 ****        18.0000   3.2500  -5.2500 Du        
   1588 ****        18.0000   3.2500  -5.0000 Du        
   1589 ****        18.0000   3.2500  -4.7500 Du        
   1590 ****        18.0000   3.2500  -4.5000 Du        
   1591 ****        18.0000   3.2500  -4.2500 Du        
   1592 ****        18.0000   3.2500  -4.0000 Du        
   1593 ****        18.0000   3.5000 -10.7500 Du        
   1594 ****        18.0000   3.5000 -10.5000 Du        
   1595 ****        18.0000   3.5000 -10.2500 Du        
   1596 ****        18.0000   3.5000 -10.0000 Du        
   1597 ****        18.0000   3.5000  -5.7500 Du        
   1598 ****        18.0000   3.5000  -5.5000 Du        
   1599 ****        18.0000   3.5000  -5.2500 Du        
   1600 ****        18.0000   3.5000  -5.0000 Du        
   1601 ****        18.0000   3.5000  -4.7500 Du        
   1602 ****        18.0000   3.5000  -4.5000 Du        
   1603 ****        18.0000   3.5000  -4.2500 Du        
   1604 ****        18.0000   3.5000  -4.0000 Du        
   1605 ****        18.0000   3.7500  -5.7500 Du        
   1606 ****        18.0000   3.7500  -5.5000 Du        
   1607 ****        18.0000   3.7500  -5.2500 Du        
   1608 ****        18.0000   3.7500  -5.0000 Du        
   1609 ****        18.0000   3.7500  -4.7500 Du        
   1610 ****        18.0000   3.7500  -4.5000 Du        
   1611 ****        18.0000   3.7500  -4.2500 Du        
   1612 ****        18.0000   3.7500  -4.0000 Du        
   1613 ****        18.0000   3.7500  -3.7500 Du        
   1614 ****        18.0000   4.0000  -6.0000 Du        
   1615 ****        18.0000   4.0000  -5.7500 Du        
   1616 ****        18.0000   4.0000  -5.5000 Du        
   1617 ****        18.0000   4.0000  -5.2500 Du        
   1618 ****        18.0000   4.0000  -5.0000 Du        
   1619 ****        18.0000   4.0000  -4.7500 Du        
   1620 ****        18.0000   4.0000  -4.5000 Du        
   1621 ****        18.0000   4.0000  -4.2500 Du        
   1622 ****        18.0000   4.0000  -4.0000 Du        
   1623 ****        18.0000   4.0000  -3.7500 Du        
   1624 ****        18.0000   4.2500  -6.0000 Du        
   1625 ****        18.0000   4.2500  -5.7500 Du        
   1626 ****        18.0000   4.2500  -5.5000 Du        
   1627 ****        18.0000   4.2500  -5.2500 Du        
   1628 ****        18.0000   4.2500  -5.0000 Du        
   1629 ****        18.0000   4.2500  -4.7500 Du        
   1630 ****        18.0000   4.2500  -4.5000 Du        
   1631 ****        18.0000   4.2500  -4.2500 Du        
   1632 ****        18.0000   4.2500  -4.0000 Du        
   1633 ****        18.0000   4.2500  -3.7500 Du        
   1634 ****        18.0000   4.5000  -6.0000 Du        
   1635 ****        18.0000   4.5000  -5.7500 Du        
   1636 ****        18.0000   4.5000  -5.5000 Du        
   1637 ****        18.0000   4.5000  -5.2500 Du        
   1638 ****        18.0000   4.5000  -5.0000 Du        
   1639 ****        18.0000   4.5000  -4.7500 Du        
   1640 ****        18.0000   4.5000  -4.5000 Du        
   1641 ****        18.0000   4.5000  -4.2500 Du        
   1642 ****        18.0000   4.5000  -4.0000 Du        
   1643 ****        18.0000   4.7500  -6.2500 Du        
   1644 ****        18.0000   4.7500  -6.0000 Du        
   1645 ****        18.0000   4.7500  -5.7500 Du        
   1646 ****        18.0000   4.7500  -5.5000 Du        
   1647 ****        18.0000   4.7500  -5.2500 Du        
   1648 ****        18.0000   4.7500  -5.0000 Du        
   1649 ****        18.0000   4.7500  -4.7500 Du        
   1650 ****        18.0000   4.7500  -4.5000 Du        
   1651 ****        18.0000   5.0000  -6.2500 Du        
   1652 ****        18.0000   5.0000  -6.0000 Du        
   1653 ****        18.0000   5.0000  -5.7500 Du        
   1654 ****        18.0000   5.0000  -5.5000 Du        
   1655 ****        18.0000   5.0000  -5.2500 Du        
   1656 ****        18.0000   5.0000  -5.0000 Du        
   1657 ****        18.0000   5.0000  -4.7500 Du        
   1658 ****        18.0000   5.2500  -6.0000 Du        
   1659 ****        18.0000   5.2500  -5.7500 Du        
   1660 ****        18.0000   5.2500  -5.5000 Du        
   1661 ****        18.0000   5.2500  -5.2500 Du        
   1662 ****        18.0000   5.2500  -5.0000 Du        
   1663 ****        18.2500  -6.5000  -7.0000 Du        
   1664 ****        18.2500  -6.2500  -7.5000 Du        
   1665 ****        18.2500  -6.2500  -7.2500 Du        
   1666 ****        18.2500  -6.2500  -7.0000 Du        
   1667 ****        18.2500  -6.2500  -6.7500 Du        
   1668 ****        18.2500  -6.0000 -10.5000 Du        
   1669 ****        18.2500  -6.0000 -10.2500 Du        
   1670 ****        18.2500  -6.0000 -10.0000 Du        
   1671 ****        18.2500  -6.0000  -9.7500 Du        
   1672 ****        18.2500  -6.0000  -8.0000 Du        
   1673 ****        18.2500  -6.0000  -7.7500 Du        
   1674 ****        18.2500  -6.0000  -7.5000 Du        
   1675 ****        18.2500  -6.0000  -7.2500 Du        
   1676 ****        18.2500  -6.0000  -7.0000 Du        
   1677 ****        18.2500  -6.0000  -6.7500 Du        
   1678 ****        18.2500  -6.0000  -6.5000 Du        
   1679 ****        18.2500  -5.7500 -10.7500 Du        
   1680 ****        18.2500  -5.7500 -10.5000 Du        
   1681 ****        18.2500  -5.7500 -10.2500 Du        
   1682 ****        18.2500  -5.7500 -10.0000 Du        
   1683 ****        18.2500  -5.7500  -9.7500 Du        
   1684 ****        18.2500  -5.7500  -9.5000 Du        
   1685 ****        18.2500  -5.7500  -9.2500 Du        
   1686 ****        18.2500  -5.7500  -9.0000 Du        
   1687 ****        18.2500  -5.7500  -8.7500 Du        
   1688 ****        18.2500  -5.7500  -8.5000 Du        
   1689 ****        18.2500  -5.7500  -8.2500 Du        
   1690 ****        18.2500  -5.7500  -8.0000 Du        
   1691 ****        18.2500  -5.7500  -7.7500 Du        
   1692 ****        18.2500  -5.7500  -7.5000 Du        
   1693 ****        18.2500  -5.7500  -7.2500 Du        
   1694 ****        18.2500  -5.7500  -7.0000 Du        
   1695 ****        18.2500  -5.7500  -6.7500 Du        
   1696 ****        18.2500  -5.7500  -6.5000 Du        
   1697 ****        18.2500  -5.5000 -10.7500 Du        
   1698 ****        18.2500  -5.5000 -10.5000 Du        
   1699 ****        18.2500  -5.5000 -10.2500 Du        
   1700 ****        18.2500  -5.5000 -10.0000 Du        
   1701 ****        18.2500  -5.5000  -9.7500 Du        
   1702 ****        18.2500  -5.5000  -9.5000 Du        
   1703 ****        18.2500  -5.5000  -9.2500 Du        
   1704 ****        18.2500  -5.5000  -9.0000 Du        
   1705 ****        18.2500  -5.5000  -8.7500 Du        
   1706 ****        18.2500  -5.5000  -8.5000 Du        
   1707 ****        18.2500  -5.5000  -8.2500 Du        
   1708 ****        18.2500  -5.5000  -8.0000 Du        
   1709 ****        18.2500  -5.5000  -7.7500 Du        
   1710 ****        18.2500  -5.5000  -7.5000 Du        
   1711 ****        18.2500  -5.5000  -7.2500 Du        
   1712 ****        18.2500  -5.5000  -7.0000 Du        
   1713 ****        18.2500  -5.5000  -6.7500 Du        
   1714 ****        18.2500  -5.2500  -9.5000 Du        
   1715 ****        18.2500  -5.2500  -9.2500 Du        
   1716 ****        18.2500  -5.2500  -9.0000 Du        
   1717 ****        18.2500  -5.2500  -8.7500 Du        
   1718 ****        18.2500  -5.2500  -8.5000 Du        
   1719 ****        18.2500  -5.2500  -8.2500 Du        
   1720 ****        18.2500  -5.2500  -8.0000 Du        
   1721 ****        18.2500  -5.2500  -7.7500 Du        
   1722 ****        18.2500  -5.2500  -7.5000 Du        
   1723 ****        18.2500  -5.2500  -7.2500 Du        
   1724 ****        18.2500  -5.2500  -7.0000 Du        
   1725 ****        18.2500  -5.0000  -8.0000 Du        
   1726 ****        18.2500  -5.0000  -7.7500 Du        
   1727 ****        18.2500  -5.0000  -7.5000 Du        
   1728 ****        18.2500  -0.2500  -6.7500 Du        
   1729 ****        18.2500  -0.2500  -6.5000 Du        
   1730 ****        18.2500  -0.2500  -6.2500 Du        
   1731 ****        18.2500  -0.2500  -6.0000 Du        
   1732 ****        18.2500   0.0000  -7.0000 Du        
   1733 ****        18.2500   0.0000  -6.7500 Du        
   1734 ****        18.2500   0.0000  -6.5000 Du        
   1735 ****        18.2500   0.0000  -6.2500 Du        
   1736 ****        18.2500   0.0000  -6.0000 Du        
   1737 ****        18.2500   0.0000  -5.7500 Du        
   1738 ****        18.2500   0.2500  -7.2500 Du        
   1739 ****        18.2500   0.2500  -7.0000 Du        
   1740 ****        18.2500   0.2500  -6.7500 Du        
   1741 ****        18.2500   0.2500  -6.5000 Du        
   1742 ****        18.2500   0.2500  -6.2500 Du        
   1743 ****        18.2500   0.2500  -6.0000 Du        
   1744 ****        18.2500   0.2500  -5.7500 Du        
   1745 ****        18.2500   0.2500  -5.5000 Du        
   1746 ****        18.2500   0.2500  -5.2500 Du        
   1747 ****        18.2500   0.5000  -7.2500 Du        
   1748 ****        18.2500   0.5000  -7.0000 Du        
   1749 ****        18.2500   0.5000  -6.7500 Du        
   1750 ****        18.2500   0.5000  -6.5000 Du        
   1751 ****        18.2500   0.5000  -6.2500 Du        
   1752 ****        18.2500   0.5000  -6.0000 Du        
   1753 ****        18.2500   0.5000  -5.7500 Du        
   1754 ****        18.2500   0.5000  -5.5000 Du        
   1755 ****        18.2500   0.5000  -5.2500 Du        
   1756 ****        18.2500   0.5000  -5.0000 Du        
   1757 ****        18.2500   0.7500  -7.5000 Du        
   1758 ****        18.2500   0.7500  -7.2500 Du        
   1759 ****        18.2500   0.7500  -7.0000 Du        
   1760 ****        18.2500   0.7500  -6.7500 Du        
   1761 ****        18.2500   0.7500  -6.5000 Du        
   1762 ****        18.2500   0.7500  -6.2500 Du        
   1763 ****        18.2500   0.7500  -6.0000 Du        
   1764 ****        18.2500   0.7500  -5.7500 Du        
   1765 ****        18.2500   0.7500  -5.5000 Du        
   1766 ****        18.2500   0.7500  -5.2500 Du        
   1767 ****        18.2500   0.7500  -5.0000 Du        
   1768 ****        18.2500   0.7500  -4.7500 Du        
   1769 ****        18.2500   1.0000  -7.5000 Du        
   1770 ****        18.2500   1.0000  -7.2500 Du        
   1771 ****        18.2500   1.0000  -7.0000 Du        
   1772 ****        18.2500   1.0000  -6.7500 Du        
   1773 ****        18.2500   1.0000  -6.5000 Du        
   1774 ****        18.2500   1.0000  -6.2500 Du        
   1775 ****        18.2500   1.0000  -6.0000 Du        
   1776 ****        18.2500   1.0000  -5.7500 Du        
   1777 ****        18.2500   1.0000  -5.5000 Du        
   1778 ****        18.2500   1.0000  -5.2500 Du        
   1779 ****        18.2500   1.0000  -5.0000 Du        
   1780 ****        18.2500   1.0000  -4.7500 Du        
   1781 ****        18.2500   1.0000  -4.5000 Du        
   1782 ****        18.2500   1.2500  -7.5000 Du        
   1783 ****        18.2500   1.2500  -7.2500 Du        
   1784 ****        18.2500   1.2500  -7.0000 Du        
   1785 ****        18.2500   1.2500  -6.7500 Du        
   1786 ****        18.2500   1.2500  -6.5000 Du        
   1787 ****        18.2500   1.2500  -6.2500 Du        
   1788 ****        18.2500   1.2500  -6.0000 Du        
   1789 ****        18.2500   1.2500  -5.7500 Du        
   1790 ****        18.2500   1.2500  -5.5000 Du        
   1791 ****        18.2500   1.2500  -5.2500 Du        
   1792 ****        18.2500   1.2500  -5.0000 Du        
   1793 ****        18.2500   1.2500  -4.7500 Du        
   1794 ****        18.2500   1.2500  -4.5000 Du        
   1795 ****        18.2500   1.2500  -4.2500 Du        
   1796 ****        18.2500   1.5000  -7.2500 Du        
   1797 ****        18.2500   1.5000  -7.0000 Du        
   1798 ****        18.2500   1.5000  -6.7500 Du        
   1799 ****        18.2500   1.5000  -6.5000 Du        
   1800 ****        18.2500   1.5000  -6.2500 Du        
   1801 ****        18.2500   1.5000  -6.0000 Du        
   1802 ****        18.2500   1.5000  -5.7500 Du        
   1803 ****        18.2500   1.5000  -5.5000 Du        
   1804 ****        18.2500   1.5000  -5.2500 Du        
   1805 ****        18.2500   1.5000  -5.0000 Du        
   1806 ****        18.2500   1.5000  -4.7500 Du        
   1807 ****        18.2500   1.5000  -4.5000 Du        
   1808 ****        18.2500   1.5000  -4.2500 Du        
   1809 ****        18.2500   1.5000  -4.0000 Du        
   1810 ****        18.2500   1.7500  -7.0000 Du        
   1811 ****        18.2500   1.7500  -6.7500 Du        
   1812 ****        18.2500   1.7500  -6.5000 Du        
   1813 ****        18.2500   1.7500  -6.2500 Du        
   1814 ****        18.2500   1.7500  -6.0000 Du        
   1815 ****        18.2500   1.7500  -5.7500 Du        
   1816 ****        18.2500   1.7500  -5.5000 Du        
   1817 ****        18.2500   1.7500  -5.2500 Du        
   1818 ****        18.2500   1.7500  -5.0000 Du        
   1819 ****        18.2500   1.7500  -4.7500 Du        
   1820 ****        18.2500   1.7500  -4.5000 Du        
   1821 ****        18.2500   1.7500  -4.2500 Du        
   1822 ****        18.2500   1.7500  -4.0000 Du        
   1823 ****        18.2500   2.0000 -10.7500 Du        
   1824 ****        18.2500   2.0000 -10.5000 Du        
   1825 ****        18.2500   2.0000 -10.2500 Du        
   1826 ****        18.2500   2.0000 -10.0000 Du        
   1827 ****        18.2500   2.0000  -9.7500 Du        
   1828 ****        18.2500   2.0000  -6.5000 Du        
   1829 ****        18.2500   2.0000  -6.2500 Du        
   1830 ****        18.2500   2.0000  -6.0000 Du        
   1831 ****        18.2500   2.0000  -5.7500 Du        
   1832 ****        18.2500   2.0000  -5.5000 Du        
   1833 ****        18.2500   2.0000  -5.2500 Du        
   1834 ****        18.2500   2.0000  -5.0000 Du        
   1835 ****        18.2500   2.0000  -4.7500 Du        
   1836 ****        18.2500   2.0000  -4.5000 Du        
   1837 ****        18.2500   2.0000  -4.2500 Du        
   1838 ****        18.2500   2.0000  -4.0000 Du        
   1839 ****        18.2500   2.0000  -3.7500 Du        
   1840 ****        18.2500   2.2500 -11.0000 Du        
   1841 ****        18.2500   2.2500 -10.7500 Du        
   1842 ****        18.2500   2.2500 -10.5000 Du        
   1843 ****        18.2500   2.2500 -10.2500 Du        
   1844 ****        18.2500   2.2500 -10.0000 Du        
   1845 ****        18.2500   2.2500  -9.7500 Du        
   1846 ****        18.2500   2.2500  -6.5000 Du        
   1847 ****        18.2500   2.2500  -6.2500 Du        
   1848 ****        18.2500   2.2500  -6.0000 Du        
   1849 ****        18.2500   2.2500  -5.7500 Du        
   1850 ****        18.2500   2.2500  -5.5000 Du        
   1851 ****        18.2500   2.2500  -5.2500 Du        
   1852 ****        18.2500   2.2500  -5.0000 Du        
   1853 ****        18.2500   2.2500  -4.7500 Du        
   1854 ****        18.2500   2.2500  -4.5000 Du        
   1855 ****        18.2500   2.2500  -4.2500 Du        
   1856 ****        18.2500   2.2500  -4.0000 Du        
   1857 ****        18.2500   2.2500  -3.7500 Du        
   1858 ****        18.2500   2.5000 -11.0000 Du        
   1859 ****        18.2500   2.5000 -10.7500 Du        
   1860 ****        18.2500   2.5000 -10.5000 Du        
   1861 ****        18.2500   2.5000 -10.2500 Du        
   1862 ****        18.2500   2.5000 -10.0000 Du        
   1863 ****        18.2500   2.5000  -9.7500 Du        
   1864 ****        18.2500   2.5000  -6.0000 Du        
   1865 ****        18.2500   2.5000  -5.7500 Du        
   1866 ****        18.2500   2.5000  -5.5000 Du        
   1867 ****        18.2500   2.5000  -5.2500 Du        
   1868 ****        18.2500   2.5000  -5.0000 Du        
   1869 ****        18.2500   2.5000  -4.7500 Du        
   1870 ****        18.2500   2.5000  -4.5000 Du        
   1871 ****        18.2500   2.5000  -4.2500 Du        
   1872 ****        18.2500   2.5000  -4.0000 Du        
   1873 ****        18.2500   2.5000  -3.7500 Du        
   1874 ****        18.2500   2.7500 -11.0000 Du        
   1875 ****        18.2500   2.7500 -10.7500 Du        
   1876 ****        18.2500   2.7500 -10.5000 Du        
   1877 ****        18.2500   2.7500 -10.2500 Du        
   1878 ****        18.2500   2.7500 -10.0000 Du        
   1879 ****        18.2500   2.7500  -9.7500 Du        
   1880 ****        18.2500   2.7500  -6.0000 Du        
   1881 ****        18.2500   2.7500  -5.7500 Du        
   1882 ****        18.2500   2.7500  -5.5000 Du        
   1883 ****        18.2500   2.7500  -5.2500 Du        
   1884 ****        18.2500   2.7500  -5.0000 Du        
   1885 ****        18.2500   2.7500  -4.7500 Du        
   1886 ****        18.2500   2.7500  -4.5000 Du        
   1887 ****        18.2500   2.7500  -4.2500 Du        
   1888 ****        18.2500   2.7500  -4.0000 Du        
   1889 ****        18.2500   2.7500  -3.7500 Du        
   1890 ****        18.2500   3.0000 -11.0000 Du        
   1891 ****        18.2500   3.0000 -10.7500 Du        
   1892 ****        18.2500   3.0000 -10.5000 Du        
   1893 ****        18.2500   3.0000 -10.2500 Du        
   1894 ****        18.2500   3.0000 -10.0000 Du        
   1895 ****        18.2500   3.0000  -9.7500 Du        
   1896 ****        18.2500   3.0000  -6.0000 Du        
   1897 ****        18.2500   3.0000  -5.7500 Du        
   1898 ****        18.2500   3.0000  -5.5000 Du        
   1899 ****        18.2500   3.0000  -5.2500 Du        
   1900 ****        18.2500   3.0000  -5.0000 Du        
   1901 ****        18.2500   3.0000  -4.7500 Du        
   1902 ****        18.2500   3.0000  -4.5000 Du        
   1903 ****        18.2500   3.0000  -4.2500 Du        
   1904 ****        18.2500   3.0000  -4.0000 Du        
   1905 ****        18.2500   3.0000  -3.7500 Du        
   1906 ****        18.2500   3.2500 -11.0000 Du        
   1907 ****        18.2500   3.2500 -10.7500 Du        
   1908 ****        18.2500   3.2500 -10.5000 Du        
   1909 ****        18.2500   3.2500 -10.2500 Du        
   1910 ****        18.2500   3.2500 -10.0000 Du        
   1911 ****        18.2500   3.2500  -9.7500 Du        
   1912 ****        18.2500   3.2500  -5.5000 Du        
   1913 ****        18.2500   3.2500  -5.2500 Du        
   1914 ****        18.2500   3.2500  -5.0000 Du        
   1915 ****        18.2500   3.2500  -4.7500 Du        
   1916 ****        18.2500   3.2500  -4.5000 Du        
   1917 ****        18.2500   3.2500  -4.2500 Du        
   1918 ****        18.2500   3.2500  -4.0000 Du        
   1919 ****        18.2500   3.2500  -3.7500 Du        
   1920 ****        18.2500   3.5000 -11.0000 Du        
   1921 ****        18.2500   3.5000 -10.7500 Du        
   1922 ****        18.2500   3.5000 -10.5000 Du        
   1923 ****        18.2500   3.5000 -10.2500 Du        
   1924 ****        18.2500   3.5000 -10.0000 Du        
   1925 ****        18.2500   3.5000  -9.7500 Du        
   1926 ****        18.2500   3.5000  -5.7500 Du        
   1927 ****        18.2500   3.5000  -5.5000 Du        
   1928 ****        18.2500   3.5000  -5.2500 Du        
   1929 ****        18.2500   3.5000  -5.0000 Du        
   1930 ****        18.2500   3.5000  -4.7500 Du        
   1931 ****        18.2500   3.5000  -4.5000 Du        
   1932 ****        18.2500   3.5000  -4.2500 Du        
   1933 ****        18.2500   3.5000  -4.0000 Du        
   1934 ****        18.2500   3.5000  -3.7500 Du        
   1935 ****        18.2500   3.7500 -10.2500 Du        
   1936 ****        18.2500   3.7500 -10.0000 Du        
   1937 ****        18.2500   3.7500  -6.0000 Du        
   1938 ****        18.2500   3.7500  -5.7500 Du        
   1939 ****        18.2500   3.7500  -5.5000 Du        
   1940 ****        18.2500   3.7500  -5.2500 Du        
   1941 ****        18.2500   3.7500  -5.0000 Du        
   1942 ****        18.2500   3.7500  -4.7500 Du        
   1943 ****        18.2500   3.7500  -4.5000 Du        
   1944 ****        18.2500   3.7500  -4.2500 Du        
   1945 ****        18.2500   3.7500  -4.0000 Du        
   1946 ****        18.2500   3.7500  -3.7500 Du        
   1947 ****        18.2500   4.0000  -6.0000 Du        
   1948 ****        18.2500   4.0000  -5.7500 Du        
   1949 ****        18.2500   4.0000  -5.5000 Du        
   1950 ****        18.2500   4.0000  -5.2500 Du        
   1951 ****        18.2500   4.0000  -5.0000 Du        
   1952 ****        18.2500   4.0000  -4.7500 Du        
   1953 ****        18.2500   4.0000  -4.5000 Du        
   1954 ****        18.2500   4.0000  -4.2500 Du        
   1955 ****        18.2500   4.0000  -4.0000 Du        
   1956 ****        18.2500   4.0000  -3.7500 Du        
   1957 ****        18.2500   4.0000  -3.5000 Du        
   1958 ****        18.2500   4.2500  -6.0000 Du        
   1959 ****        18.2500   4.2500  -5.7500 Du        
   1960 ****        18.2500   4.2500  -5.5000 Du        
   1961 ****        18.2500   4.2500  -5.2500 Du        
   1962 ****        18.2500   4.2500  -5.0000 Du        
   1963 ****        18.2500   4.2500  -4.7500 Du        
   1964 ****        18.2500   4.2500  -4.5000 Du        
   1965 ****        18.2500   4.2500  -4.2500 Du        
   1966 ****        18.2500   4.2500  -4.0000 Du        
   1967 ****        18.2500   4.2500  -3.7500 Du        
   1968 ****        18.2500   4.5000  -6.2500 Du        
   1969 ****        18.2500   4.5000  -6.0000 Du        
   1970 ****        18.2500   4.5000  -5.7500 Du        
   1971 ****        18.2500   4.5000  -5.5000 Du        
   1972 ****        18.2500   4.5000  -5.2500 Du        
   1973 ****        18.2500   4.5000  -5.0000 Du        
   1974 ****        18.2500   4.5000  -4.7500 Du        
   1975 ****        18.2500   4.5000  -4.5000 Du        
   1976 ****        18.2500   4.5000  -4.2500 Du        
   1977 ****        18.2500   4.5000  -4.0000 Du        
   1978 ****        18.2500   4.7500  -6.2500 Du        
   1979 ****        18.2500   4.7500  -6.0000 Du        
   1980 ****        18.2500   4.7500  -5.7500 Du        
   1981 ****        18.2500   4.7500  -5.5000 Du        
   1982 ****        18.2500   4.7500  -5.2500 Du        
   1983 ****        18.2500   4.7500  -5.0000 Du        
   1984 ****        18.2500   4.7500  -4.7500 Du        
   1985 ****        18.2500   4.7500  -4.5000 Du        
   1986 ****        18.2500   5.0000  -6.2500 Du        
   1987 ****        18.2500   5.0000  -6.0000 Du        
   1988 ****        18.2500   5.0000  -5.7500 Du        
   1989 ****        18.2500   5.0000  -5.5000 Du        
   1990 ****        18.2500   5.0000  -5.2500 Du        
   1991 ****        18.2500   5.0000  -5.0000 Du        
   1992 ****        18.2500   5.0000  -4.7500 Du        
   1993 ****        18.2500   5.2500  -5.7500 Du        
   1994 ****        18.2500   5.2500  -5.5000 Du        
   1995 ****        18.2500   5.2500  -5.2500 Du        
   1996 ****        18.2500   5.2500  -5.0000 Du        
   1997 ****        18.5000  -6.5000  -7.2500 Du        
   1998 ****        18.5000  -6.5000  -7.0000 Du        
   1999 ****        18.5000  -6.5000  -6.7500 Du        
   2000 ****        18.5000  -6.2500  -8.0000 Du        
   2001 ****        18.5000  -6.2500  -7.7500 Du        
   2002 ****        18.5000  -6.2500  -7.5000 Du        
   2003 ****        18.5000  -6.2500  -7.2500 Du        
   2004 ****        18.5000  -6.2500  -7.0000 Du        
   2005 ****        18.5000  -6.2500  -6.7500 Du        
   2006 ****        18.5000  -6.0000 -10.2500 Du        
   2007 ****        18.5000  -6.0000 -10.0000 Du        
   2008 ****        18.5000  -6.0000  -9.7500 Du        
   2009 ****        18.5000  -6.0000  -9.5000 Du        
   2010 ****        18.5000  -6.0000  -9.2500 Du        
   2011 ****        18.5000  -6.0000  -9.0000 Du        
   2012 ****        18.5000  -6.0000  -8.7500 Du        
   2013 ****        18.5000  -6.0000  -8.5000 Du        
   2014 ****        18.5000  -6.0000  -8.2500 Du        
   2015 ****        18.5000  -6.0000  -8.0000 Du        
   2016 ****        18.5000  -6.0000  -7.7500 Du        
   2017 ****        18.5000  -6.0000  -7.5000 Du        
   2018 ****        18.5000  -6.0000  -7.2500 Du        
   2019 ****        18.5000  -6.0000  -7.0000 Du        
   2020 ****        18.5000  -6.0000  -6.7500 Du        
   2021 ****        18.5000  -6.0000  -6.5000 Du        
   2022 ****        18.5000  -5.7500 -10.5000 Du        
   2023 ****        18.5000  -5.7500 -10.2500 Du        
   2024 ****        18.5000  -5.7500 -10.0000 Du        
   2025 ****        18.5000  -5.7500  -9.7500 Du        
   2026 ****        18.5000  -5.7500  -9.5000 Du        
   2027 ****        18.5000  -5.7500  -9.2500 Du        
   2028 ****        18.5000  -5.7500  -9.0000 Du        
   2029 ****        18.5000  -5.7500  -8.7500 Du        
   2030 ****        18.5000  -5.7500  -8.5000 Du        
   2031 ****        18.5000  -5.7500  -8.2500 Du        
   2032 ****        18.5000  -5.7500  -8.0000 Du        
   2033 ****        18.5000  -5.7500  -7.7500 Du        
   2034 ****        18.5000  -5.7500  -7.5000 Du        
   2035 ****        18.5000  -5.7500  -7.2500 Du        
   2036 ****        18.5000  -5.7500  -7.0000 Du        
   2037 ****        18.5000  -5.7500  -6.7500 Du        
   2038 ****        18.5000  -5.7500  -6.5000 Du        
   2039 ****        18.5000  -5.5000 -10.5000 Du        
   2040 ****        18.5000  -5.5000 -10.2500 Du        
   2041 ****        18.5000  -5.5000 -10.0000 Du        
   2042 ****        18.5000  -5.5000  -9.7500 Du        
   2043 ****        18.5000  -5.5000  -9.5000 Du        
   2044 ****        18.5000  -5.5000  -9.2500 Du        
   2045 ****        18.5000  -5.5000  -9.0000 Du        
   2046 ****        18.5000  -5.5000  -8.7500 Du        
   2047 ****        18.5000  -5.5000  -8.5000 Du        
   2048 ****        18.5000  -5.5000  -8.2500 Du        
   2049 ****        18.5000  -5.5000  -8.0000 Du        
   2050 ****        18.5000  -5.5000  -7.7500 Du        
   2051 ****        18.5000  -5.5000  -7.5000 Du        
   2052 ****        18.5000  -5.5000  -7.2500 Du        
   2053 ****        18.5000  -5.5000  -7.0000 Du        
   2054 ****        18.5000  -5.5000  -6.7500 Du        
   2055 ****        18.5000  -5.5000  -6.5000 Du        
   2056 ****        18.5000  -5.2500 -10.0000 Du        
   2057 ****        18.5000  -5.2500  -9.7500 Du        
   2058 ****        18.5000  -5.2500  -9.5000 Du        
   2059 ****        18.5000  -5.2500  -9.2500 Du        
   2060 ****        18.5000  -5.2500  -9.0000 Du        
   2061 ****        18.5000  -5.2500  -8.7500 Du        
   2062 ****        18.5000  -5.2500  -8.5000 Du        
   2063 ****        18.5000  -5.2500  -8.2500 Du        
   2064 ****        18.5000  -5.2500  -8.0000 Du        
   2065 ****        18.5000  -5.2500  -7.7500 Du        
   2066 ****        18.5000  -5.2500  -7.5000 Du        
   2067 ****        18.5000  -5.2500  -7.2500 Du        
   2068 ****        18.5000  -5.2500  -7.0000 Du        
   2069 ****        18.5000  -5.2500  -6.7500 Du        
   2070 ****        18.5000  -5.0000  -9.0000 Du        
   2071 ****        18.5000  -5.0000  -8.7500 Du        
   2072 ****        18.5000  -5.0000  -8.5000 Du        
   2073 ****        18.5000  -5.0000  -8.2500 Du        
   2074 ****        18.5000  -5.0000  -8.0000 Du        
   2075 ****        18.5000  -5.0000  -7.7500 Du        
   2076 ****        18.5000  -5.0000  -7.5000 Du        
   2077 ****        18.5000  -5.0000  -7.2500 Du        
   2078 ****        18.5000  -5.0000  -7.0000 Du        
   2079 ****        18.5000  -4.7500  -8.0000 Du        
   2080 ****        18.5000  -4.7500  -7.7500 Du        
   2081 ****        18.5000  -0.5000  -6.5000 Du        
   2082 ****        18.5000  -0.2500  -7.0000 Du        
   2083 ****        18.5000  -0.2500  -6.7500 Du        
   2084 ****        18.5000  -0.2500  -6.5000 Du        
   2085 ****        18.5000  -0.2500  -6.2500 Du        
   2086 ****        18.5000  -0.2500  -6.0000 Du        
   2087 ****        18.5000   0.0000  -7.0000 Du        
   2088 ****        18.5000   0.0000  -6.7500 Du        
   2089 ****        18.5000   0.0000  -6.5000 Du        
   2090 ****        18.5000   0.0000  -6.2500 Du        
   2091 ****        18.5000   0.0000  -6.0000 Du        
   2092 ****        18.5000   0.0000  -5.7500 Du        
   2093 ****        18.5000   0.0000  -5.5000 Du        
   2094 ****        18.5000   0.0000  -5.2500 Du        
   2095 ****        18.5000   0.2500  -7.2500 Du        
   2096 ****        18.5000   0.2500  -7.0000 Du        
   2097 ****        18.5000   0.2500  -6.7500 Du        
   2098 ****        18.5000   0.2500  -6.5000 Du        
   2099 ****        18.5000   0.2500  -6.2500 Du        
   2100 ****        18.5000   0.2500  -6.0000 Du        
   2101 ****        18.5000   0.2500  -5.7500 Du        
   2102 ****        18.5000   0.2500  -5.5000 Du        
   2103 ****        18.5000   0.2500  -5.2500 Du        
   2104 ****        18.5000   0.2500  -5.0000 Du        
   2105 ****        18.5000   0.5000  -7.2500 Du        
   2106 ****        18.5000   0.5000  -7.0000 Du        
   2107 ****        18.5000   0.5000  -6.7500 Du        
   2108 ****        18.5000   0.5000  -6.5000 Du        
   2109 ****        18.5000   0.5000  -6.2500 Du        
   2110 ****        18.5000   0.5000  -6.0000 Du        
   2111 ****        18.5000   0.5000  -5.7500 Du        
   2112 ****        18.5000   0.5000  -5.5000 Du        
   2113 ****        18.5000   0.5000  -5.2500 Du        
   2114 ****        18.5000   0.5000  -5.0000 Du        
   2115 ****        18.5000   0.5000  -4.7500 Du        
   2116 ****        18.5000   0.7500  -7.2500 Du        
   2117 ****        18.5000   0.7500  -7.0000 Du        
   2118 ****        18.5000   0.7500  -6.7500 Du        
   2119 ****        18.5000   0.7500  -6.5000 Du        
   2120 ****        18.5000   0.7500  -6.2500 Du        
   2121 ****        18.5000   0.7500  -6.0000 Du        
   2122 ****        18.5000   0.7500  -5.7500 Du        
   2123 ****        18.5000   0.7500  -5.5000 Du        
   2124 ****        18.5000   0.7500  -5.2500 Du        
   2125 ****        18.5000   0.7500  -5.0000 Du        
   2126 ****        18.5000   0.7500  -4.7500 Du        
   2127 ****        18.5000   0.7500  -4.5000 Du        
   2128 ****        18.5000   1.0000  -7.5000 Du        
   2129 ****        18.5000   1.0000  -7.2500 Du        
   2130 ****        18.5000   1.0000  -7.0000 Du        
   2131 ****        18.5000   1.0000  -6.7500 Du        
   2132 ****        18.5000   1.0000  -6.5000 Du        
   2133 ****        18.5000   1.0000  -6.2500 Du        
   2134 ****        18.5000   1.0000  -6.0000 Du        
   2135 ****        18.5000   1.0000  -5.7500 Du        
   2136 ****        18.5000   1.0000  -5.5000 Du        
   2137 ****        18.5000   1.0000  -5.2500 Du        
   2138 ****        18.5000   1.0000  -5.0000 Du        
   2139 ****        18.5000   1.0000  -4.7500 Du        
   2140 ****        18.5000   1.0000  -4.5000 Du        
   2141 ****        18.5000   1.0000  -4.2500 Du        
   2142 ****        18.5000   1.2500  -7.5000 Du        
   2143 ****        18.5000   1.2500  -7.2500 Du        
   2144 ****        18.5000   1.2500  -7.0000 Du        
   2145 ****        18.5000   1.2500  -6.7500 Du        
   2146 ****        18.5000   1.2500  -6.5000 Du        
   2147 ****        18.5000   1.2500  -6.2500 Du        
   2148 ****        18.5000   1.2500  -6.0000 Du        
   2149 ****        18.5000   1.2500  -5.7500 Du        
   2150 ****        18.5000   1.2500  -5.5000 Du        
   2151 ****        18.5000   1.2500  -5.2500 Du        
   2152 ****        18.5000   1.2500  -5.0000 Du        
   2153 ****        18.5000   1.2500  -4.7500 Du        
   2154 ****        18.5000   1.2500  -4.5000 Du        
   2155 ****        18.5000   1.2500  -4.2500 Du        
   2156 ****        18.5000   1.2500  -4.0000 Du        
   2157 ****        18.5000   1.5000  -7.0000 Du        
   2158 ****        18.5000   1.5000  -6.7500 Du        
   2159 ****        18.5000   1.5000  -6.5000 Du        
   2160 ****        18.5000   1.5000  -6.2500 Du        
   2161 ****        18.5000   1.5000  -6.0000 Du        
   2162 ****        18.5000   1.5000  -5.7500 Du        
   2163 ****        18.5000   1.5000  -5.5000 Du        
   2164 ****        18.5000   1.5000  -5.2500 Du        
   2165 ****        18.5000   1.5000  -5.0000 Du        
   2166 ****        18.5000   1.5000  -4.7500 Du        
   2167 ****        18.5000   1.5000  -4.5000 Du        
   2168 ****        18.5000   1.5000  -4.2500 Du        
   2169 ****        18.5000   1.5000  -4.0000 Du        
   2170 ****        18.5000   1.7500  -6.7500 Du        
   2171 ****        18.5000   1.7500  -6.5000 Du        
   2172 ****        18.5000   1.7500  -6.2500 Du        
   2173 ****        18.5000   1.7500  -6.0000 Du        
   2174 ****        18.5000   1.7500  -5.7500 Du        
   2175 ****        18.5000   1.7500  -5.5000 Du        
   2176 ****        18.5000   1.7500  -5.2500 Du        
   2177 ****        18.5000   1.7500  -5.0000 Du        
   2178 ****        18.5000   1.7500  -4.7500 Du        
   2179 ****        18.5000   1.7500  -4.5000 Du        
   2180 ****        18.5000   1.7500  -4.2500 Du        
   2181 ****        18.5000   1.7500  -4.0000 Du        
   2182 ****        18.5000   1.7500  -3.7500 Du        
   2183 ****        18.5000   2.0000 -10.2500 Du        
   2184 ****        18.5000   2.0000 -10.0000 Du        
   2185 ****        18.5000   2.0000  -9.7500 Du        
   2186 ****        18.5000   2.0000  -9.5000 Du        
   2187 ****        18.5000   2.0000  -6.2500 Du        
   2188 ****        18.5000   2.0000  -6.0000 Du        
   2189 ****        18.5000   2.0000  -5.7500 Du        
   2190 ****        18.5000   2.0000  -5.5000 Du        
   2191 ****        18.5000   2.0000  -5.2500 Du        
   2192 ****        18.5000   2.0000  -5.0000 Du        
   2193 ****        18.5000   2.0000  -4.7500 Du        
   2194 ****        18.5000   2.0000  -4.5000 Du        
   2195 ****        18.5000   2.0000  -4.2500 Du        
   2196 ****        18.5000   2.0000  -4.0000 Du        
   2197 ****        18.5000   2.0000  -3.7500 Du        
   2198 ****        18.5000   2.2500 -11.0000 Du        
   2199 ****        18.5000   2.2500 -10.7500 Du        
   2200 ****        18.5000   2.2500 -10.5000 Du        
   2201 ****        18.5000   2.2500 -10.2500 Du        
   2202 ****        18.5000   2.2500 -10.0000 Du        
   2203 ****        18.5000   2.2500  -9.7500 Du        
   2204 ****        18.5000   2.2500  -9.5000 Du        
   2205 ****        18.5000   2.2500  -9.2500 Du        
   2206 ****        18.5000   2.2500  -9.0000 Du        
   2207 ****        18.5000   2.2500  -6.0000 Du        
   2208 ****        18.5000   2.2500  -5.7500 Du        
   2209 ****        18.5000   2.2500  -5.5000 Du        
   2210 ****        18.5000   2.2500  -5.2500 Du        
   2211 ****        18.5000   2.2500  -5.0000 Du        
   2212 ****        18.5000   2.2500  -4.7500 Du        
   2213 ****        18.5000   2.2500  -4.5000 Du        
   2214 ****        18.5000   2.2500  -4.2500 Du        
   2215 ****        18.5000   2.2500  -4.0000 Du        
   2216 ****        18.5000   2.2500  -3.7500 Du        
   2217 ****        18.5000   2.5000 -11.0000 Du        
   2218 ****        18.5000   2.5000 -10.7500 Du        
   2219 ****        18.5000   2.5000 -10.5000 Du        
   2220 ****        18.5000   2.5000 -10.2500 Du        
   2221 ****        18.5000   2.5000 -10.0000 Du        
   2222 ****        18.5000   2.5000  -9.7500 Du        
   2223 ****        18.5000   2.5000  -5.2500 Du        
   2224 ****        18.5000   2.5000  -5.0000 Du        
   2225 ****        18.5000   2.5000  -4.7500 Du        
   2226 ****        18.5000   2.5000  -4.5000 Du        
   2227 ****        18.5000   2.5000  -4.2500 Du        
   2228 ****        18.5000   2.5000  -4.0000 Du        
   2229 ****        18.5000   2.5000  -3.7500 Du        
   2230 ****        18.5000   2.7500 -11.0000 Du        
   2231 ****        18.5000   2.7500 -10.7500 Du        
   2232 ****        18.5000   2.7500 -10.5000 Du        
   2233 ****        18.5000   2.7500 -10.2500 Du        
   2234 ****        18.5000   2.7500 -10.0000 Du        
   2235 ****        18.5000   2.7500  -9.7500 Du        
   2236 ****        18.5000   2.7500  -9.5000 Du        
   2237 ****        18.5000   2.7500  -5.2500 Du        
   2238 ****        18.5000   2.7500  -5.0000 Du        
   2239 ****        18.5000   2.7500  -4.7500 Du        
   2240 ****        18.5000   2.7500  -4.5000 Du        
   2241 ****        18.5000   2.7500  -4.2500 Du        
   2242 ****        18.5000   2.7500  -4.0000 Du        
   2243 ****        18.5000   2.7500  -3.7500 Du        
   2244 ****        18.5000   3.0000 -11.0000 Du        
   2245 ****        18.5000   3.0000 -10.7500 Du        
   2246 ****        18.5000   3.0000 -10.5000 Du        
   2247 ****        18.5000   3.0000 -10.2500 Du        
   2248 ****        18.5000   3.0000 -10.0000 Du        
   2249 ****        18.5000   3.0000  -9.7500 Du        
   2250 ****        18.5000   3.0000  -9.5000 Du        
   2251 ****        18.5000   3.0000  -5.5000 Du        
   2252 ****        18.5000   3.0000  -5.2500 Du        
   2253 ****        18.5000   3.0000  -5.0000 Du        
   2254 ****        18.5000   3.0000  -4.7500 Du        
   2255 ****        18.5000   3.0000  -4.5000 Du        
   2256 ****        18.5000   3.0000  -4.2500 Du        
   2257 ****        18.5000   3.0000  -4.0000 Du        
   2258 ****        18.5000   3.0000  -3.7500 Du        
   2259 ****        18.5000   3.2500 -11.0000 Du        
   2260 ****        18.5000   3.2500 -10.7500 Du        
   2261 ****        18.5000   3.2500 -10.5000 Du        
   2262 ****        18.5000   3.2500 -10.2500 Du        
   2263 ****        18.5000   3.2500 -10.0000 Du        
   2264 ****        18.5000   3.2500  -9.7500 Du        
   2265 ****        18.5000   3.2500  -5.5000 Du        
   2266 ****        18.5000   3.2500  -5.2500 Du        
   2267 ****        18.5000   3.2500  -5.0000 Du        
   2268 ****        18.5000   3.2500  -4.7500 Du        
   2269 ****        18.5000   3.2500  -4.5000 Du        
   2270 ****        18.5000   3.2500  -4.2500 Du        
   2271 ****        18.5000   3.2500  -4.0000 Du        
   2272 ****        18.5000   3.2500  -3.7500 Du        
   2273 ****        18.5000   3.5000 -11.0000 Du        
   2274 ****        18.5000   3.5000 -10.7500 Du        
   2275 ****        18.5000   3.5000 -10.5000 Du        
   2276 ****        18.5000   3.5000 -10.2500 Du        
   2277 ****        18.5000   3.5000 -10.0000 Du        
   2278 ****        18.5000   3.5000  -9.7500 Du        
   2279 ****        18.5000   3.5000  -5.5000 Du        
   2280 ****        18.5000   3.5000  -5.2500 Du        
   2281 ****        18.5000   3.5000  -5.0000 Du        
   2282 ****        18.5000   3.5000  -4.7500 Du        
   2283 ****        18.5000   3.5000  -4.5000 Du        
   2284 ****        18.5000   3.5000  -4.2500 Du        
   2285 ****        18.5000   3.5000  -4.0000 Du        
   2286 ****        18.5000   3.5000  -3.7500 Du        
   2287 ****        18.5000   3.7500 -10.7500 Du        
   2288 ****        18.5000   3.7500 -10.5000 Du        
   2289 ****        18.5000   3.7500 -10.2500 Du        
   2290 ****        18.5000   3.7500 -10.0000 Du        
   2291 ****        18.5000   3.7500  -9.7500 Du        
   2292 ****        18.5000   3.7500  -5.5000 Du        
   2293 ****        18.5000   3.7500  -5.2500 Du        
   2294 ****        18.5000   3.7500  -5.0000 Du        
   2295 ****        18.5000   3.7500  -4.7500 Du        
   2296 ****        18.5000   3.7500  -4.5000 Du        
   2297 ****        18.5000   3.7500  -4.2500 Du        
   2298 ****        18.5000   3.7500  -4.0000 Du        
   2299 ****        18.5000   3.7500  -3.7500 Du        
   2300 ****        18.5000   4.0000  -5.5000 Du        
   2301 ****        18.5000   4.0000  -5.2500 Du        
   2302 ****        18.5000   4.0000  -5.0000 Du        
   2303 ****        18.5000   4.0000  -4.7500 Du        
   2304 ****        18.5000   4.0000  -4.5000 Du        
   2305 ****        18.5000   4.0000  -4.2500 Du        
   2306 ****        18.5000   4.0000  -4.0000 Du        
   2307 ****        18.5000   4.0000  -3.7500 Du        
   2308 ****        18.5000   4.0000  -3.5000 Du        
   2309 ****        18.5000   4.2500  -5.5000 Du        
   2310 ****        18.5000   4.2500  -5.2500 Du        
   2311 ****        18.5000   4.2500  -5.0000 Du        
   2312 ****        18.5000   4.2500  -4.7500 Du        
   2313 ****        18.5000   4.2500  -4.5000 Du        
   2314 ****        18.5000   4.2500  -4.2500 Du        
   2315 ****        18.5000   4.2500  -4.0000 Du        
   2316 ****        18.5000   4.2500  -3.7500 Du        
   2317 ****        18.5000   4.5000  -5.5000 Du        
   2318 ****        18.5000   4.5000  -5.2500 Du        
   2319 ****        18.5000   4.5000  -5.0000 Du        
   2320 ****        18.5000   4.5000  -4.7500 Du        
   2321 ****        18.5000   4.5000  -4.5000 Du        
   2322 ****        18.5000   4.5000  -4.2500 Du        
   2323 ****        18.5000   4.7500  -5.5000 Du        
   2324 ****        18.5000   4.7500  -5.2500 Du        
   2325 ****        18.5000   4.7500  -5.0000 Du        
   2326 ****        18.5000   4.7500  -4.5000 Du        
   2327 ****        18.5000   5.0000  -5.5000 Du        
   2328 ****        18.5000   5.0000  -5.2500 Du        
   2329 ****        18.5000   5.0000  -5.0000 Du        
   2330 ****        18.7500  -6.7500  -7.5000 Du        
   2331 ****        18.7500  -6.7500  -7.2500 Du        
   2332 ****        18.7500  -6.7500  -7.0000 Du        
   2333 ****        18.7500  -6.5000  -8.0000 Du        
   2334 ****        18.7500  -6.5000  -7.7500 Du        
   2335 ****        18.7500  -6.5000  -7.5000 Du        
   2336 ****        18.7500  -6.5000  -7.2500 Du        
   2337 ****        18.7500  -6.5000  -7.0000 Du        
   2338 ****        18.7500  -6.5000  -6.7500 Du        
   2339 ****        18.7500  -6.2500 -10.0000 Du        
   2340 ****        18.7500  -6.2500  -9.7500 Du        
   2341 ****        18.7500  -6.2500  -9.5000 Du        
   2342 ****        18.7500  -6.2500  -9.2500 Du        
   2343 ****        18.7500  -6.2500  -9.0000 Du        
   2344 ****        18.7500  -6.2500  -8.7500 Du        
   2345 ****        18.7500  -6.2500  -8.5000 Du        
   2346 ****        18.7500  -6.2500  -8.2500 Du        
   2347 ****        18.7500  -6.2500  -8.0000 Du        
   2348 ****        18.7500  -6.2500  -7.7500 Du        
   2349 ****        18.7500  -6.2500  -7.5000 Du        
   2350 ****        18.7500  -6.2500  -7.2500 Du        
   2351 ****        18.7500  -6.2500  -7.0000 Du        
   2352 ****        18.7500  -6.2500  -6.7500 Du        
   2353 ****        18.7500  -6.2500  -6.5000 Du        
   2354 ****        18.7500  -6.0000 -10.2500 Du        
   2355 ****        18.7500  -6.0000 -10.0000 Du        
   2356 ****        18.7500  -6.0000  -9.7500 Du        
   2357 ****        18.7500  -6.0000  -9.5000 Du        
   2358 ****        18.7500  -6.0000  -9.2500 Du        
   2359 ****        18.7500  -6.0000  -9.0000 Du        
   2360 ****        18.7500  -6.0000  -8.7500 Du        
   2361 ****        18.7500  -6.0000  -8.5000 Du        
   2362 ****        18.7500  -6.0000  -8.2500 Du        
   2363 ****        18.7500  -6.0000  -8.0000 Du        
   2364 ****        18.7500  -6.0000  -7.7500 Du        
   2365 ****        18.7500  -6.0000  -7.5000 Du        
   2366 ****        18.7500  -6.0000  -7.2500 Du        
   2367 ****        18.7500  -6.0000  -7.0000 Du        
   2368 ****        18.7500  -6.0000  -6.7500 Du        
   2369 ****        18.7500  -6.0000  -6.5000 Du        
   2370 ****        18.7500  -5.7500 -10.2500 Du        
   2371 ****        18.7500  -5.7500 -10.0000 Du        
   2372 ****        18.7500  -5.7500  -9.7500 Du        
   2373 ****        18.7500  -5.7500  -9.5000 Du        
   2374 ****        18.7500  -5.7500  -9.2500 Du        
   2375 ****        18.7500  -5.7500  -9.0000 Du        
   2376 ****        18.7500  -5.7500  -8.7500 Du        
   2377 ****        18.7500  -5.7500  -8.5000 Du        
   2378 ****        18.7500  -5.7500  -8.2500 Du        
   2379 ****        18.7500  -5.7500  -8.0000 Du        
   2380 ****        18.7500  -5.7500  -7.7500 Du        
   2381 ****        18.7500  -5.7500  -7.5000 Du        
   2382 ****        18.7500  -5.7500  -7.2500 Du        
   2383 ****        18.7500  -5.7500  -7.0000 Du        
   2384 ****        18.7500  -5.7500  -6.7500 Du        
   2385 ****        18.7500  -5.7500  -6.5000 Du        
   2386 ****        18.7500  -5.7500  -6.2500 Du        
   2387 ****        18.7500  -5.5000 -10.5000 Du        
   2388 ****        18.7500  -5.5000 -10.2500 Du        
   2389 ****        18.7500  -5.5000 -10.0000 Du        
   2390 ****        18.7500  -5.5000  -9.7500 Du        
   2391 ****        18.7500  -5.5000  -9.5000 Du        
   2392 ****        18.7500  -5.5000  -9.2500 Du        
   2393 ****        18.7500  -5.5000  -9.0000 Du        
   2394 ****        18.7500  -5.5000  -8.7500 Du        
   2395 ****        18.7500  -5.5000  -8.5000 Du        
   2396 ****        18.7500  -5.5000  -8.2500 Du        
   2397 ****        18.7500  -5.5000  -8.0000 Du        
   2398 ****        18.7500  -5.5000  -7.7500 Du        
   2399 ****        18.7500  -5.5000  -7.5000 Du        
   2400 ****        18.7500  -5.5000  -7.2500 Du        
   2401 ****        18.7500  -5.5000  -7.0000 Du        
   2402 ****        18.7500  -5.5000  -6.7500 Du        
   2403 ****        18.7500  -5.5000  -6.5000 Du        
   2404 ****        18.7500  -5.5000  -6.2500 Du        
   2405 ****        18.7500  -5.2500 -10.2500 Du        
   2406 ****        18.7500  -5.2500 -10.0000 Du        
   2407 ****        18.7500  -5.2500  -9.7500 Du        
   2408 ****        18.7500  -5.2500  -9.5000 Du        
   2409 ****        18.7500  -5.2500  -9.2500 Du        
   2410 ****        18.7500  -5.2500  -9.0000 Du        
   2411 ****        18.7500  -5.2500  -8.7500 Du        
   2412 ****        18.7500  -5.2500  -8.5000 Du        
   2413 ****        18.7500  -5.2500  -8.2500 Du        
   2414 ****        18.7500  -5.2500  -8.0000 Du        
   2415 ****        18.7500  -5.2500  -7.7500 Du        
   2416 ****        18.7500  -5.2500  -7.5000 Du        
   2417 ****        18.7500  -5.2500  -7.2500 Du        
   2418 ****        18.7500  -5.2500  -7.0000 Du        
   2419 ****        18.7500  -5.2500  -6.7500 Du        
   2420 ****        18.7500  -5.2500  -6.5000 Du        
   2421 ****        18.7500  -5.2500  -6.2500 Du        
   2422 ****        18.7500  -5.0000  -9.5000 Du        
   2423 ****        18.7500  -5.0000  -9.2500 Du        
   2424 ****        18.7500  -5.0000  -9.0000 Du        
   2425 ****        18.7500  -5.0000  -8.7500 Du        
   2426 ****        18.7500  -5.0000  -8.5000 Du        
   2427 ****        18.7500  -5.0000  -8.2500 Du        
   2428 ****        18.7500  -5.0000  -8.0000 Du        
   2429 ****        18.7500  -5.0000  -7.7500 Du        
   2430 ****        18.7500  -5.0000  -7.5000 Du        
   2431 ****        18.7500  -5.0000  -7.2500 Du        
   2432 ****        18.7500  -5.0000  -7.0000 Du        
   2433 ****        18.7500  -5.0000  -6.7500 Du        
   2434 ****        18.7500  -5.0000  -6.5000 Du        
   2435 ****        18.7500  -4.7500  -8.7500 Du        
   2436 ****        18.7500  -4.7500  -8.5000 Du        
   2437 ****        18.7500  -4.7500  -8.2500 Du        
   2438 ****        18.7500  -4.7500  -8.0000 Du        
   2439 ****        18.7500  -4.7500  -7.7500 Du        
   2440 ****        18.7500  -4.7500  -7.5000 Du        
   2441 ****        18.7500  -4.7500  -7.2500 Du        
   2442 ****        18.7500  -4.7500  -7.0000 Du        
   2443 ****        18.7500  -0.5000  -6.7500 Du        
   2444 ****        18.7500  -0.5000  -6.5000 Du        
   2445 ****        18.7500  -0.5000  -6.2500 Du        
   2446 ****        18.7500  -0.5000  -6.0000 Du        
   2447 ****        18.7500  -0.2500  -7.0000 Du        
   2448 ****        18.7500  -0.2500  -6.7500 Du        
   2449 ****        18.7500  -0.2500  -6.5000 Du        
   2450 ****        18.7500  -0.2500  -6.2500 Du        
   2451 ****        18.7500  -0.2500  -6.0000 Du        
   2452 ****        18.7500  -0.2500  -5.7500 Du        
   2453 ****        18.7500  -0.2500  -5.5000 Du        
   2454 ****        18.7500   0.0000  -7.0000 Du        
   2455 ****        18.7500   0.0000  -6.7500 Du        
   2456 ****        18.7500   0.0000  -6.5000 Du        
   2457 ****        18.7500   0.0000  -6.2500 Du        
   2458 ****        18.7500   0.0000  -6.0000 Du        
   2459 ****        18.7500   0.0000  -5.7500 Du        
   2460 ****        18.7500   0.0000  -5.5000 Du        
   2461 ****        18.7500   0.0000  -5.2500 Du        
   2462 ****        18.7500   0.0000  -5.0000 Du        
   2463 ****        18.7500   0.2500  -7.2500 Du        
   2464 ****        18.7500   0.2500  -7.0000 Du        
   2465 ****        18.7500   0.2500  -6.7500 Du        
   2466 ****        18.7500   0.2500  -6.5000 Du        
   2467 ****        18.7500   0.2500  -6.2500 Du        
   2468 ****        18.7500   0.2500  -6.0000 Du        
   2469 ****        18.7500   0.2500  -5.7500 Du        
   2470 ****        18.7500   0.2500  -5.5000 Du        
   2471 ****        18.7500   0.2500  -5.2500 Du        
   2472 ****        18.7500   0.2500  -5.0000 Du        
   2473 ****        18.7500   0.5000  -7.2500 Du        
   2474 ****        18.7500   0.5000  -7.0000 Du        
   2475 ****        18.7500   0.5000  -6.7500 Du        
   2476 ****        18.7500   0.5000  -6.5000 Du        
   2477 ****        18.7500   0.5000  -6.2500 Du        
   2478 ****        18.7500   0.5000  -6.0000 Du        
   2479 ****        18.7500   0.5000  -5.7500 Du        
   2480 ****        18.7500   0.5000  -5.5000 Du        
   2481 ****        18.7500   0.5000  -5.2500 Du        
   2482 ****        18.7500   0.5000  -5.0000 Du        
   2483 ****        18.7500   0.5000  -4.7500 Du        
   2484 ****        18.7500   0.7500  -7.5000 Du        
   2485 ****        18.7500   0.7500  -7.2500 Du        
   2486 ****        18.7500   0.7500  -7.0000 Du        
   2487 ****        18.7500   0.7500  -6.7500 Du        
   2488 ****        18.7500   0.7500  -6.5000 Du        
   2489 ****        18.7500   0.7500  -6.2500 Du        
   2490 ****        18.7500   0.7500  -6.0000 Du        
   2491 ****        18.7500   0.7500  -5.7500 Du        
   2492 ****        18.7500   0.7500  -5.5000 Du        
   2493 ****        18.7500   0.7500  -5.2500 Du        
   2494 ****        18.7500   0.7500  -5.0000 Du        
   2495 ****        18.7500   0.7500  -4.7500 Du        
   2496 ****        18.7500   0.7500  -4.5000 Du        
   2497 ****        18.7500   1.0000  -7.7500 Du        
   2498 ****        18.7500   1.0000  -7.5000 Du        
   2499 ****        18.7500   1.0000  -7.2500 Du        
   2500 ****        18.7500   1.0000  -7.0000 Du        
   2501 ****        18.7500   1.0000  -6.7500 Du        
   2502 ****        18.7500   1.0000  -6.5000 Du        
   2503 ****        18.7500   1.0000  -6.2500 Du        
   2504 ****        18.7500   1.0000  -6.0000 Du        
   2505 ****        18.7500   1.0000  -5.7500 Du        
   2506 ****        18.7500   1.0000  -5.5000 Du        
   2507 ****        18.7500   1.0000  -5.2500 Du        
   2508 ****        18.7500   1.0000  -5.0000 Du        
   2509 ****        18.7500   1.0000  -4.7500 Du        
   2510 ****        18.7500   1.0000  -4.5000 Du        
   2511 ****        18.7500   1.0000  -4.2500 Du        
   2512 ****        18.7500   1.2500  -7.7500 Du        
   2513 ****        18.7500   1.2500  -7.5000 Du        
   2514 ****        18.7500   1.2500  -7.2500 Du        
   2515 ****        18.7500   1.2500  -7.0000 Du        
   2516 ****        18.7500   1.2500  -6.7500 Du        
   2517 ****        18.7500   1.2500  -6.5000 Du        
   2518 ****        18.7500   1.2500  -6.2500 Du        
   2519 ****        18.7500   1.2500  -6.0000 Du        
   2520 ****        18.7500   1.2500  -5.7500 Du        
   2521 ****        18.7500   1.2500  -5.5000 Du        
   2522 ****        18.7500   1.2500  -5.2500 Du        
   2523 ****        18.7500   1.2500  -5.0000 Du        
   2524 ****        18.7500   1.2500  -4.7500 Du        
   2525 ****        18.7500   1.2500  -4.5000 Du        
   2526 ****        18.7500   1.2500  -4.2500 Du        
   2527 ****        18.7500   1.2500  -4.0000 Du        
   2528 ****        18.7500   1.5000  -7.0000 Du        
   2529 ****        18.7500   1.5000  -6.7500 Du        
   2530 ****        18.7500   1.5000  -6.2500 Du        
   2531 ****        18.7500   1.5000  -6.0000 Du        
   2532 ****        18.7500   1.5000  -5.7500 Du        
   2533 ****        18.7500   1.5000  -5.5000 Du        
   2534 ****        18.7500   1.5000  -5.2500 Du        
   2535 ****        18.7500   1.5000  -5.0000 Du        
   2536 ****        18.7500   1.5000  -4.7500 Du        
   2537 ****        18.7500   1.5000  -4.5000 Du        
   2538 ****        18.7500   1.5000  -4.2500 Du        
   2539 ****        18.7500   1.5000  -4.0000 Du        
   2540 ****        18.7500   1.7500  -9.0000 Du        
   2541 ****        18.7500   1.7500  -8.7500 Du        
   2542 ****        18.7500   1.7500  -7.2500 Du        
   2543 ****        18.7500   1.7500  -7.0000 Du        
   2544 ****        18.7500   1.7500  -6.7500 Du        
   2545 ****        18.7500   1.7500  -6.2500 Du        
   2546 ****        18.7500   1.7500  -6.0000 Du        
   2547 ****        18.7500   1.7500  -5.7500 Du        
   2548 ****        18.7500   1.7500  -5.5000 Du        
   2549 ****        18.7500   1.7500  -5.2500 Du        
   2550 ****        18.7500   1.7500  -5.0000 Du        
   2551 ****        18.7500   1.7500  -4.7500 Du        
   2552 ****        18.7500   1.7500  -4.5000 Du        
   2553 ****        18.7500   1.7500  -4.2500 Du        
   2554 ****        18.7500   1.7500  -4.0000 Du        
   2555 ****        18.7500   1.7500  -3.7500 Du        
   2556 ****        18.7500   2.0000 -10.0000 Du        
   2557 ****        18.7500   2.0000  -9.7500 Du        
   2558 ****        18.7500   2.0000  -9.5000 Du        
   2559 ****        18.7500   2.0000  -9.2500 Du        
   2560 ****        18.7500   2.0000  -9.0000 Du        
   2561 ****        18.7500   2.0000  -8.7500 Du        
   2562 ****        18.7500   2.0000  -6.0000 Du        
   2563 ****        18.7500   2.0000  -5.7500 Du        
   2564 ****        18.7500   2.0000  -5.2500 Du        
   2565 ****        18.7500   2.0000  -4.7500 Du        
   2566 ****        18.7500   2.0000  -4.5000 Du        
   2567 ****        18.7500   2.0000  -4.2500 Du        
   2568 ****        18.7500   2.0000  -4.0000 Du        
   2569 ****        18.7500   2.0000  -3.7500 Du        
   2570 ****        18.7500   2.0000  -3.5000 Du        
   2571 ****        18.7500   2.2500 -10.7500 Du        
   2572 ****        18.7500   2.2500 -10.5000 Du        
   2573 ****        18.7500   2.2500 -10.2500 Du        
   2574 ****        18.7500   2.2500 -10.0000 Du        
   2575 ****        18.7500   2.2500  -9.7500 Du        
   2576 ****        18.7500   2.2500  -9.5000 Du        
   2577 ****        18.7500   2.2500  -9.2500 Du        
   2578 ****        18.7500   2.2500  -9.0000 Du        
   2579 ****        18.7500   2.2500  -8.7500 Du        
   2580 ****        18.7500   2.2500  -4.5000 Du        
   2581 ****        18.7500   2.2500  -4.2500 Du        
   2582 ****        18.7500   2.2500  -4.0000 Du        
   2583 ****        18.7500   2.2500  -3.7500 Du        
   2584 ****        18.7500   2.5000 -11.0000 Du        
   2585 ****        18.7500   2.5000 -10.7500 Du        
   2586 ****        18.7500   2.5000 -10.5000 Du        
   2587 ****        18.7500   2.5000 -10.2500 Du        
   2588 ****        18.7500   2.5000 -10.0000 Du        
   2589 ****        18.7500   2.5000  -9.7500 Du        
   2590 ****        18.7500   2.5000  -9.5000 Du        
   2591 ****        18.7500   2.5000  -9.2500 Du        
   2592 ****        18.7500   2.7500 -11.0000 Du        
   2593 ****        18.7500   2.7500 -10.7500 Du        
   2594 ****        18.7500   2.7500 -10.5000 Du        
   2595 ****        18.7500   2.7500 -10.2500 Du        
   2596 ****        18.7500   2.7500 -10.0000 Du        
   2597 ****        18.7500   2.7500  -9.7500 Du        
   2598 ****        18.7500   2.7500  -9.5000 Du        
   2599 ****        18.7500   2.7500  -9.2500 Du        
   2600 ****        18.7500   2.7500  -9.0000 Du        
   2601 ****        18.7500   3.0000 -11.0000 Du        
   2602 ****        18.7500   3.0000 -10.7500 Du        
   2603 ****        18.7500   3.0000 -10.5000 Du        
   2604 ****        18.7500   3.0000 -10.2500 Du        
   2605 ****        18.7500   3.0000 -10.0000 Du        
   2606 ****        18.7500   3.0000  -9.7500 Du        
   2607 ****        18.7500   3.0000  -9.5000 Du        
   2608 ****        18.7500   3.0000  -9.2500 Du        
   2609 ****        18.7500   3.0000  -9.0000 Du        
   2610 ****        18.7500   3.2500 -11.0000 Du        
   2611 ****        18.7500   3.2500 -10.7500 Du        
   2612 ****        18.7500   3.2500 -10.5000 Du        
   2613 ****        18.7500   3.2500 -10.2500 Du        
   2614 ****        18.7500   3.2500 -10.0000 Du        
   2615 ****        18.7500   3.2500  -9.7500 Du        
   2616 ****        18.7500   3.2500  -9.5000 Du        
   2617 ****        18.7500   3.2500  -9.2500 Du        
   2618 ****        18.7500   3.2500  -9.0000 Du        
   2619 ****        18.7500   3.5000 -11.2500 Du        
   2620 ****        18.7500   3.5000 -11.0000 Du        
   2621 ****        18.7500   3.5000 -10.7500 Du        
   2622 ****        18.7500   3.5000 -10.5000 Du        
   2623 ****        18.7500   3.5000 -10.2500 Du        
   2624 ****        18.7500   3.5000 -10.0000 Du        
   2625 ****        18.7500   3.5000  -9.7500 Du        
   2626 ****        18.7500   3.5000  -9.5000 Du        
   2627 ****        18.7500   3.5000  -9.2500 Du        
   2628 ****        18.7500   3.7500 -11.0000 Du        
   2629 ****        18.7500   3.7500 -10.7500 Du        
   2630 ****        18.7500   3.7500 -10.5000 Du        
   2631 ****        18.7500   3.7500 -10.2500 Du        
   2632 ****        18.7500   3.7500 -10.0000 Du        
   2633 ****        18.7500   3.7500  -9.7500 Du        
   2634 ****        18.7500   3.7500  -9.5000 Du        
   2635 ****        18.7500   3.7500  -9.2500 Du        
   2636 ****        18.7500   4.0000 -10.7500 Du        
   2637 ****        18.7500   4.0000 -10.5000 Du        
   2638 ****        18.7500   4.0000 -10.2500 Du        
   2639 ****        18.7500   4.0000 -10.0000 Du        
   2640 ****        18.7500   4.0000  -9.7500 Du        
   2641 ****        19.0000  -7.0000  -7.2500 Du        
   2642 ****        19.0000  -7.0000  -7.0000 Du        
   2643 ****        19.0000  -6.7500  -8.0000 Du        
   2644 ****        19.0000  -6.7500  -7.7500 Du        
   2645 ****        19.0000  -6.7500  -7.5000 Du        
   2646 ****        19.0000  -6.7500  -7.2500 Du        
   2647 ****        19.0000  -6.7500  -7.0000 Du        
   2648 ****        19.0000  -6.7500  -6.7500 Du        
   2649 ****        19.0000  -6.5000  -9.7500 Du        
   2650 ****        19.0000  -6.5000  -9.5000 Du        
   2651 ****        19.0000  -6.5000  -9.2500 Du        
   2652 ****        19.0000  -6.5000  -9.0000 Du        
   2653 ****        19.0000  -6.5000  -8.7500 Du        
   2654 ****        19.0000  -6.5000  -8.5000 Du        
   2655 ****        19.0000  -6.5000  -8.2500 Du        
   2656 ****        19.0000  -6.5000  -8.0000 Du        
   2657 ****        19.0000  -6.5000  -7.7500 Du        
   2658 ****        19.0000  -6.5000  -7.5000 Du        
   2659 ****        19.0000  -6.5000  -7.2500 Du        
   2660 ****        19.0000  -6.5000  -7.0000 Du        
   2661 ****        19.0000  -6.5000  -6.7500 Du        
   2662 ****        19.0000  -6.2500 -10.0000 Du        
   2663 ****        19.0000  -6.2500  -9.7500 Du        
   2664 ****        19.0000  -6.2500  -9.5000 Du        
   2665 ****        19.0000  -6.2500  -9.2500 Du        
   2666 ****        19.0000  -6.2500  -9.0000 Du        
   2667 ****        19.0000  -6.2500  -8.7500 Du        
   2668 ****        19.0000  -6.2500  -8.5000 Du        
   2669 ****        19.0000  -6.2500  -8.2500 Du        
   2670 ****        19.0000  -6.2500  -8.0000 Du        
   2671 ****        19.0000  -6.2500  -7.7500 Du        
   2672 ****        19.0000  -6.2500  -7.5000 Du        
   2673 ****        19.0000  -6.2500  -7.2500 Du        
   2674 ****        19.0000  -6.2500  -7.0000 Du        
   2675 ****        19.0000  -6.2500  -6.7500 Du        
   2676 ****        19.0000  -6.2500  -6.5000 Du        
   2677 ****        19.0000  -6.0000 -10.2500 Du        
   2678 ****        19.0000  -6.0000 -10.0000 Du        
   2679 ****        19.0000  -6.0000  -9.7500 Du        
   2680 ****        19.0000  -6.0000  -9.5000 Du        
   2681 ****        19.0000  -6.0000  -9.2500 Du        
   2682 ****        19.0000  -6.0000  -9.0000 Du        
   2683 ****        19.0000  -6.0000  -8.7500 Du        
   2684 ****        19.0000  -6.0000  -8.5000 Du        
   2685 ****        19.0000  -6.0000  -8.2500 Du        
   2686 ****        19.0000  -6.0000  -8.0000 Du        
   2687 ****        19.0000  -6.0000  -7.7500 Du        
   2688 ****        19.0000  -6.0000  -7.5000 Du        
   2689 ****        19.0000  -6.0000  -7.2500 Du        
   2690 ****        19.0000  -6.0000  -7.0000 Du        
   2691 ****        19.0000  -6.0000  -6.7500 Du        
   2692 ****        19.0000  -6.0000  -6.5000 Du        
   2693 ****        19.0000  -5.7500 -10.2500 Du        
   2694 ****        19.0000  -5.7500 -10.0000 Du        
   2695 ****        19.0000  -5.7500  -9.7500 Du        
   2696 ****        19.0000  -5.7500  -9.5000 Du        
   2697 ****        19.0000  -5.7500  -9.2500 Du        
   2698 ****        19.0000  -5.7500  -9.0000 Du        
   2699 ****        19.0000  -5.7500  -8.7500 Du        
   2700 ****        19.0000  -5.7500  -8.5000 Du        
   2701 ****        19.0000  -5.7500  -8.2500 Du        
   2702 ****        19.0000  -5.7500  -8.0000 Du        
   2703 ****        19.0000  -5.7500  -7.7500 Du        
   2704 ****        19.0000  -5.7500  -7.5000 Du        
   2705 ****        19.0000  -5.7500  -7.2500 Du        
   2706 ****        19.0000  -5.7500  -7.0000 Du        
   2707 ****        19.0000  -5.7500  -6.7500 Du        
   2708 ****        19.0000  -5.7500  -6.5000 Du        
   2709 ****        19.0000  -5.7500  -6.2500 Du        
   2710 ****        19.0000  -5.5000 -10.2500 Du        
   2711 ****        19.0000  -5.5000 -10.0000 Du        
   2712 ****        19.0000  -5.5000  -9.7500 Du        
   2713 ****        19.0000  -5.5000  -9.5000 Du        
   2714 ****        19.0000  -5.5000  -9.2500 Du        
   2715 ****        19.0000  -5.5000  -9.0000 Du        
   2716 ****        19.0000  -5.5000  -8.7500 Du        
   2717 ****        19.0000  -5.5000  -8.5000 Du        
   2718 ****        19.0000  -5.5000  -8.2500 Du        
   2719 ****        19.0000  -5.5000  -8.0000 Du        
   2720 ****        19.0000  -5.5000  -7.7500 Du        
   2721 ****        19.0000  -5.5000  -7.5000 Du        
   2722 ****        19.0000  -5.5000  -7.2500 Du        
   2723 ****        19.0000  -5.5000  -7.0000 Du        
   2724 ****        19.0000  -5.5000  -6.7500 Du        
   2725 ****        19.0000  -5.5000  -6.5000 Du        
   2726 ****        19.0000  -5.5000  -6.2500 Du        
   2727 ****        19.0000  -5.2500 -10.2500 Du        
   2728 ****        19.0000  -5.2500 -10.0000 Du        
   2729 ****        19.0000  -5.2500  -9.7500 Du        
   2730 ****        19.0000  -5.2500  -9.5000 Du        
   2731 ****        19.0000  -5.2500  -9.2500 Du        
   2732 ****        19.0000  -5.2500  -9.0000 Du        
   2733 ****        19.0000  -5.2500  -8.7500 Du        
   2734 ****        19.0000  -5.2500  -8.5000 Du        
   2735 ****        19.0000  -5.2500  -8.2500 Du        
   2736 ****        19.0000  -5.2500  -8.0000 Du        
   2737 ****        19.0000  -5.2500  -7.7500 Du        
   2738 ****        19.0000  -5.2500  -7.5000 Du        
   2739 ****        19.0000  -5.2500  -7.2500 Du        
   2740 ****        19.0000  -5.2500  -7.0000 Du        
   2741 ****        19.0000  -5.2500  -6.7500 Du        
   2742 ****        19.0000  -5.2500  -6.5000 Du        
   2743 ****        19.0000  -5.2500  -6.2500 Du        
   2744 ****        19.0000  -5.0000  -9.7500 Du        
   2745 ****        19.0000  -5.0000  -9.5000 Du        
   2746 ****        19.0000  -5.0000  -9.2500 Du        
   2747 ****        19.0000  -5.0000  -9.0000 Du        
   2748 ****        19.0000  -5.0000  -8.7500 Du        
   2749 ****        19.0000  -5.0000  -8.5000 Du        
   2750 ****        19.0000  -5.0000  -8.2500 Du        
   2751 ****        19.0000  -5.0000  -8.0000 Du        
   2752 ****        19.0000  -5.0000  -7.7500 Du        
   2753 ****        19.0000  -5.0000  -7.5000 Du        
   2754 ****        19.0000  -5.0000  -7.2500 Du        
   2755 ****        19.0000  -5.0000  -7.0000 Du        
   2756 ****        19.0000  -5.0000  -6.7500 Du        
   2757 ****        19.0000  -5.0000  -6.5000 Du        
   2758 ****        19.0000  -5.0000  -6.2500 Du        
   2759 ****        19.0000  -4.7500  -9.0000 Du        
   2760 ****        19.0000  -4.7500  -8.7500 Du        
   2761 ****        19.0000  -4.7500  -8.5000 Du        
   2762 ****        19.0000  -4.7500  -8.2500 Du        
   2763 ****        19.0000  -4.7500  -8.0000 Du        
   2764 ****        19.0000  -4.7500  -7.7500 Du        
   2765 ****        19.0000  -4.7500  -7.5000 Du        
   2766 ****        19.0000  -4.7500  -7.2500 Du        
   2767 ****        19.0000  -4.7500  -7.0000 Du        
   2768 ****        19.0000  -4.7500  -6.7500 Du        
   2769 ****        19.0000  -4.5000  -8.0000 Du        
   2770 ****        19.0000  -4.5000  -7.7500 Du        
   2771 ****        19.0000  -4.5000  -7.5000 Du        
   2772 ****        19.0000  -4.5000  -7.2500 Du        
   2773 ****        19.0000  -0.7500  -6.7500 Du        
   2774 ****        19.0000  -0.7500  -6.5000 Du        
   2775 ****        19.0000  -0.7500  -6.2500 Du        
   2776 ****        19.0000  -0.7500  -6.0000 Du        
   2777 ****        19.0000  -0.5000  -6.7500 Du        
   2778 ****        19.0000  -0.5000  -6.5000 Du        
   2779 ****        19.0000  -0.5000  -6.2500 Du        
   2780 ****        19.0000  -0.5000  -6.0000 Du        
   2781 ****        19.0000  -0.5000  -5.7500 Du        
   2782 ****        19.0000  -0.5000  -5.5000 Du        
   2783 ****        19.0000  -0.2500  -7.0000 Du        
   2784 ****        19.0000  -0.2500  -6.7500 Du        
   2785 ****        19.0000  -0.2500  -6.5000 Du        
   2786 ****        19.0000  -0.2500  -6.2500 Du        
   2787 ****        19.0000  -0.2500  -6.0000 Du        
   2788 ****        19.0000  -0.2500  -5.7500 Du        
   2789 ****        19.0000  -0.2500  -5.5000 Du        
   2790 ****        19.0000  -0.2500  -5.2500 Du        
   2791 ****        19.0000   0.0000  -7.0000 Du        
   2792 ****        19.0000   0.0000  -6.7500 Du        
   2793 ****        19.0000   0.0000  -6.5000 Du        
   2794 ****        19.0000   0.0000  -6.2500 Du        
   2795 ****        19.0000   0.0000  -6.0000 Du        
   2796 ****        19.0000   0.0000  -5.7500 Du        
   2797 ****        19.0000   0.0000  -5.5000 Du        
   2798 ****        19.0000   0.0000  -5.2500 Du        
   2799 ****        19.0000   0.0000  -5.0000 Du        
   2800 ****        19.0000   0.2500  -7.2500 Du        
   2801 ****        19.0000   0.2500  -7.0000 Du        
   2802 ****        19.0000   0.2500  -6.7500 Du        
   2803 ****        19.0000   0.2500  -6.5000 Du        
   2804 ****        19.0000   0.2500  -6.2500 Du        
   2805 ****        19.0000   0.2500  -6.0000 Du        
   2806 ****        19.0000   0.2500  -5.7500 Du        
   2807 ****        19.0000   0.2500  -5.5000 Du        
   2808 ****        19.0000   0.2500  -5.2500 Du        
   2809 ****        19.0000   0.2500  -5.0000 Du        
   2810 ****        19.0000   0.2500  -4.7500 Du        
   2811 ****        19.0000   0.5000  -7.2500 Du        
   2812 ****        19.0000   0.5000  -7.0000 Du        
   2813 ****        19.0000   0.5000  -6.7500 Du        
   2814 ****        19.0000   0.5000  -6.5000 Du        
   2815 ****        19.0000   0.5000  -6.2500 Du        
   2816 ****        19.0000   0.5000  -6.0000 Du        
   2817 ****        19.0000   0.5000  -5.7500 Du        
   2818 ****        19.0000   0.5000  -5.5000 Du        
   2819 ****        19.0000   0.5000  -5.2500 Du        
   2820 ****        19.0000   0.5000  -5.0000 Du        
   2821 ****        19.0000   0.5000  -4.7500 Du        
   2822 ****        19.0000   0.7500  -7.5000 Du        
   2823 ****        19.0000   0.7500  -7.2500 Du        
   2824 ****        19.0000   0.7500  -7.0000 Du        
   2825 ****        19.0000   0.7500  -6.7500 Du        
   2826 ****        19.0000   0.7500  -6.5000 Du        
   2827 ****        19.0000   0.7500  -6.2500 Du        
   2828 ****        19.0000   0.7500  -6.0000 Du        
   2829 ****        19.0000   0.7500  -5.7500 Du        
   2830 ****        19.0000   0.7500  -5.5000 Du        
   2831 ****        19.0000   0.7500  -5.2500 Du        
   2832 ****        19.0000   0.7500  -5.0000 Du        
   2833 ****        19.0000   0.7500  -4.7500 Du        
   2834 ****        19.0000   0.7500  -4.5000 Du        
   2835 ****        19.0000   1.0000  -7.7500 Du        
   2836 ****        19.0000   1.0000  -7.5000 Du        
   2837 ****        19.0000   1.0000  -7.2500 Du        
   2838 ****        19.0000   1.0000  -7.0000 Du        
   2839 ****        19.0000   1.0000  -6.7500 Du        
   2840 ****        19.0000   1.0000  -6.5000 Du        
   2841 ****        19.0000   1.0000  -6.2500 Du        
   2842 ****        19.0000   1.0000  -6.0000 Du        
   2843 ****        19.0000   1.0000  -5.7500 Du        
   2844 ****        19.0000   1.0000  -5.5000 Du        
   2845 ****        19.0000   1.0000  -5.2500 Du        
   2846 ****        19.0000   1.0000  -5.0000 Du        
   2847 ****        19.0000   1.0000  -4.7500 Du        
   2848 ****        19.0000   1.0000  -4.5000 Du        
   2849 ****        19.0000   1.2500  -7.5000 Du        
   2850 ****        19.0000   1.2500  -7.2500 Du        
   2851 ****        19.0000   1.2500  -7.0000 Du        
   2852 ****        19.0000   1.2500  -6.7500 Du        
   2853 ****        19.0000   1.2500  -6.5000 Du        
   2854 ****        19.0000   1.2500  -6.2500 Du        
   2855 ****        19.0000   1.2500  -6.0000 Du        
   2856 ****        19.0000   1.2500  -5.7500 Du        
   2857 ****        19.0000   1.2500  -5.5000 Du        
   2858 ****        19.0000   1.2500  -5.2500 Du        
   2859 ****        19.0000   1.2500  -5.0000 Du        
   2860 ****        19.0000   1.2500  -4.7500 Du        
   2861 ****        19.0000   1.5000  -7.2500 Du        
   2862 ****        19.0000   1.5000  -7.0000 Du        
   2863 ****        19.0000   1.5000  -6.7500 Du        
   2864 ****        19.0000   1.7500  -9.0000 Du        
   2865 ****        19.0000   1.7500  -8.7500 Du        
   2866 ****        19.0000   1.7500  -7.0000 Du        
   2867 ****        19.0000   2.0000 -10.0000 Du        
   2868 ****        19.0000   2.0000  -9.7500 Du        
   2869 ****        19.0000   2.0000  -9.5000 Du        
   2870 ****        19.0000   2.0000  -9.2500 Du        
   2871 ****        19.0000   2.0000  -9.0000 Du        
   2872 ****        19.0000   2.0000  -8.7500 Du        
   2873 ****        19.0000   2.2500 -10.5000 Du        
   2874 ****        19.0000   2.2500 -10.2500 Du        
   2875 ****        19.0000   2.2500 -10.0000 Du        
   2876 ****        19.0000   2.2500  -9.7500 Du        
   2877 ****        19.0000   2.2500  -9.5000 Du        
   2878 ****        19.0000   2.2500  -9.2500 Du        
   2879 ****        19.0000   2.2500  -9.0000 Du        
   2880 ****        19.0000   2.2500  -8.7500 Du        
   2881 ****        19.0000   2.5000 -10.7500 Du        
   2882 ****        19.0000   2.5000 -10.5000 Du        
   2883 ****        19.0000   2.5000 -10.2500 Du        
   2884 ****        19.0000   2.5000 -10.0000 Du        
   2885 ****        19.0000   2.5000  -9.7500 Du        
   2886 ****        19.0000   2.5000  -9.5000 Du        
   2887 ****        19.0000   2.5000  -9.2500 Du        
   2888 ****        19.0000   2.5000  -9.0000 Du        
   2889 ****        19.0000   2.5000  -8.7500 Du        
   2890 ****        19.0000   2.7500 -11.0000 Du        
   2891 ****        19.0000   2.7500 -10.7500 Du        
   2892 ****        19.0000   2.7500 -10.5000 Du        
   2893 ****        19.0000   2.7500 -10.2500 Du        
   2894 ****        19.0000   2.7500 -10.0000 Du        
   2895 ****        19.0000   2.7500  -9.7500 Du        
   2896 ****        19.0000   2.7500  -9.5000 Du        
   2897 ****        19.0000   2.7500  -9.2500 Du        
   2898 ****        19.0000   2.7500  -9.0000 Du        
   2899 ****        19.0000   2.7500  -8.7500 Du        
   2900 ****        19.0000   3.0000 -11.0000 Du        
   2901 ****        19.0000   3.0000 -10.7500 Du        
   2902 ****        19.0000   3.0000 -10.5000 Du        
   2903 ****        19.0000   3.0000 -10.2500 Du        
   2904 ****        19.0000   3.0000 -10.0000 Du        
   2905 ****        19.0000   3.0000  -9.7500 Du        
   2906 ****        19.0000   3.0000  -9.5000 Du        
   2907 ****        19.0000   3.0000  -9.2500 Du        
   2908 ****        19.0000   3.0000  -9.0000 Du        
   2909 ****        19.0000   3.0000  -8.7500 Du        
   2910 ****        19.0000   3.2500 -11.0000 Du        
   2911 ****        19.0000   3.2500 -10.7500 Du        
   2912 ****        19.0000   3.2500 -10.5000 Du        
   2913 ****        19.0000   3.2500 -10.2500 Du        
   2914 ****        19.0000   3.2500 -10.0000 Du        
   2915 ****        19.0000   3.2500  -9.7500 Du        
   2916 ****        19.0000   3.2500  -9.5000 Du        
   2917 ****        19.0000   3.2500  -9.2500 Du        
   2918 ****        19.0000   3.2500  -9.0000 Du        
   2919 ****        19.0000   3.2500  -8.7500 Du        
   2920 ****        19.0000   3.5000 -11.2500 Du        
   2921 ****        19.0000   3.5000 -11.0000 Du        
   2922 ****        19.0000   3.5000 -10.7500 Du        
   2923 ****        19.0000   3.5000 -10.5000 Du        
   2924 ****        19.0000   3.5000 -10.2500 Du        
   2925 ****        19.0000   3.5000 -10.0000 Du        
   2926 ****        19.0000   3.5000  -9.7500 Du        
   2927 ****        19.0000   3.5000  -9.5000 Du        
   2928 ****        19.0000   3.5000  -9.2500 Du        
   2929 ****        19.0000   3.5000  -9.0000 Du        
   2930 ****        19.0000   3.7500 -11.2500 Du        
   2931 ****        19.0000   3.7500 -11.0000 Du        
   2932 ****        19.0000   3.7500 -10.7500 Du        
   2933 ****        19.0000   3.7500 -10.5000 Du        
   2934 ****        19.0000   3.7500 -10.2500 Du        
   2935 ****        19.0000   3.7500 -10.0000 Du        
   2936 ****        19.0000   3.7500  -9.7500 Du        
   2937 ****        19.0000   3.7500  -9.5000 Du        
   2938 ****        19.0000   3.7500  -9.2500 Du        
   2939 ****        19.0000   3.7500  -9.0000 Du        
   2940 ****        19.0000   4.0000 -11.0000 Du        
   2941 ****        19.0000   4.0000 -10.7500 Du        
   2942 ****        19.0000   4.0000 -10.5000 Du        
   2943 ****        19.0000   4.0000 -10.2500 Du        
   2944 ****        19.0000   4.0000 -10.0000 Du        
   2945 ****        19.0000   4.0000  -9.7500 Du        
   2946 ****        19.0000   4.0000  -9.5000 Du        
   2947 ****        19.0000   4.0000  -9.2500 Du        
   2948 ****        19.0000   4.2500 -10.7500 Du        
   2949 ****        19.0000   4.2500 -10.2500 Du        
   2950 ****        19.0000   4.2500 -10.0000 Du        
   2951 ****        19.2500  -7.0000  -8.0000 Du        
   2952 ****        19.2500  -7.0000  -7.7500 Du        
   2953 ****        19.2500  -7.0000  -7.5000 Du        
   2954 ****        19.2500  -7.0000  -7.2500 Du        
   2955 ****        19.2500  -7.0000  -7.0000 Du        
   2956 ****        19.2500  -6.7500  -9.5000 Du        
   2957 ****        19.2500  -6.7500  -9.2500 Du        
   2958 ****        19.2500  -6.7500  -9.0000 Du        
   2959 ****        19.2500  -6.7500  -8.7500 Du        
   2960 ****        19.2500  -6.7500  -8.5000 Du        
   2961 ****        19.2500  -6.7500  -8.2500 Du        
   2962 ****        19.2500  -6.7500  -8.0000 Du        
   2963 ****        19.2500  -6.7500  -7.7500 Du        
   2964 ****        19.2500  -6.7500  -7.5000 Du        
   2965 ****        19.2500  -6.7500  -7.2500 Du        
   2966 ****        19.2500  -6.7500  -7.0000 Du        
   2967 ****        19.2500  -6.7500  -6.7500 Du        
   2968 ****        19.2500  -6.5000  -9.7500 Du        
   2969 ****        19.2500  -6.5000  -9.5000 Du        
   2970 ****        19.2500  -6.5000  -9.2500 Du        
   2971 ****        19.2500  -6.5000  -9.0000 Du        
   2972 ****        19.2500  -6.5000  -8.7500 Du        
   2973 ****        19.2500  -6.5000  -8.5000 Du        
   2974 ****        19.2500  -6.5000  -8.2500 Du        
   2975 ****        19.2500  -6.5000  -8.0000 Du        
   2976 ****        19.2500  -6.5000  -7.7500 Du        
   2977 ****        19.2500  -6.5000  -7.5000 Du        
   2978 ****        19.2500  -6.5000  -7.2500 Du        
   2979 ****        19.2500  -6.5000  -7.0000 Du        
   2980 ****        19.2500  -6.5000  -6.7500 Du        
   2981 ****        19.2500  -6.2500 -10.0000 Du        
   2982 ****        19.2500  -6.2500  -9.7500 Du        
   2983 ****        19.2500  -6.2500  -9.5000 Du        
   2984 ****        19.2500  -6.2500  -9.2500 Du        
   2985 ****        19.2500  -6.2500  -9.0000 Du        
   2986 ****        19.2500  -6.2500  -8.7500 Du        
   2987 ****        19.2500  -6.2500  -8.5000 Du        
   2988 ****        19.2500  -6.2500  -8.2500 Du        
   2989 ****        19.2500  -6.2500  -8.0000 Du        
   2990 ****        19.2500  -6.2500  -7.7500 Du        
   2991 ****        19.2500  -6.2500  -7.5000 Du        
   2992 ****        19.2500  -6.2500  -7.2500 Du        
   2993 ****        19.2500  -6.2500  -7.0000 Du        
   2994 ****        19.2500  -6.2500  -6.7500 Du        
   2995 ****        19.2500  -6.2500  -6.5000 Du        
   2996 ****        19.2500  -6.0000 -10.0000 Du        
   2997 ****        19.2500  -6.0000  -9.7500 Du        
   2998 ****        19.2500  -6.0000  -9.5000 Du        
   2999 ****        19.2500  -6.0000  -9.2500 Du        
   3000 ****        19.2500  -6.0000  -9.0000 Du        
   3001 ****        19.2500  -6.0000  -8.7500 Du        
   3002 ****        19.2500  -6.0000  -8.5000 Du        
   3003 ****        19.2500  -6.0000  -8.2500 Du        
   3004 ****        19.2500  -6.0000  -8.0000 Du        
   3005 ****        19.2500  -6.0000  -7.7500 Du        
   3006 ****        19.2500  -6.0000  -7.5000 Du        
   3007 ****        19.2500  -6.0000  -7.2500 Du        
   3008 ****        19.2500  -6.0000  -7.0000 Du        
   3009 ****        19.2500  -6.0000  -6.7500 Du        
   3010 ****        19.2500  -6.0000  -6.5000 Du        
   3011 ****        19.2500  -6.0000  -6.2500 Du        
   3012 ****        19.2500  -5.7500 -10.2500 Du        
   3013 ****        19.2500  -5.7500 -10.0000 Du        
   3014 ****        19.2500  -5.7500  -9.7500 Du        
   3015 ****        19.2500  -5.7500  -9.5000 Du        
   3016 ****        19.2500  -5.7500  -9.2500 Du        
   3017 ****        19.2500  -5.7500  -9.0000 Du        
   3018 ****        19.2500  -5.7500  -8.7500 Du        
   3019 ****        19.2500  -5.7500  -8.5000 Du        
   3020 ****        19.2500  -5.7500  -8.2500 Du        
   3021 ****        19.2500  -5.7500  -8.0000 Du        
   3022 ****        19.2500  -5.7500  -7.7500 Du        
   3023 ****        19.2500  -5.7500  -7.5000 Du        
   3024 ****        19.2500  -5.7500  -7.2500 Du        
   3025 ****        19.2500  -5.7500  -7.0000 Du        
   3026 ****        19.2500  -5.7500  -6.7500 Du        
   3027 ****        19.2500  -5.7500  -6.5000 Du        
   3028 ****        19.2500  -5.7500  -6.2500 Du        
   3029 ****        19.2500  -5.5000 -10.2500 Du        
   3030 ****        19.2500  -5.5000 -10.0000 Du        
   3031 ****        19.2500  -5.5000  -9.7500 Du        
   3032 ****        19.2500  -5.5000  -9.5000 Du        
   3033 ****        19.2500  -5.5000  -9.2500 Du        
   3034 ****        19.2500  -5.5000  -9.0000 Du        
   3035 ****        19.2500  -5.5000  -8.7500 Du        
   3036 ****        19.2500  -5.5000  -8.5000 Du        
   3037 ****        19.2500  -5.5000  -8.2500 Du        
   3038 ****        19.2500  -5.5000  -8.0000 Du        
   3039 ****        19.2500  -5.5000  -7.7500 Du        
   3040 ****        19.2500  -5.5000  -7.5000 Du        
   3041 ****        19.2500  -5.5000  -7.2500 Du        
   3042 ****        19.2500  -5.5000  -7.0000 Du        
   3043 ****        19.2500  -5.5000  -6.7500 Du        
   3044 ****        19.2500  -5.5000  -6.5000 Du        
   3045 ****        19.2500  -5.5000  -6.2500 Du        
   3046 ****        19.2500  -5.2500 -10.2500 Du        
   3047 ****        19.2500  -5.2500 -10.0000 Du        
   3048 ****        19.2500  -5.2500  -9.7500 Du        
   3049 ****        19.2500  -5.2500  -9.5000 Du        
   3050 ****        19.2500  -5.2500  -9.2500 Du        
   3051 ****        19.2500  -5.2500  -9.0000 Du        
   3052 ****        19.2500  -5.2500  -8.7500 Du        
   3053 ****        19.2500  -5.2500  -8.5000 Du        
   3054 ****        19.2500  -5.2500  -8.2500 Du        
   3055 ****        19.2500  -5.2500  -8.0000 Du        
   3056 ****        19.2500  -5.2500  -7.7500 Du        
   3057 ****        19.2500  -5.2500  -7.5000 Du        
   3058 ****        19.2500  -5.2500  -7.2500 Du        
   3059 ****        19.2500  -5.2500  -7.0000 Du        
   3060 ****        19.2500  -5.2500  -6.7500 Du        
   3061 ****        19.2500  -5.2500  -6.5000 Du        
   3062 ****        19.2500  -5.2500  -6.2500 Du        
   3063 ****        19.2500  -5.2500  -6.0000 Du        
   3064 ****        19.2500  -5.0000  -9.7500 Du        
   3065 ****        19.2500  -5.0000  -9.5000 Du        
   3066 ****        19.2500  -5.0000  -9.2500 Du        
   3067 ****        19.2500  -5.0000  -9.0000 Du        
   3068 ****        19.2500  -5.0000  -8.7500 Du        
   3069 ****        19.2500  -5.0000  -8.5000 Du        
   3070 ****        19.2500  -5.0000  -8.2500 Du        
   3071 ****        19.2500  -5.0000  -8.0000 Du        
   3072 ****        19.2500  -5.0000  -7.7500 Du        
   3073 ****        19.2500  -5.0000  -7.5000 Du        
   3074 ****        19.2500  -5.0000  -7.2500 Du        
   3075 ****        19.2500  -5.0000  -7.0000 Du        
   3076 ****        19.2500  -5.0000  -6.7500 Du        
   3077 ****        19.2500  -5.0000  -6.5000 Du        
   3078 ****        19.2500  -5.0000  -6.2500 Du        
   3079 ****        19.2500  -5.0000  -6.0000 Du        
   3080 ****        19.2500  -4.7500  -9.2500 Du        
   3081 ****        19.2500  -4.7500  -9.0000 Du        
   3082 ****        19.2500  -4.7500  -8.7500 Du        
   3083 ****        19.2500  -4.7500  -8.5000 Du        
   3084 ****        19.2500  -4.7500  -8.2500 Du        
   3085 ****        19.2500  -4.7500  -8.0000 Du        
   3086 ****        19.2500  -4.7500  -7.7500 Du        
   3087 ****        19.2500  -4.7500  -7.5000 Du        
   3088 ****        19.2500  -4.7500  -7.2500 Du        
   3089 ****        19.2500  -4.7500  -7.0000 Du        
   3090 ****        19.2500  -4.7500  -6.7500 Du        
   3091 ****        19.2500  -4.7500  -6.5000 Du        
   3092 ****        19.2500  -4.7500  -6.2500 Du        
   3093 ****        19.2500  -4.7500  -6.0000 Du        
   3094 ****        19.2500  -4.5000  -8.2500 Du        
   3095 ****        19.2500  -4.5000  -8.0000 Du        
   3096 ****        19.2500  -4.5000  -7.7500 Du        
   3097 ****        19.2500  -4.5000  -7.5000 Du        
   3098 ****        19.2500  -4.5000  -7.2500 Du        
   3099 ****        19.2500  -4.5000  -7.0000 Du        
   3100 ****        19.2500  -4.5000  -6.7500 Du        
   3101 ****        19.2500  -4.2500  -7.7500 Du        
   3102 ****        19.2500  -4.2500  -7.5000 Du        
   3103 ****        19.2500  -4.2500  -7.2500 Du        
   3104 ****        19.2500  -1.0000  -6.5000 Du        
   3105 ****        19.2500  -1.0000  -6.2500 Du        
   3106 ****        19.2500  -1.0000  -6.0000 Du        
   3107 ****        19.2500  -1.0000  -5.7500 Du        
   3108 ****        19.2500  -0.7500  -6.7500 Du        
   3109 ****        19.2500  -0.7500  -6.5000 Du        
   3110 ****        19.2500  -0.7500  -6.2500 Du        
   3111 ****        19.2500  -0.7500  -6.0000 Du        
   3112 ****        19.2500  -0.7500  -5.7500 Du        
   3113 ****        19.2500  -0.7500  -5.5000 Du        
   3114 ****        19.2500  -0.5000  -6.7500 Du        
   3115 ****        19.2500  -0.5000  -6.5000 Du        
   3116 ****        19.2500  -0.5000  -6.2500 Du        
   3117 ****        19.2500  -0.5000  -6.0000 Du        
   3118 ****        19.2500  -0.5000  -5.7500 Du        
   3119 ****        19.2500  -0.5000  -5.5000 Du        
   3120 ****        19.2500  -0.5000  -5.2500 Du        
   3121 ****        19.2500  -0.2500  -7.0000 Du        
   3122 ****        19.2500  -0.2500  -6.7500 Du        
   3123 ****        19.2500  -0.2500  -6.5000 Du        
   3124 ****        19.2500  -0.2500  -6.2500 Du        
   3125 ****        19.2500  -0.2500  -6.0000 Du        
   3126 ****        19.2500  -0.2500  -5.7500 Du        
   3127 ****        19.2500  -0.2500  -5.5000 Du        
   3128 ****        19.2500  -0.2500  -5.2500 Du        
   3129 ****        19.2500  -0.2500  -5.0000 Du        
   3130 ****        19.2500   0.0000  -7.0000 Du        
   3131 ****        19.2500   0.0000  -6.7500 Du        
   3132 ****        19.2500   0.0000  -6.5000 Du        
   3133 ****        19.2500   0.0000  -6.2500 Du        
   3134 ****        19.2500   0.0000  -6.0000 Du        
   3135 ****        19.2500   0.0000  -5.7500 Du        
   3136 ****        19.2500   0.0000  -5.5000 Du        
   3137 ****        19.2500   0.0000  -5.2500 Du        
   3138 ****        19.2500   0.0000  -5.0000 Du        
   3139 ****        19.2500   0.0000  -4.7500 Du        
   3140 ****        19.2500   0.2500  -7.0000 Du        
   3141 ****        19.2500   0.2500  -6.7500 Du        
   3142 ****        19.2500   0.2500  -6.5000 Du        
   3143 ****        19.2500   0.2500  -6.2500 Du        
   3144 ****        19.2500   0.2500  -6.0000 Du        
   3145 ****        19.2500   0.2500  -5.7500 Du        
   3146 ****        19.2500   0.2500  -5.5000 Du        
   3147 ****        19.2500   0.2500  -5.2500 Du        
   3148 ****        19.2500   0.2500  -5.0000 Du        
   3149 ****        19.2500   0.2500  -4.7500 Du        
   3150 ****        19.2500   0.5000  -7.2500 Du        
   3151 ****        19.2500   0.5000  -7.0000 Du        
   3152 ****        19.2500   0.5000  -6.7500 Du        
   3153 ****        19.2500   0.5000  -6.5000 Du        
   3154 ****        19.2500   0.5000  -6.2500 Du        
   3155 ****        19.2500   0.5000  -6.0000 Du        
   3156 ****        19.2500   0.5000  -5.7500 Du        
   3157 ****        19.2500   0.5000  -5.5000 Du        
   3158 ****        19.2500   0.5000  -5.2500 Du        
   3159 ****        19.2500   0.5000  -5.0000 Du        
   3160 ****        19.2500   0.5000  -4.7500 Du        
   3161 ****        19.2500   0.7500  -7.2500 Du        
   3162 ****        19.2500   0.7500  -7.0000 Du        
   3163 ****        19.2500   0.7500  -6.7500 Du        
   3164 ****        19.2500   0.7500  -6.5000 Du        
   3165 ****        19.2500   0.7500  -6.2500 Du        
   3166 ****        19.2500   0.7500  -6.0000 Du        
   3167 ****        19.2500   0.7500  -5.7500 Du        
   3168 ****        19.2500   0.7500  -5.5000 Du        
   3169 ****        19.2500   0.7500  -5.2500 Du        
   3170 ****        19.2500   0.7500  -5.0000 Du        
   3171 ****        19.2500   1.0000  -7.2500 Du        
   3172 ****        19.2500   1.0000  -7.0000 Du        
   3173 ****        19.2500   1.0000  -6.7500 Du        
   3174 ****        19.2500   1.0000  -6.5000 Du        
   3175 ****        19.2500   1.0000  -6.2500 Du        
   3176 ****        19.2500   1.0000  -6.0000 Du        
   3177 ****        19.2500   1.2500  -7.2500 Du        
   3178 ****        19.2500   1.2500  -7.0000 Du        
   3179 ****        19.2500   1.2500  -6.7500 Du        
   3180 ****        19.2500   1.2500  -6.5000 Du        
   3181 ****        19.2500   1.2500  -6.2500 Du        
   3182 ****        19.2500   2.0000  -9.5000 Du        
   3183 ****        19.2500   2.0000  -9.2500 Du        
   3184 ****        19.2500   2.0000  -9.0000 Du        
   3185 ****        19.2500   2.0000  -8.7500 Du        
   3186 ****        19.2500   2.2500 -10.2500 Du        
   3187 ****        19.2500   2.2500 -10.0000 Du        
   3188 ****        19.2500   2.2500  -9.7500 Du        
   3189 ****        19.2500   2.2500  -9.5000 Du        
   3190 ****        19.2500   2.2500  -9.2500 Du        
   3191 ****        19.2500   2.2500  -9.0000 Du        
   3192 ****        19.2500   2.2500  -8.7500 Du        
   3193 ****        19.2500   2.5000 -10.5000 Du        
   3194 ****        19.2500   2.5000 -10.2500 Du        
   3195 ****        19.2500   2.5000 -10.0000 Du        
   3196 ****        19.2500   2.5000  -9.7500 Du        
   3197 ****        19.2500   2.5000  -9.5000 Du        
   3198 ****        19.2500   2.5000  -9.2500 Du        
   3199 ****        19.2500   2.5000  -9.0000 Du        
   3200 ****        19.2500   2.5000  -8.7500 Du        
   3201 ****        19.2500   2.7500 -10.7500 Du        
   3202 ****        19.2500   2.7500 -10.5000 Du        
   3203 ****        19.2500   2.7500 -10.2500 Du        
   3204 ****        19.2500   2.7500 -10.0000 Du        
   3205 ****        19.2500   2.7500  -9.7500 Du        
   3206 ****        19.2500   2.7500  -9.5000 Du        
   3207 ****        19.2500   2.7500  -9.2500 Du        
   3208 ****        19.2500   2.7500  -9.0000 Du        
   3209 ****        19.2500   2.7500  -8.7500 Du        
   3210 ****        19.2500   3.0000 -11.0000 Du        
   3211 ****        19.2500   3.0000 -10.7500 Du        
   3212 ****        19.2500   3.0000 -10.5000 Du        
   3213 ****        19.2500   3.0000 -10.2500 Du        
   3214 ****        19.2500   3.0000 -10.0000 Du        
   3215 ****        19.2500   3.0000  -9.7500 Du        
   3216 ****        19.2500   3.0000  -9.5000 Du        
   3217 ****        19.2500   3.0000  -9.2500 Du        
   3218 ****        19.2500   3.0000  -9.0000 Du        
   3219 ****        19.2500   3.0000  -8.7500 Du        
   3220 ****        19.2500   3.2500 -11.0000 Du        
   3221 ****        19.2500   3.2500 -10.7500 Du        
   3222 ****        19.2500   3.2500 -10.5000 Du        
   3223 ****        19.2500   3.2500 -10.2500 Du        
   3224 ****        19.2500   3.2500 -10.0000 Du        
   3225 ****        19.2500   3.2500  -9.7500 Du        
   3226 ****        19.2500   3.2500  -9.5000 Du        
   3227 ****        19.2500   3.2500  -9.2500 Du        
   3228 ****        19.2500   3.2500  -9.0000 Du        
   3229 ****        19.2500   3.2500  -8.7500 Du        
   3230 ****        19.2500   3.5000 -11.0000 Du        
   3231 ****        19.2500   3.5000 -10.7500 Du        
   3232 ****        19.2500   3.5000 -10.5000 Du        
   3233 ****        19.2500   3.5000 -10.2500 Du        
   3234 ****        19.2500   3.5000 -10.0000 Du        
   3235 ****        19.2500   3.5000  -9.7500 Du        
   3236 ****        19.2500   3.5000  -9.5000 Du        
   3237 ****        19.2500   3.5000  -9.2500 Du        
   3238 ****        19.2500   3.5000  -9.0000 Du        
   3239 ****        19.2500   3.7500 -11.0000 Du        
   3240 ****        19.2500   3.7500 -10.7500 Du        
   3241 ****        19.2500   3.7500 -10.5000 Du        
   3242 ****        19.2500   3.7500 -10.2500 Du        
   3243 ****        19.2500   3.7500 -10.0000 Du        
   3244 ****        19.2500   3.7500  -9.7500 Du        
   3245 ****        19.2500   3.7500  -9.5000 Du        
   3246 ****        19.2500   3.7500  -9.2500 Du        
   3247 ****        19.2500   3.7500  -9.0000 Du        
   3248 ****        19.2500   4.0000 -11.0000 Du        
   3249 ****        19.2500   4.0000 -10.7500 Du        
   3250 ****        19.2500   4.0000 -10.5000 Du        
   3251 ****        19.2500   4.0000 -10.2500 Du        
   3252 ****        19.2500   4.0000 -10.0000 Du        
   3253 ****        19.2500   4.0000  -9.7500 Du        
   3254 ****        19.2500   4.0000  -9.5000 Du        
   3255 ****        19.2500   4.0000  -9.2500 Du        
   3256 ****        19.2500   4.2500 -11.0000 Du        
   3257 ****        19.2500   4.2500 -10.7500 Du        
   3258 ****        19.2500   4.2500 -10.5000 Du        
   3259 ****        19.2500   4.2500 -10.2500 Du        
   3260 ****        19.2500   4.2500 -10.0000 Du        
   3261 ****        19.2500   4.5000 -10.7500 Du        
   3262 ****        19.2500   4.5000 -10.5000 Du        
   3263 ****        19.2500   4.5000 -10.2500 Du        
   3264 ****        19.2500   4.5000 -10.0000 Du        
   3265 ****        19.2500   8.2500 -11.2500 Du        
   3266 ****        19.5000  -7.2500  -7.2500 Du        
   3267 ****        19.5000  -7.0000  -9.2500 Du        
   3268 ****        19.5000  -7.0000  -9.0000 Du        
   3269 ****        19.5000  -7.0000  -8.7500 Du        
   3270 ****        19.5000  -7.0000  -8.5000 Du        
   3271 ****        19.5000  -7.0000  -8.2500 Du        
   3272 ****        19.5000  -7.0000  -8.0000 Du        
   3273 ****        19.5000  -7.0000  -7.7500 Du        
   3274 ****        19.5000  -7.0000  -7.5000 Du        
   3275 ****        19.5000  -7.0000  -7.2500 Du        
   3276 ****        19.5000  -7.0000  -7.0000 Du        
   3277 ****        19.5000  -6.7500  -9.5000 Du        
   3278 ****        19.5000  -6.7500  -9.2500 Du        
   3279 ****        19.5000  -6.7500  -9.0000 Du        
   3280 ****        19.5000  -6.7500  -8.7500 Du        
   3281 ****        19.5000  -6.7500  -8.5000 Du        
   3282 ****        19.5000  -6.7500  -8.2500 Du        
   3283 ****        19.5000  -6.7500  -8.0000 Du        
   3284 ****        19.5000  -6.7500  -7.7500 Du        
   3285 ****        19.5000  -6.7500  -7.5000 Du        
   3286 ****        19.5000  -6.7500  -7.2500 Du        
   3287 ****        19.5000  -6.7500  -7.0000 Du        
   3288 ****        19.5000  -6.7500  -6.7500 Du        
   3289 ****        19.5000  -6.5000  -9.5000 Du        
   3290 ****        19.5000  -6.5000  -9.2500 Du        
   3291 ****        19.5000  -6.5000  -9.0000 Du        
   3292 ****        19.5000  -6.5000  -8.7500 Du        
   3293 ****        19.5000  -6.5000  -8.5000 Du        
   3294 ****        19.5000  -6.5000  -8.2500 Du        
   3295 ****        19.5000  -6.5000  -8.0000 Du        
   3296 ****        19.5000  -6.5000  -7.7500 Du        
   3297 ****        19.5000  -6.5000  -7.5000 Du        
   3298 ****        19.5000  -6.5000  -7.2500 Du        
   3299 ****        19.5000  -6.5000  -7.0000 Du        
   3300 ****        19.5000  -6.5000  -6.7500 Du        
   3301 ****        19.5000  -6.2500  -9.7500 Du        
   3302 ****        19.5000  -6.2500  -9.5000 Du        
   3303 ****        19.5000  -6.2500  -9.2500 Du        
   3304 ****        19.5000  -6.2500  -9.0000 Du        
   3305 ****        19.5000  -6.2500  -8.7500 Du        
   3306 ****        19.5000  -6.2500  -8.5000 Du        
   3307 ****        19.5000  -6.2500  -8.2500 Du        
   3308 ****        19.5000  -6.2500  -8.0000 Du        
   3309 ****        19.5000  -6.2500  -7.7500 Du        
   3310 ****        19.5000  -6.2500  -7.5000 Du        
   3311 ****        19.5000  -6.2500  -7.2500 Du        
   3312 ****        19.5000  -6.2500  -7.0000 Du        
   3313 ****        19.5000  -6.2500  -6.7500 Du        
   3314 ****        19.5000  -6.0000 -10.0000 Du        
   3315 ****        19.5000  -6.0000  -9.7500 Du        
   3316 ****        19.5000  -6.0000  -9.5000 Du        
   3317 ****        19.5000  -6.0000  -9.2500 Du        
   3318 ****        19.5000  -6.0000  -9.0000 Du        
   3319 ****        19.5000  -6.0000  -8.7500 Du        
   3320 ****        19.5000  -6.0000  -8.5000 Du        
   3321 ****        19.5000  -6.0000  -8.2500 Du        
   3322 ****        19.5000  -6.0000  -8.0000 Du        
   3323 ****        19.5000  -6.0000  -7.7500 Du        
   3324 ****        19.5000  -6.0000  -7.5000 Du        
   3325 ****        19.5000  -6.0000  -7.2500 Du        
   3326 ****        19.5000  -6.0000  -7.0000 Du        
   3327 ****        19.5000  -6.0000  -6.7500 Du        
   3328 ****        19.5000  -6.0000  -6.5000 Du        
   3329 ****        19.5000  -5.7500 -10.0000 Du        
   3330 ****        19.5000  -5.7500  -9.7500 Du        
   3331 ****        19.5000  -5.7500  -9.5000 Du        
   3332 ****        19.5000  -5.7500  -9.2500 Du        
   3333 ****        19.5000  -5.7500  -9.0000 Du        
   3334 ****        19.5000  -5.7500  -8.7500 Du        
   3335 ****        19.5000  -5.7500  -8.5000 Du        
   3336 ****        19.5000  -5.7500  -8.2500 Du        
   3337 ****        19.5000  -5.7500  -8.0000 Du        
   3338 ****        19.5000  -5.7500  -7.7500 Du        
   3339 ****        19.5000  -5.7500  -7.5000 Du        
   3340 ****        19.5000  -5.7500  -7.2500 Du        
   3341 ****        19.5000  -5.7500  -7.0000 Du        
   3342 ****        19.5000  -5.7500  -6.7500 Du        
   3343 ****        19.5000  -5.7500  -6.5000 Du        
   3344 ****        19.5000  -5.5000 -10.0000 Du        
   3345 ****        19.5000  -5.5000  -9.7500 Du        
   3346 ****        19.5000  -5.5000  -9.5000 Du        
   3347 ****        19.5000  -5.5000  -9.2500 Du        
   3348 ****        19.5000  -5.5000  -9.0000 Du        
   3349 ****        19.5000  -5.5000  -8.7500 Du        
   3350 ****        19.5000  -5.5000  -8.5000 Du        
   3351 ****        19.5000  -5.5000  -8.2500 Du        
   3352 ****        19.5000  -5.5000  -8.0000 Du        
   3353 ****        19.5000  -5.5000  -7.7500 Du        
   3354 ****        19.5000  -5.5000  -7.5000 Du        
   3355 ****        19.5000  -5.5000  -7.2500 Du        
   3356 ****        19.5000  -5.5000  -7.0000 Du        
   3357 ****        19.5000  -5.5000  -6.7500 Du        
   3358 ****        19.5000  -5.5000  -6.5000 Du        
   3359 ****        19.5000  -5.5000  -6.2500 Du        
   3360 ****        19.5000  -5.2500 -10.0000 Du        
   3361 ****        19.5000  -5.2500  -9.7500 Du        
   3362 ****        19.5000  -5.2500  -9.5000 Du        
   3363 ****        19.5000  -5.2500  -9.2500 Du        
   3364 ****        19.5000  -5.2500  -9.0000 Du        
   3365 ****        19.5000  -5.2500  -8.7500 Du        
   3366 ****        19.5000  -5.2500  -8.5000 Du        
   3367 ****        19.5000  -5.2500  -8.2500 Du        
   3368 ****        19.5000  -5.2500  -8.0000 Du        
   3369 ****        19.5000  -5.2500  -7.7500 Du        
   3370 ****        19.5000  -5.2500  -7.5000 Du        
   3371 ****        19.5000  -5.2500  -7.2500 Du        
   3372 ****        19.5000  -5.2500  -7.0000 Du        
   3373 ****        19.5000  -5.2500  -6.7500 Du        
   3374 ****        19.5000  -5.2500  -6.5000 Du        
   3375 ****        19.5000  -5.2500  -6.2500 Du        
   3376 ****        19.5000  -5.2500  -6.0000 Du        
   3377 ****        19.5000  -5.0000  -9.5000 Du        
   3378 ****        19.5000  -5.0000  -9.2500 Du        
   3379 ****        19.5000  -5.0000  -9.0000 Du        
   3380 ****        19.5000  -5.0000  -8.7500 Du        
   3381 ****        19.5000  -5.0000  -8.5000 Du        
   3382 ****        19.5000  -5.0000  -8.2500 Du        
   3383 ****        19.5000  -5.0000  -8.0000 Du        
   3384 ****        19.5000  -5.0000  -7.7500 Du        
   3385 ****        19.5000  -5.0000  -7.5000 Du        
   3386 ****        19.5000  -5.0000  -7.2500 Du        
   3387 ****        19.5000  -5.0000  -7.0000 Du        
   3388 ****        19.5000  -5.0000  -6.7500 Du        
   3389 ****        19.5000  -5.0000  -6.5000 Du        
   3390 ****        19.5000  -5.0000  -6.2500 Du        
   3391 ****        19.5000  -5.0000  -6.0000 Du        
   3392 ****        19.5000  -4.7500  -9.2500 Du        
   3393 ****        19.5000  -4.7500  -9.0000 Du        
   3394 ****        19.5000  -4.7500  -8.7500 Du        
   3395 ****        19.5000  -4.7500  -8.5000 Du        
   3396 ****        19.5000  -4.7500  -8.2500 Du        
   3397 ****        19.5000  -4.7500  -8.0000 Du        
   3398 ****        19.5000  -4.7500  -7.7500 Du        
   3399 ****        19.5000  -4.7500  -7.5000 Du        
   3400 ****        19.5000  -4.7500  -7.2500 Du        
   3401 ****        19.5000  -4.7500  -7.0000 Du        
   3402 ****        19.5000  -4.7500  -6.7500 Du        
   3403 ****        19.5000  -4.7500  -6.5000 Du        
   3404 ****        19.5000  -4.7500  -6.2500 Du        
   3405 ****        19.5000  -4.7500  -6.0000 Du        
   3406 ****        19.5000  -4.5000  -7.2500 Du        
   3407 ****        19.5000  -4.5000  -7.0000 Du        
   3408 ****        19.5000  -4.2500  -7.2500 Du        
   3409 ****        19.5000  -1.0000  -6.5000 Du        
   3410 ****        19.5000  -1.0000  -6.2500 Du        
   3411 ****        19.5000  -1.0000  -6.0000 Du        
   3412 ****        19.5000  -1.0000  -5.7500 Du        
   3413 ****        19.5000  -1.0000  -5.5000 Du        
   3414 ****        19.5000  -0.7500  -6.7500 Du        
   3415 ****        19.5000  -0.7500  -6.5000 Du        
   3416 ****        19.5000  -0.7500  -6.2500 Du        
   3417 ****        19.5000  -0.7500  -6.0000 Du        
   3418 ****        19.5000  -0.7500  -5.7500 Du        
   3419 ****        19.5000  -0.7500  -5.5000 Du        
   3420 ****        19.5000  -0.7500  -5.2500 Du        
   3421 ****        19.5000  -0.5000  -6.7500 Du        
   3422 ****        19.5000  -0.5000  -6.5000 Du        
   3423 ****        19.5000  -0.5000  -6.2500 Du        
   3424 ****        19.5000  -0.5000  -6.0000 Du        
   3425 ****        19.5000  -0.5000  -5.7500 Du        
   3426 ****        19.5000  -0.5000  -5.5000 Du        
   3427 ****        19.5000  -0.5000  -5.2500 Du        
   3428 ****        19.5000  -0.2500  -6.7500 Du        
   3429 ****        19.5000  -0.2500  -6.5000 Du        
   3430 ****        19.5000  -0.2500  -6.2500 Du        
   3431 ****        19.5000  -0.2500  -6.0000 Du        
   3432 ****        19.5000  -0.2500  -5.7500 Du        
   3433 ****        19.5000  -0.2500  -5.5000 Du        
   3434 ****        19.5000  -0.2500  -5.2500 Du        
   3435 ****        19.5000  -0.2500  -5.0000 Du        
   3436 ****        19.5000   0.0000  -7.0000 Du        
   3437 ****        19.5000   0.0000  -6.7500 Du        
   3438 ****        19.5000   0.0000  -6.5000 Du        
   3439 ****        19.5000   0.0000  -6.2500 Du        
   3440 ****        19.5000   0.0000  -6.0000 Du        
   3441 ****        19.5000   0.0000  -5.7500 Du        
   3442 ****        19.5000   0.0000  -5.5000 Du        
   3443 ****        19.5000   0.0000  -5.2500 Du        
   3444 ****        19.5000   0.0000  -5.0000 Du        
   3445 ****        19.5000   0.0000  -4.7500 Du        
   3446 ****        19.5000   0.2500  -7.0000 Du        
   3447 ****        19.5000   0.2500  -6.7500 Du        
   3448 ****        19.5000   0.2500  -6.5000 Du        
   3449 ****        19.5000   0.2500  -6.2500 Du        
   3450 ****        19.5000   0.2500  -6.0000 Du        
   3451 ****        19.5000   0.2500  -5.7500 Du        
   3452 ****        19.5000   0.2500  -5.5000 Du        
   3453 ****        19.5000   0.2500  -5.2500 Du        
   3454 ****        19.5000   0.2500  -5.0000 Du        
   3455 ****        19.5000   2.2500  -9.7500 Du        
   3456 ****        19.5000   2.2500  -9.5000 Du        
   3457 ****        19.5000   2.2500  -9.2500 Du        
   3458 ****        19.5000   2.2500  -9.0000 Du        
   3459 ****        19.5000   2.2500  -8.7500 Du        
   3460 ****        19.5000   2.5000 -10.0000 Du        
   3461 ****        19.5000   2.5000  -9.7500 Du        
   3462 ****        19.5000   2.5000  -9.5000 Du        
   3463 ****        19.5000   2.5000  -9.2500 Du        
   3464 ****        19.5000   2.5000  -9.0000 Du        
   3465 ****        19.5000   2.5000  -8.7500 Du        
   3466 ****        19.5000   2.7500 -10.2500 Du        
   3467 ****        19.5000   2.7500 -10.0000 Du        
   3468 ****        19.5000   2.7500  -9.7500 Du        
   3469 ****        19.5000   2.7500  -9.5000 Du        
   3470 ****        19.5000   2.7500  -9.2500 Du        
   3471 ****        19.5000   2.7500  -9.0000 Du        
   3472 ****        19.5000   2.7500  -8.7500 Du        
   3473 ****        19.5000   3.0000 -10.2500 Du        
   3474 ****        19.5000   3.0000 -10.0000 Du        
   3475 ****        19.5000   3.0000  -9.7500 Du        
   3476 ****        19.5000   3.0000  -9.5000 Du        
   3477 ****        19.5000   3.0000  -9.2500 Du        
   3478 ****        19.5000   3.0000  -9.0000 Du        
   3479 ****        19.5000   3.0000  -8.7500 Du        
   3480 ****        19.5000   3.2500 -10.2500 Du        
   3481 ****        19.5000   3.2500 -10.0000 Du        
   3482 ****        19.5000   3.2500  -9.7500 Du        
   3483 ****        19.5000   3.2500  -9.5000 Du        
   3484 ****        19.5000   3.2500  -9.2500 Du        
   3485 ****        19.5000   3.2500  -9.0000 Du        
   3486 ****        19.5000   3.5000 -10.5000 Du        
   3487 ****        19.5000   3.5000 -10.2500 Du        
   3488 ****        19.5000   3.5000 -10.0000 Du        
   3489 ****        19.5000   3.5000  -9.7500 Du        
   3490 ****        19.5000   3.5000  -9.5000 Du        
   3491 ****        19.5000   3.7500 -10.7500 Du        
   3492 ****        19.5000   3.7500 -10.5000 Du        
   3493 ****        19.5000   3.7500 -10.2500 Du        
   3494 ****        19.5000   3.7500 -10.0000 Du        
   3495 ****        19.5000   3.7500  -9.7500 Du        
   3496 ****        19.5000   3.7500  -9.5000 Du        
   3497 ****        19.5000   4.0000 -10.7500 Du        
   3498 ****        19.5000   4.0000 -10.5000 Du        
   3499 ****        19.5000   4.0000 -10.2500 Du        
   3500 ****        19.5000   4.0000 -10.0000 Du        
   3501 ****        19.5000   4.0000  -9.7500 Du        
   3502 ****        19.5000   4.2500 -10.7500 Du        
   3503 ****        19.5000   4.2500 -10.5000 Du        
   3504 ****        19.5000   4.2500 -10.2500 Du        
   3505 ****        19.5000   4.2500 -10.0000 Du        
   3506 ****        19.5000   4.2500  -9.7500 Du        
   3507 ****        19.5000   4.5000 -10.7500 Du        
   3508 ****        19.5000   4.5000 -10.5000 Du        
   3509 ****        19.5000   4.5000 -10.2500 Du        
   3510 ****        19.5000   4.5000 -10.0000 Du        
   3511 ****        19.5000   4.7500 -10.7500 Du        
   3512 ****        19.5000   4.7500 -10.2500 Du        
   3513 ****        19.5000   4.7500 -10.0000 Du        
   3514 ****        19.5000   7.7500 -11.5000 Du        
   3515 ****        19.5000   7.7500 -11.2500 Du        
   3516 ****        19.5000   8.0000 -11.5000 Du        
   3517 ****        19.5000   8.0000 -11.2500 Du        
   3518 ****        19.5000   8.0000 -11.0000 Du        
   3519 ****        19.5000   8.2500 -11.2500 Du        
   3520 ****        19.5000   8.2500 -11.0000 Du        
   3521 ****        19.7500  -7.2500  -9.2500 Du        
   3522 ****        19.7500  -7.2500  -9.0000 Du        
   3523 ****        19.7500  -7.2500  -8.7500 Du        
   3524 ****        19.7500  -7.2500  -8.5000 Du        
   3525 ****        19.7500  -7.2500  -8.2500 Du        
   3526 ****        19.7500  -7.2500  -8.0000 Du        
   3527 ****        19.7500  -7.2500  -7.7500 Du        
   3528 ****        19.7500  -7.2500  -7.5000 Du        
   3529 ****        19.7500  -7.2500  -7.2500 Du        
   3530 ****        19.7500  -7.2500  -7.0000 Du        
   3531 ****        19.7500  -7.0000  -9.5000 Du        
   3532 ****        19.7500  -7.0000  -9.2500 Du        
   3533 ****        19.7500  -7.0000  -9.0000 Du        
   3534 ****        19.7500  -7.0000  -8.7500 Du        
   3535 ****        19.7500  -7.0000  -8.5000 Du        
   3536 ****        19.7500  -7.0000  -8.2500 Du        
   3537 ****        19.7500  -7.0000  -8.0000 Du        
   3538 ****        19.7500  -7.0000  -7.7500 Du        
   3539 ****        19.7500  -7.0000  -7.5000 Du        
   3540 ****        19.7500  -7.0000  -7.2500 Du        
   3541 ****        19.7500  -7.0000  -7.0000 Du        
   3542 ****        19.7500  -6.7500  -9.5000 Du        
   3543 ****        19.7500  -6.7500  -9.2500 Du        
   3544 ****        19.7500  -6.7500  -9.0000 Du        
   3545 ****        19.7500  -6.7500  -8.7500 Du        
   3546 ****        19.7500  -6.7500  -8.5000 Du        
   3547 ****        19.7500  -6.7500  -8.2500 Du        
   3548 ****        19.7500  -6.7500  -8.0000 Du        
   3549 ****        19.7500  -6.7500  -7.7500 Du        
   3550 ****        19.7500  -6.7500  -7.5000 Du        
   3551 ****        19.7500  -6.7500  -7.2500 Du        
   3552 ****        19.7500  -6.7500  -7.0000 Du        
   3553 ****        19.7500  -6.7500  -6.7500 Du        
   3554 ****        19.7500  -6.5000  -9.5000 Du        
   3555 ****        19.7500  -6.5000  -9.2500 Du        
   3556 ****        19.7500  -6.5000  -9.0000 Du        
   3557 ****        19.7500  -6.5000  -8.7500 Du        
   3558 ****        19.7500  -6.5000  -8.5000 Du        
   3559 ****        19.7500  -6.5000  -8.2500 Du        
   3560 ****        19.7500  -6.5000  -8.0000 Du        
   3561 ****        19.7500  -6.5000  -7.7500 Du        
   3562 ****        19.7500  -6.5000  -7.5000 Du        
   3563 ****        19.7500  -6.5000  -7.2500 Du        
   3564 ****        19.7500  -6.5000  -7.0000 Du        
   3565 ****        19.7500  -6.5000  -6.7500 Du        
   3566 ****        19.7500  -6.2500  -9.7500 Du        
   3567 ****        19.7500  -6.2500  -9.5000 Du        
   3568 ****        19.7500  -6.2500  -9.2500 Du        
   3569 ****        19.7500  -6.2500  -9.0000 Du        
   3570 ****        19.7500  -6.2500  -8.7500 Du        
   3571 ****        19.7500  -6.2500  -8.5000 Du        
   3572 ****        19.7500  -6.2500  -8.2500 Du        
   3573 ****        19.7500  -6.2500  -8.0000 Du        
   3574 ****        19.7500  -6.2500  -7.7500 Du        
   3575 ****        19.7500  -6.2500  -7.5000 Du        
   3576 ****        19.7500  -6.2500  -7.2500 Du        
   3577 ****        19.7500  -6.2500  -7.0000 Du        
   3578 ****        19.7500  -6.2500  -6.7500 Du        
   3579 ****        19.7500  -6.0000  -9.7500 Du        
   3580 ****        19.7500  -6.0000  -9.5000 Du        
   3581 ****        19.7500  -6.0000  -9.2500 Du        
   3582 ****        19.7500  -6.0000  -9.0000 Du        
   3583 ****        19.7500  -6.0000  -8.7500 Du        
   3584 ****        19.7500  -6.0000  -8.5000 Du        
   3585 ****        19.7500  -6.0000  -8.2500 Du        
   3586 ****        19.7500  -6.0000  -8.0000 Du        
   3587 ****        19.7500  -6.0000  -7.7500 Du        
   3588 ****        19.7500  -6.0000  -7.5000 Du        
   3589 ****        19.7500  -6.0000  -7.2500 Du        
   3590 ****        19.7500  -6.0000  -7.0000 Du        
   3591 ****        19.7500  -6.0000  -6.7500 Du        
   3592 ****        19.7500  -6.0000  -6.5000 Du        
   3593 ****        19.7500  -5.7500 -10.0000 Du        
   3594 ****        19.7500  -5.7500  -9.7500 Du        
   3595 ****        19.7500  -5.7500  -9.5000 Du        
   3596 ****        19.7500  -5.7500  -9.2500 Du        
   3597 ****        19.7500  -5.7500  -9.0000 Du        
   3598 ****        19.7500  -5.7500  -8.7500 Du        
   3599 ****        19.7500  -5.7500  -8.5000 Du        
   3600 ****        19.7500  -5.7500  -8.2500 Du        
   3601 ****        19.7500  -5.7500  -8.0000 Du        
   3602 ****        19.7500  -5.7500  -7.7500 Du        
   3603 ****        19.7500  -5.7500  -7.5000 Du        
   3604 ****        19.7500  -5.7500  -7.2500 Du        
   3605 ****        19.7500  -5.7500  -7.0000 Du        
   3606 ****        19.7500  -5.7500  -6.7500 Du        
   3607 ****        19.7500  -5.7500  -6.5000 Du        
   3608 ****        19.7500  -5.7500  -6.2500 Du        
   3609 ****        19.7500  -5.5000 -10.0000 Du        
   3610 ****        19.7500  -5.5000  -9.7500 Du        
   3611 ****        19.7500  -5.5000  -9.5000 Du        
   3612 ****        19.7500  -5.5000  -9.2500 Du        
   3613 ****        19.7500  -5.5000  -9.0000 Du        
   3614 ****        19.7500  -5.5000  -8.7500 Du        
   3615 ****        19.7500  -5.5000  -8.5000 Du        
   3616 ****        19.7500  -5.5000  -8.2500 Du        
   3617 ****        19.7500  -5.5000  -8.0000 Du        
   3618 ****        19.7500  -5.5000  -7.7500 Du        
   3619 ****        19.7500  -5.5000  -7.5000 Du        
   3620 ****        19.7500  -5.5000  -7.2500 Du        
   3621 ****        19.7500  -5.5000  -7.0000 Du        
   3622 ****        19.7500  -5.5000  -6.7500 Du        
   3623 ****        19.7500  -5.5000  -6.5000 Du        
   3624 ****        19.7500  -5.5000  -6.2500 Du        
   3625 ****        19.7500  -5.2500 -10.0000 Du        
   3626 ****        19.7500  -5.2500  -9.7500 Du        
   3627 ****        19.7500  -5.2500  -9.5000 Du        
   3628 ****        19.7500  -5.2500  -9.2500 Du        
   3629 ****        19.7500  -5.2500  -9.0000 Du        
   3630 ****        19.7500  -5.2500  -8.7500 Du        
   3631 ****        19.7500  -5.2500  -8.5000 Du        
   3632 ****        19.7500  -5.2500  -8.2500 Du        
   3633 ****        19.7500  -5.2500  -8.0000 Du        
   3634 ****        19.7500  -5.2500  -7.7500 Du        
   3635 ****        19.7500  -5.2500  -7.5000 Du        
   3636 ****        19.7500  -5.2500  -7.2500 Du        
   3637 ****        19.7500  -5.2500  -7.0000 Du        
   3638 ****        19.7500  -5.2500  -6.7500 Du        
   3639 ****        19.7500  -5.2500  -6.5000 Du        
   3640 ****        19.7500  -5.2500  -6.2500 Du        
   3641 ****        19.7500  -5.2500  -6.0000 Du        
   3642 ****        19.7500  -5.0000  -9.5000 Du        
   3643 ****        19.7500  -5.0000  -9.2500 Du        
   3644 ****        19.7500  -5.0000  -9.0000 Du        
   3645 ****        19.7500  -5.0000  -8.7500 Du        
   3646 ****        19.7500  -5.0000  -8.5000 Du        
   3647 ****        19.7500  -5.0000  -8.2500 Du        
   3648 ****        19.7500  -5.0000  -8.0000 Du        
   3649 ****        19.7500  -5.0000  -7.7500 Du        
   3650 ****        19.7500  -5.0000  -7.5000 Du        
   3651 ****        19.7500  -5.0000  -7.2500 Du        
   3652 ****        19.7500  -5.0000  -7.0000 Du        
   3653 ****        19.7500  -5.0000  -6.7500 Du        
   3654 ****        19.7500  -5.0000  -6.5000 Du        
   3655 ****        19.7500  -5.0000  -6.2500 Du        
   3656 ****        19.7500  -5.0000  -6.0000 Du        
   3657 ****        19.7500  -5.0000  -5.7500 Du        
   3658 ****        19.7500  -5.0000  -5.5000 Du        
   3659 ****        19.7500  -4.7500  -9.2500 Du        
   3660 ****        19.7500  -4.7500  -9.0000 Du        
   3661 ****        19.7500  -4.7500  -8.7500 Du        
   3662 ****        19.7500  -4.7500  -8.5000 Du        
   3663 ****        19.7500  -4.7500  -8.2500 Du        
   3664 ****        19.7500  -4.7500  -8.0000 Du        
   3665 ****        19.7500  -4.7500  -7.7500 Du        
   3666 ****        19.7500  -4.7500  -7.5000 Du        
   3667 ****        19.7500  -4.7500  -7.2500 Du        
   3668 ****        19.7500  -4.7500  -7.0000 Du        
   3669 ****        19.7500  -4.7500  -6.7500 Du        
   3670 ****        19.7500  -4.7500  -6.5000 Du        
   3671 ****        19.7500  -4.7500  -6.2500 Du        
   3672 ****        19.7500  -4.7500  -6.0000 Du        
   3673 ****        19.7500  -4.7500  -5.7500 Du        
   3674 ****        19.7500  -4.7500  -5.5000 Du        
   3675 ****        19.7500  -4.7500  -5.2500 Du        
   3676 ****        19.7500  -4.7500  -5.0000 Du        
   3677 ****        19.7500  -4.5000  -7.2500 Du        
   3678 ****        19.7500  -4.5000  -7.0000 Du        
   3679 ****        19.7500  -4.5000  -6.7500 Du        
   3680 ****        19.7500  -4.5000  -6.5000 Du        
   3681 ****        19.7500  -4.5000  -6.2500 Du        
   3682 ****        19.7500  -4.5000  -6.0000 Du        
   3683 ****        19.7500  -4.5000  -5.7500 Du        
   3684 ****        19.7500  -4.5000  -5.5000 Du        
   3685 ****        19.7500  -4.5000  -5.2500 Du        
   3686 ****        19.7500  -4.5000  -5.0000 Du        
   3687 ****        19.7500  -4.5000  -4.7500 Du        
   3688 ****        19.7500  -4.5000  -4.5000 Du        
   3689 ****        19.7500  -4.2500  -7.2500 Du        
   3690 ****        19.7500  -4.2500  -7.0000 Du        
   3691 ****        19.7500  -4.2500  -6.7500 Du        
   3692 ****        19.7500  -4.2500  -6.5000 Du        
   3693 ****        19.7500  -4.2500  -6.2500 Du        
   3694 ****        19.7500  -4.2500  -6.0000 Du        
   3695 ****        19.7500  -4.2500  -5.7500 Du        
   3696 ****        19.7500  -4.2500  -5.5000 Du        
   3697 ****        19.7500  -4.2500  -5.2500 Du        
   3698 ****        19.7500  -4.2500  -5.0000 Du        
   3699 ****        19.7500  -4.2500  -4.7500 Du        
   3700 ****        19.7500  -4.2500  -4.5000 Du        
   3701 ****        19.7500  -4.2500  -4.2500 Du        
   3702 ****        19.7500  -4.2500  -4.0000 Du        
   3703 ****        19.7500  -4.0000  -5.5000 Du        
   3704 ****        19.7500  -4.0000  -5.2500 Du        
   3705 ****        19.7500  -4.0000  -5.0000 Du        
   3706 ****        19.7500  -4.0000  -4.7500 Du        
   3707 ****        19.7500  -4.0000  -4.5000 Du        
   3708 ****        19.7500  -4.0000  -4.2500 Du        
   3709 ****        19.7500  -4.0000  -4.0000 Du        
   3710 ****        19.7500  -4.0000  -3.7500 Du        
   3711 ****        19.7500  -3.7500  -5.2500 Du        
   3712 ****        19.7500  -3.7500  -5.0000 Du        
   3713 ****        19.7500  -3.7500  -4.7500 Du        
   3714 ****        19.7500  -3.7500  -4.5000 Du        
   3715 ****        19.7500  -3.7500  -4.2500 Du        
   3716 ****        19.7500  -3.7500  -4.0000 Du        
   3717 ****        19.7500  -3.7500  -3.7500 Du        
   3718 ****        19.7500  -3.5000  -5.0000 Du        
   3719 ****        19.7500  -3.5000  -4.7500 Du        
   3720 ****        19.7500  -3.5000  -4.5000 Du        
   3721 ****        19.7500  -3.5000  -4.2500 Du        
   3722 ****        19.7500  -3.5000  -4.0000 Du        
   3723 ****        19.7500  -3.5000  -3.7500 Du        
   3724 ****        19.7500  -3.2500  -4.7500 Du        
   3725 ****        19.7500  -3.2500  -4.5000 Du        
   3726 ****        19.7500  -3.2500  -4.2500 Du        
   3727 ****        19.7500  -3.2500  -4.0000 Du        
   3728 ****        19.7500  -1.5000  -6.2500 Du        
   3729 ****        19.7500  -1.5000  -5.7500 Du        
   3730 ****        19.7500  -1.5000  -5.5000 Du        
   3731 ****        19.7500  -1.2500  -6.5000 Du        
   3732 ****        19.7500  -1.2500  -6.2500 Du        
   3733 ****        19.7500  -1.2500  -6.0000 Du        
   3734 ****        19.7500  -1.2500  -5.7500 Du        
   3735 ****        19.7500  -1.2500  -5.5000 Du        
   3736 ****        19.7500  -1.2500  -5.2500 Du        
   3737 ****        19.7500  -1.2500  -5.0000 Du        
   3738 ****        19.7500  -1.0000  -6.7500 Du        
   3739 ****        19.7500  -1.0000  -6.5000 Du        
   3740 ****        19.7500  -1.0000  -6.2500 Du        
   3741 ****        19.7500  -1.0000  -6.0000 Du        
   3742 ****        19.7500  -1.0000  -5.7500 Du        
   3743 ****        19.7500  -1.0000  -5.5000 Du        
   3744 ****        19.7500  -1.0000  -5.2500 Du        
   3745 ****        19.7500  -1.0000  -5.0000 Du        
   3746 ****        19.7500  -0.7500  -6.7500 Du        
   3747 ****        19.7500  -0.7500  -6.5000 Du        
   3748 ****        19.7500  -0.7500  -6.2500 Du        
   3749 ****        19.7500  -0.7500  -6.0000 Du        
   3750 ****        19.7500  -0.7500  -5.7500 Du        
   3751 ****        19.7500  -0.7500  -5.5000 Du        
   3752 ****        19.7500  -0.7500  -5.2500 Du        
   3753 ****        19.7500  -0.7500  -5.0000 Du        
   3754 ****        19.7500  -0.7500  -4.7500 Du        
   3755 ****        19.7500  -0.5000  -6.7500 Du        
   3756 ****        19.7500  -0.5000  -6.5000 Du        
   3757 ****        19.7500  -0.5000  -6.2500 Du        
   3758 ****        19.7500  -0.5000  -6.0000 Du        
   3759 ****        19.7500  -0.5000  -5.7500 Du        
   3760 ****        19.7500  -0.5000  -5.5000 Du        
   3761 ****        19.7500  -0.5000  -5.2500 Du        
   3762 ****        19.7500  -0.5000  -5.0000 Du        
   3763 ****        19.7500  -0.2500  -6.7500 Du        
   3764 ****        19.7500  -0.2500  -6.5000 Du        
   3765 ****        19.7500  -0.2500  -6.2500 Du        
   3766 ****        19.7500  -0.2500  -6.0000 Du        
   3767 ****        19.7500  -0.2500  -5.7500 Du        
   3768 ****        19.7500  -0.2500  -5.5000 Du        
   3769 ****        19.7500  -0.2500  -5.2500 Du        
   3770 ****        19.7500  -0.2500  -5.0000 Du        
   3771 ****        19.7500  -0.2500  -4.7500 Du        
   3772 ****        19.7500   0.0000  -6.7500 Du        
   3773 ****        19.7500   0.0000  -6.5000 Du        
   3774 ****        19.7500   0.0000  -6.2500 Du        
   3775 ****        19.7500   0.0000  -6.0000 Du        
   3776 ****        19.7500   0.0000  -5.7500 Du        
   3777 ****        19.7500   0.0000  -5.5000 Du        
   3778 ****        19.7500   0.0000  -5.2500 Du        
   3779 ****        19.7500   0.0000  -5.0000 Du        
   3780 ****        19.7500   0.2500  -7.0000 Du        
   3781 ****        19.7500   0.2500  -6.7500 Du        
   3782 ****        19.7500   0.2500  -6.5000 Du        
   3783 ****        19.7500   0.2500  -6.2500 Du        
   3784 ****        19.7500   0.2500  -6.0000 Du        
   3785 ****        19.7500   2.2500  -9.2500 Du        
   3786 ****        19.7500   2.2500  -9.0000 Du        
   3787 ****        19.7500   2.5000  -9.7500 Du        
   3788 ****        19.7500   2.5000  -9.5000 Du        
   3789 ****        19.7500   2.5000  -9.2500 Du        
   3790 ****        19.7500   2.5000  -9.0000 Du        
   3791 ****        19.7500   2.5000  -8.7500 Du        
   3792 ****        19.7500   2.7500 -10.0000 Du        
   3793 ****        19.7500   2.7500  -9.7500 Du        
   3794 ****        19.7500   2.7500  -9.5000 Du        
   3795 ****        19.7500   2.7500  -9.2500 Du        
   3796 ****        19.7500   2.7500  -9.0000 Du        
   3797 ****        19.7500   2.7500  -8.7500 Du        
   3798 ****        19.7500   3.0000 -10.0000 Du        
   3799 ****        19.7500   3.0000  -9.7500 Du        
   3800 ****        19.7500   3.0000  -9.5000 Du        
   3801 ****        19.7500   3.0000  -9.2500 Du        
   3802 ****        19.7500   3.0000  -9.0000 Du        
   3803 ****        19.7500   3.0000  -8.7500 Du        
   3804 ****        19.7500   3.2500 -10.0000 Du        
   3805 ****        19.7500   3.2500  -9.7500 Du        
   3806 ****        19.7500   3.2500  -9.5000 Du        
   3807 ****        19.7500   3.2500  -9.2500 Du        
   3808 ****        19.7500   3.2500  -9.0000 Du        
   3809 ****        19.7500   3.5000 -10.0000 Du        
   3810 ****        19.7500   3.5000  -9.7500 Du        
   3811 ****        19.7500   3.5000  -9.5000 Du        
   3812 ****        19.7500   3.7500 -10.2500 Du        
   3813 ****        19.7500   3.7500 -10.0000 Du        
   3814 ****        19.7500   3.7500  -9.7500 Du        
   3815 ****        19.7500   4.0000 -10.2500 Du        
   3816 ****        19.7500   4.0000 -10.0000 Du        
   3817 ****        19.7500   4.0000  -9.7500 Du        
   3818 ****        19.7500   4.2500 -10.2500 Du        
   3819 ****        19.7500   4.2500 -10.0000 Du        
   3820 ****        19.7500   4.2500  -9.7500 Du        
   3821 ****        19.7500   4.5000 -10.5000 Du        
   3822 ****        19.7500   4.5000 -10.2500 Du        
   3823 ****        19.7500   4.7500 -10.7500 Du        
   3824 ****        19.7500   4.7500 -10.5000 Du        
   3825 ****        19.7500   4.7500 -10.2500 Du        
   3826 ****        19.7500   4.7500 -10.0000 Du        
   3827 ****        19.7500   5.0000 -10.7500 Du        
   3828 ****        19.7500   5.0000 -10.5000 Du        
   3829 ****        19.7500   5.0000 -10.2500 Du        
   3830 ****        19.7500   5.0000 -10.0000 Du        
   3831 ****        19.7500   5.2500 -10.7500 Du        
   3832 ****        19.7500   5.5000 -10.7500 Du        
   3833 ****        19.7500   5.7500 -10.7500 Du        
   3834 ****        19.7500   6.0000 -11.0000 Du        
   3835 ****        19.7500   6.2500 -11.2500 Du        
   3836 ****        19.7500   6.2500 -11.0000 Du        
   3837 ****        19.7500   6.5000 -11.7500 Du        
   3838 ****        19.7500   6.5000 -11.5000 Du        
   3839 ****        19.7500   6.5000 -11.2500 Du        
   3840 ****        19.7500   6.7500 -11.7500 Du        
   3841 ****        19.7500   6.7500 -11.5000 Du        
   3842 ****        19.7500   6.7500 -11.2500 Du        
   3843 ****        19.7500   6.7500 -11.0000 Du        
   3844 ****        19.7500   7.0000 -11.7500 Du        
   3845 ****        19.7500   7.0000 -11.5000 Du        
   3846 ****        19.7500   7.0000 -11.2500 Du        
   3847 ****        19.7500   7.0000 -11.0000 Du        
   3848 ****        19.7500   7.2500 -11.7500 Du        
   3849 ****        19.7500   7.2500 -11.5000 Du        
   3850 ****        19.7500   7.2500 -11.2500 Du        
   3851 ****        19.7500   7.2500 -11.0000 Du        
   3852 ****        19.7500   7.5000 -11.7500 Du        
   3853 ****        19.7500   7.5000 -11.5000 Du        
   3854 ****        19.7500   7.5000 -11.2500 Du        
   3855 ****        19.7500   7.5000 -11.0000 Du        
   3856 ****        19.7500   7.7500 -11.5000 Du        
   3857 ****        19.7500   7.7500 -11.2500 Du        
   3858 ****        19.7500   7.7500 -11.0000 Du        
   3859 ****        19.7500   8.0000 -11.5000 Du        
   3860 ****        19.7500   8.0000 -11.2500 Du        
   3861 ****        19.7500   8.0000 -11.0000 Du        
   3862 ****        19.7500   8.2500 -11.5000 Du        
   3863 ****        19.7500   8.2500 -11.2500 Du        
   3864 ****        19.7500   8.2500 -11.0000 Du        
   3865 ****        20.0000  -7.7500  -9.2500 Du        
   3866 ****        20.0000  -7.7500  -9.0000 Du        
   3867 ****        20.0000  -7.5000  -9.0000 Du        
   3868 ****        20.0000  -7.5000  -8.7500 Du        
   3869 ****        20.0000  -7.5000  -7.2500 Du        
   3870 ****        20.0000  -7.5000  -7.0000 Du        
   3871 ****        20.0000  -7.2500  -9.2500 Du        
   3872 ****        20.0000  -7.2500  -9.0000 Du        
   3873 ****        20.0000  -7.2500  -8.7500 Du        
   3874 ****        20.0000  -7.2500  -8.5000 Du        
   3875 ****        20.0000  -7.2500  -8.2500 Du        
   3876 ****        20.0000  -7.2500  -8.0000 Du        
   3877 ****        20.0000  -7.2500  -7.7500 Du        
   3878 ****        20.0000  -7.2500  -7.5000 Du        
   3879 ****        20.0000  -7.2500  -7.2500 Du        
   3880 ****        20.0000  -7.2500  -7.0000 Du        
   3881 ****        20.0000  -7.0000  -9.5000 Du        
   3882 ****        20.0000  -7.0000  -9.2500 Du        
   3883 ****        20.0000  -7.0000  -9.0000 Du        
   3884 ****        20.0000  -7.0000  -8.7500 Du        
   3885 ****        20.0000  -7.0000  -8.5000 Du        
   3886 ****        20.0000  -7.0000  -8.2500 Du        
   3887 ****        20.0000  -7.0000  -8.0000 Du        
   3888 ****        20.0000  -7.0000  -7.7500 Du        
   3889 ****        20.0000  -7.0000  -7.5000 Du        
   3890 ****        20.0000  -7.0000  -7.2500 Du        
   3891 ****        20.0000  -7.0000  -7.0000 Du        
   3892 ****        20.0000  -6.7500  -9.5000 Du        
   3893 ****        20.0000  -6.7500  -9.2500 Du        
   3894 ****        20.0000  -6.7500  -9.0000 Du        
   3895 ****        20.0000  -6.7500  -8.7500 Du        
   3896 ****        20.0000  -6.7500  -8.5000 Du        
   3897 ****        20.0000  -6.7500  -8.2500 Du        
   3898 ****        20.0000  -6.7500  -8.0000 Du        
   3899 ****        20.0000  -6.7500  -7.7500 Du        
   3900 ****        20.0000  -6.7500  -7.5000 Du        
   3901 ****        20.0000  -6.7500  -7.2500 Du        
   3902 ****        20.0000  -6.7500  -7.0000 Du        
   3903 ****        20.0000  -6.7500  -6.7500 Du        
   3904 ****        20.0000  -6.5000  -9.2500 Du        
   3905 ****        20.0000  -6.5000  -9.0000 Du        
   3906 ****        20.0000  -6.5000  -8.7500 Du        
   3907 ****        20.0000  -6.5000  -8.5000 Du        
   3908 ****        20.0000  -6.5000  -8.2500 Du        
   3909 ****        20.0000  -6.5000  -8.0000 Du        
   3910 ****        20.0000  -6.5000  -7.7500 Du        
   3911 ****        20.0000  -6.5000  -7.5000 Du        
   3912 ****        20.0000  -6.5000  -7.2500 Du        
   3913 ****        20.0000  -6.5000  -7.0000 Du        
   3914 ****        20.0000  -6.2500  -9.2500 Du        
   3915 ****        20.0000  -6.2500  -9.0000 Du        
   3916 ****        20.0000  -6.2500  -8.7500 Du        
   3917 ****        20.0000  -6.2500  -8.5000 Du        
   3918 ****        20.0000  -6.2500  -8.2500 Du        
   3919 ****        20.0000  -6.2500  -8.0000 Du        
   3920 ****        20.0000  -6.2500  -7.7500 Du        
   3921 ****        20.0000  -6.2500  -7.5000 Du        
   3922 ****        20.0000  -6.2500  -7.2500 Du        
   3923 ****        20.0000  -6.2500  -7.0000 Du        
   3924 ****        20.0000  -6.2500  -6.7500 Du        
   3925 ****        20.0000  -6.0000  -9.2500 Du        
   3926 ****        20.0000  -6.0000  -9.0000 Du        
   3927 ****        20.0000  -6.0000  -8.7500 Du        
   3928 ****        20.0000  -6.0000  -8.5000 Du        
   3929 ****        20.0000  -6.0000  -8.2500 Du        
   3930 ****        20.0000  -6.0000  -8.0000 Du        
   3931 ****        20.0000  -6.0000  -7.7500 Du        
   3932 ****        20.0000  -6.0000  -7.5000 Du        
   3933 ****        20.0000  -6.0000  -7.2500 Du        
   3934 ****        20.0000  -6.0000  -7.0000 Du        
   3935 ****        20.0000  -6.0000  -6.7500 Du        
   3936 ****        20.0000  -6.0000  -6.5000 Du        
   3937 ****        20.0000  -5.7500  -9.7500 Du        
   3938 ****        20.0000  -5.7500  -9.2500 Du        
   3939 ****        20.0000  -5.7500  -9.0000 Du        
   3940 ****        20.0000  -5.7500  -8.7500 Du        
   3941 ****        20.0000  -5.7500  -8.5000 Du        
   3942 ****        20.0000  -5.7500  -8.2500 Du        
   3943 ****        20.0000  -5.7500  -8.0000 Du        
   3944 ****        20.0000  -5.7500  -7.7500 Du        
   3945 ****        20.0000  -5.7500  -7.5000 Du        
   3946 ****        20.0000  -5.7500  -7.2500 Du        
   3947 ****        20.0000  -5.7500  -7.0000 Du        
   3948 ****        20.0000  -5.7500  -6.7500 Du        
   3949 ****        20.0000  -5.7500  -6.5000 Du        
   3950 ****        20.0000  -5.7500  -6.2500 Du        
   3951 ****        20.0000  -5.5000  -9.7500 Du        
   3952 ****        20.0000  -5.5000  -9.2500 Du        
   3953 ****        20.0000  -5.5000  -9.0000 Du        
   3954 ****        20.0000  -5.5000  -8.7500 Du        
   3955 ****        20.0000  -5.5000  -8.5000 Du        
   3956 ****        20.0000  -5.5000  -7.0000 Du        
   3957 ****        20.0000  -5.5000  -6.7500 Du        
   3958 ****        20.0000  -5.5000  -6.5000 Du        
   3959 ****        20.0000  -5.5000  -6.2500 Du        
   3960 ****        20.0000  -5.2500 -10.0000 Du        
   3961 ****        20.0000  -5.2500  -9.7500 Du        
   3962 ****        20.0000  -5.2500  -9.5000 Du        
   3963 ****        20.0000  -5.2500  -9.2500 Du        
   3964 ****        20.0000  -5.2500  -9.0000 Du        
   3965 ****        20.0000  -5.2500  -8.7500 Du        
   3966 ****        20.0000  -5.2500  -8.5000 Du        
   3967 ****        20.0000  -5.2500  -8.2500 Du        
   3968 ****        20.0000  -5.2500  -7.0000 Du        
   3969 ****        20.0000  -5.2500  -6.7500 Du        
   3970 ****        20.0000  -5.2500  -6.5000 Du        
   3971 ****        20.0000  -5.2500  -6.2500 Du        
   3972 ****        20.0000  -5.2500  -6.0000 Du        
   3973 ****        20.0000  -5.2500  -5.7500 Du        
   3974 ****        20.0000  -5.0000  -9.2500 Du        
   3975 ****        20.0000  -5.0000  -9.0000 Du        
   3976 ****        20.0000  -5.0000  -8.5000 Du        
   3977 ****        20.0000  -5.0000  -8.2500 Du        
   3978 ****        20.0000  -5.0000  -8.0000 Du        
   3979 ****        20.0000  -5.0000  -7.2500 Du        
   3980 ****        20.0000  -5.0000  -7.0000 Du        
   3981 ****        20.0000  -5.0000  -6.7500 Du        
   3982 ****        20.0000  -5.0000  -6.5000 Du        
   3983 ****        20.0000  -5.0000  -6.2500 Du        
   3984 ****        20.0000  -5.0000  -6.0000 Du        
   3985 ****        20.0000  -5.0000  -5.7500 Du        
   3986 ****        20.0000  -5.0000  -5.5000 Du        
   3987 ****        20.0000  -5.0000  -5.2500 Du        
   3988 ****        20.0000  -5.0000  -5.0000 Du        
   3989 ****        20.0000  -4.7500  -7.0000 Du        
   3990 ****        20.0000  -4.7500  -6.7500 Du        
   3991 ****        20.0000  -4.7500  -6.5000 Du        
   3992 ****        20.0000  -4.7500  -6.2500 Du        
   3993 ****        20.0000  -4.7500  -6.0000 Du        
   3994 ****        20.0000  -4.7500  -5.7500 Du        
   3995 ****        20.0000  -4.7500  -5.5000 Du        
   3996 ****        20.0000  -4.7500  -5.2500 Du        
   3997 ****        20.0000  -4.7500  -5.0000 Du        
   3998 ****        20.0000  -4.7500  -4.7500 Du        
   3999 ****        20.0000  -4.7500  -4.5000 Du        
   4000 ****        20.0000  -4.5000  -7.0000 Du        
   4001 ****        20.0000  -4.5000  -6.7500 Du        
   4002 ****        20.0000  -4.5000  -6.5000 Du        
   4003 ****        20.0000  -4.5000  -6.2500 Du        
   4004 ****        20.0000  -4.5000  -6.0000 Du        
   4005 ****        20.0000  -4.5000  -5.7500 Du        
   4006 ****        20.0000  -4.5000  -5.5000 Du        
   4007 ****        20.0000  -4.5000  -5.2500 Du        
   4008 ****        20.0000  -4.5000  -5.0000 Du        
   4009 ****        20.0000  -4.5000  -4.7500 Du        
   4010 ****        20.0000  -4.5000  -4.5000 Du        
   4011 ****        20.0000  -4.5000  -4.2500 Du        
   4012 ****        20.0000  -4.2500  -7.0000 Du        
   4013 ****        20.0000  -4.2500  -6.7500 Du        
   4014 ****        20.0000  -4.2500  -6.5000 Du        
   4015 ****        20.0000  -4.2500  -6.2500 Du        
   4016 ****        20.0000  -4.2500  -6.0000 Du        
   4017 ****        20.0000  -4.2500  -5.7500 Du        
   4018 ****        20.0000  -4.2500  -5.5000 Du        
   4019 ****        20.0000  -4.2500  -5.2500 Du        
   4020 ****        20.0000  -4.2500  -5.0000 Du        
   4021 ****        20.0000  -4.2500  -4.7500 Du        
   4022 ****        20.0000  -4.2500  -4.5000 Du        
   4023 ****        20.0000  -4.2500  -4.2500 Du        
   4024 ****        20.0000  -4.2500  -4.0000 Du        
   4025 ****        20.0000  -4.0000  -6.2500 Du        
   4026 ****        20.0000  -4.0000  -6.0000 Du        
   4027 ****        20.0000  -4.0000  -5.7500 Du        
   4028 ****        20.0000  -4.0000  -5.5000 Du        
   4029 ****        20.0000  -4.0000  -5.2500 Du        
   4030 ****        20.0000  -4.0000  -5.0000 Du        
   4031 ****        20.0000  -4.0000  -4.7500 Du        
   4032 ****        20.0000  -4.0000  -4.5000 Du        
   4033 ****        20.0000  -4.0000  -4.2500 Du        
   4034 ****        20.0000  -4.0000  -4.0000 Du        
   4035 ****        20.0000  -4.0000  -3.7500 Du        
   4036 ****        20.0000  -3.7500  -6.2500 Du        
   4037 ****        20.0000  -3.7500  -6.0000 Du        
   4038 ****        20.0000  -3.7500  -5.7500 Du        
   4039 ****        20.0000  -3.7500  -5.5000 Du        
   4040 ****        20.0000  -3.7500  -5.2500 Du        
   4041 ****        20.0000  -3.7500  -5.0000 Du        
   4042 ****        20.0000  -3.7500  -4.7500 Du        
   4043 ****        20.0000  -3.7500  -4.5000 Du        
   4044 ****        20.0000  -3.7500  -4.2500 Du        
   4045 ****        20.0000  -3.7500  -4.0000 Du        
   4046 ****        20.0000  -3.7500  -3.7500 Du        
   4047 ****        20.0000  -3.7500  -3.5000 Du        
   4048 ****        20.0000  -3.5000  -6.2500 Du        
   4049 ****        20.0000  -3.5000  -6.0000 Du        
   4050 ****        20.0000  -3.5000  -5.7500 Du        
   4051 ****        20.0000  -3.5000  -5.5000 Du        
   4052 ****        20.0000  -3.5000  -5.2500 Du        
   4053 ****        20.0000  -3.5000  -5.0000 Du        
   4054 ****        20.0000  -3.5000  -4.7500 Du        
   4055 ****        20.0000  -3.5000  -4.5000 Du        
   4056 ****        20.0000  -3.5000  -4.2500 Du        
   4057 ****        20.0000  -3.5000  -4.0000 Du        
   4058 ****        20.0000  -3.5000  -3.7500 Du        
   4059 ****        20.0000  -3.5000  -3.5000 Du        
   4060 ****        20.0000  -3.2500  -6.0000 Du        
   4061 ****        20.0000  -3.2500  -5.7500 Du        
   4062 ****        20.0000  -3.2500  -5.5000 Du        
   4063 ****        20.0000  -3.2500  -5.2500 Du        
   4064 ****        20.0000  -3.2500  -5.0000 Du        
   4065 ****        20.0000  -3.2500  -4.7500 Du        
   4066 ****        20.0000  -3.2500  -4.5000 Du        
   4067 ****        20.0000  -3.2500  -4.2500 Du        
   4068 ****        20.0000  -3.2500  -4.0000 Du        
   4069 ****        20.0000  -3.2500  -3.7500 Du        
   4070 ****        20.0000  -3.2500  -3.5000 Du        
   4071 ****        20.0000  -3.0000  -6.0000 Du        
   4072 ****        20.0000  -3.0000  -5.7500 Du        
   4073 ****        20.0000  -3.0000  -5.2500 Du        
   4074 ****        20.0000  -3.0000  -5.0000 Du        
   4075 ****        20.0000  -3.0000  -4.7500 Du        
   4076 ****        20.0000  -3.0000  -4.5000 Du        
   4077 ****        20.0000  -3.0000  -4.2500 Du        
   4078 ****        20.0000  -3.0000  -4.0000 Du        
   4079 ****        20.0000  -3.0000  -3.7500 Du        
   4080 ****        20.0000  -2.7500  -6.0000 Du        
   4081 ****        20.0000  -2.7500  -5.7500 Du        
   4082 ****        20.0000  -2.7500  -5.5000 Du        
   4083 ****        20.0000  -2.7500  -5.2500 Du        
   4084 ****        20.0000  -2.7500  -5.0000 Du        
   4085 ****        20.0000  -2.7500  -4.7500 Du        
   4086 ****        20.0000  -2.7500  -4.5000 Du        
   4087 ****        20.0000  -2.7500  -4.2500 Du        
   4088 ****        20.0000  -2.7500  -4.0000 Du        
   4089 ****        20.0000  -2.5000  -5.5000 Du        
   4090 ****        20.0000  -2.5000  -5.2500 Du        
   4091 ****        20.0000  -2.5000  -5.0000 Du        
   4092 ****        20.0000  -2.5000  -4.7500 Du        
   4093 ****        20.0000  -2.5000  -4.5000 Du        
   4094 ****        20.0000  -2.5000  -4.2500 Du        
   4095 ****        20.0000  -2.2500  -5.5000 Du        
   4096 ****        20.0000  -2.2500  -5.2500 Du        
   4097 ****        20.0000  -2.2500  -5.0000 Du        
   4098 ****        20.0000  -2.2500  -4.7500 Du        
   4099 ****        20.0000  -2.2500  -4.5000 Du        
   4100 ****        20.0000  -2.0000  -6.2500 Du        
   4101 ****        20.0000  -2.0000  -6.0000 Du        
   4102 ****        20.0000  -2.0000  -5.7500 Du        
   4103 ****        20.0000  -2.0000  -5.5000 Du        
   4104 ****        20.0000  -2.0000  -5.2500 Du        
   4105 ****        20.0000  -2.0000  -5.0000 Du        
   4106 ****        20.0000  -2.0000  -4.7500 Du        
   4107 ****        20.0000  -2.0000  -4.5000 Du        
   4108 ****        20.0000  -1.7500  -6.2500 Du        
   4109 ****        20.0000  -1.7500  -6.0000 Du        
   4110 ****        20.0000  -1.7500  -5.7500 Du        
   4111 ****        20.0000  -1.7500  -5.5000 Du        
   4112 ****        20.0000  -1.7500  -5.2500 Du        
   4113 ****        20.0000  -1.7500  -5.0000 Du        
   4114 ****        20.0000  -1.7500  -4.7500 Du        
   4115 ****        20.0000  -1.5000  -6.5000 Du        
   4116 ****        20.0000  -1.5000  -6.2500 Du        
   4117 ****        20.0000  -1.5000  -6.0000 Du        
   4118 ****        20.0000  -1.5000  -5.7500 Du        
   4119 ****        20.0000  -1.5000  -5.5000 Du        
   4120 ****        20.0000  -1.5000  -5.2500 Du        
   4121 ****        20.0000  -1.5000  -5.0000 Du        
   4122 ****        20.0000  -1.5000  -4.7500 Du        
   4123 ****        20.0000  -1.2500  -6.5000 Du        
   4124 ****        20.0000  -1.2500  -6.2500 Du        
   4125 ****        20.0000  -1.2500  -6.0000 Du        
   4126 ****        20.0000  -1.2500  -5.7500 Du        
   4127 ****        20.0000  -1.2500  -5.5000 Du        
   4128 ****        20.0000  -1.2500  -5.2500 Du        
   4129 ****        20.0000  -1.2500  -5.0000 Du        
   4130 ****        20.0000  -1.2500  -4.7500 Du        
   4131 ****        20.0000  -1.0000  -6.5000 Du        
   4132 ****        20.0000  -1.0000  -6.2500 Du        
   4133 ****        20.0000  -1.0000  -6.0000 Du        
   4134 ****        20.0000  -1.0000  -5.7500 Du        
   4135 ****        20.0000  -1.0000  -5.5000 Du        
   4136 ****        20.0000  -1.0000  -5.2500 Du        
   4137 ****        20.0000  -1.0000  -5.0000 Du        
   4138 ****        20.0000  -1.0000  -4.7500 Du        
   4139 ****        20.0000  -0.7500  -6.5000 Du        
   4140 ****        20.0000  -0.7500  -6.2500 Du        
   4141 ****        20.0000  -0.7500  -6.0000 Du        
   4142 ****        20.0000  -0.7500  -5.7500 Du        
   4143 ****        20.0000  -0.7500  -5.5000 Du        
   4144 ****        20.0000  -0.7500  -5.2500 Du        
   4145 ****        20.0000  -0.7500  -5.0000 Du        
   4146 ****        20.0000  -0.7500  -4.7500 Du        
   4147 ****        20.0000  -0.5000  -6.5000 Du        
   4148 ****        20.0000  -0.5000  -6.2500 Du        
   4149 ****        20.0000  -0.5000  -6.0000 Du        
   4150 ****        20.0000  -0.5000  -5.7500 Du        
   4151 ****        20.0000  -0.5000  -5.5000 Du        
   4152 ****        20.0000  -0.5000  -5.2500 Du        
   4153 ****        20.0000  -0.5000  -5.0000 Du        
   4154 ****        20.0000  -0.5000  -4.7500 Du        
   4155 ****        20.0000  -0.2500  -6.5000 Du        
   4156 ****        20.0000  -0.2500  -6.2500 Du        
   4157 ****        20.0000  -0.2500  -6.0000 Du        
   4158 ****        20.0000  -0.2500  -5.7500 Du        
   4159 ****        20.0000  -0.2500  -5.5000 Du        
   4160 ****        20.0000  -0.2500  -5.2500 Du        
   4161 ****        20.0000  -0.2500  -5.0000 Du        
   4162 ****        20.0000  -0.2500  -4.7500 Du        
   4163 ****        20.0000   0.0000  -6.5000 Du        
   4164 ****        20.0000   0.0000  -6.2500 Du        
   4165 ****        20.0000   0.0000  -6.0000 Du        
   4166 ****        20.0000   2.5000  -9.5000 Du        
   4167 ****        20.0000   2.5000  -9.2500 Du        
   4168 ****        20.0000   2.5000  -9.0000 Du        
   4169 ****        20.0000   2.7500  -9.5000 Du        
   4170 ****        20.0000   2.7500  -9.2500 Du        
   4171 ****        20.0000   2.7500  -9.0000 Du        
   4172 ****        20.0000   2.7500  -8.7500 Du        
   4173 ****        20.0000   3.0000  -9.7500 Du        
   4174 ****        20.0000   3.0000  -9.5000 Du        
   4175 ****        20.0000   3.0000  -9.2500 Du        
   4176 ****        20.0000   3.0000  -9.0000 Du        
   4177 ****        20.0000   3.2500  -9.7500 Du        
   4178 ****        20.0000   3.2500  -9.5000 Du        
   4179 ****        20.0000   3.2500  -9.2500 Du        
   4180 ****        20.0000   3.2500  -9.0000 Du        
   4181 ****        20.0000   3.5000  -9.7500 Du        
   4182 ****        20.0000   3.7500 -10.0000 Du        
   4183 ****        20.0000   3.7500  -9.7500 Du        
   4184 ****        20.0000   4.0000 -10.0000 Du        
   4185 ****        20.0000   4.0000  -9.7500 Du        
   4186 ****        20.0000   4.2500 -10.0000 Du        
   4187 ****        20.0000   4.2500  -9.7500 Du        
   4188 ****        20.0000   4.5000 -10.2500 Du        
   4189 ****        20.0000   4.7500 -10.2500 Du        
   4190 ****        20.0000   5.0000 -10.7500 Du        
   4191 ****        20.0000   5.0000 -10.5000 Du        
   4192 ****        20.0000   5.0000 -10.2500 Du        
   4193 ****        20.0000   5.0000 -10.0000 Du        
   4194 ****        20.0000   5.2500 -10.7500 Du        
   4195 ****        20.0000   5.2500 -10.5000 Du        
   4196 ****        20.0000   5.2500 -10.2500 Du        
   4197 ****        20.0000   5.2500 -10.0000 Du        
   4198 ****        20.0000   5.5000 -10.7500 Du        
   4199 ****        20.0000   5.5000 -10.5000 Du        
   4200 ****        20.0000   5.7500 -11.0000 Du        
   4201 ****        20.0000   5.7500 -10.7500 Du        
   4202 ****        20.0000   5.7500 -10.5000 Du        
   4203 ****        20.0000   6.0000 -11.2500 Du        
   4204 ****        20.0000   6.0000 -11.0000 Du        
   4205 ****        20.0000   6.0000 -10.7500 Du        
   4206 ****        20.0000   6.0000 -10.5000 Du        
   4207 ****        20.0000   6.2500 -11.5000 Du        
   4208 ****        20.0000   6.2500 -11.2500 Du        
   4209 ****        20.0000   6.2500 -11.0000 Du        
   4210 ****        20.0000   6.2500 -10.7500 Du        
   4211 ****        20.0000   6.2500 -10.5000 Du        
   4212 ****        20.0000   6.5000 -11.5000 Du        
   4213 ****        20.0000   6.5000 -11.2500 Du        
   4214 ****        20.0000   6.5000 -11.0000 Du        
   4215 ****        20.0000   6.5000 -10.7500 Du        
   4216 ****        20.0000   6.7500 -11.7500 Du        
   4217 ****        20.0000   6.7500 -11.5000 Du        
   4218 ****        20.0000   6.7500 -11.2500 Du        
   4219 ****        20.0000   6.7500 -11.0000 Du        
   4220 ****        20.0000   6.7500 -10.7500 Du        
   4221 ****        20.0000   7.0000 -11.7500 Du        
   4222 ****        20.0000   7.0000 -11.5000 Du        
   4223 ****        20.0000   7.0000 -11.2500 Du        
   4224 ****        20.0000   7.0000 -11.0000 Du        
   4225 ****        20.0000   7.0000 -10.7500 Du        
   4226 ****        20.0000   7.2500 -11.5000 Du        
   4227 ****        20.0000   7.2500 -11.2500 Du        
   4228 ****        20.0000   7.2500 -11.0000 Du        
   4229 ****        20.0000   7.5000 -11.5000 Du        
   4230 ****        20.0000   7.5000 -11.2500 Du        
   4231 ****        20.0000   7.5000 -11.0000 Du        
   4232 ****        20.0000   7.7500 -11.5000 Du        
   4233 ****        20.0000   7.7500 -11.2500 Du        
   4234 ****        20.0000   7.7500 -11.0000 Du        
   4235 ****        20.0000   8.0000 -11.5000 Du        
   4236 ****        20.0000   8.0000 -11.2500 Du        
   4237 ****        20.0000   8.0000 -11.0000 Du        
   4238 ****        20.0000   8.2500 -11.2500 Du        
   4239 ****        20.2500  -8.0000  -9.2500 Du        
   4240 ****        20.2500  -8.0000  -9.0000 Du        
   4241 ****        20.2500  -7.7500  -9.5000 Du        
   4242 ****        20.2500  -7.7500  -9.2500 Du        
   4243 ****        20.2500  -7.7500  -9.0000 Du        
   4244 ****        20.2500  -7.7500  -8.7500 Du        
   4245 ****        20.2500  -7.7500  -8.5000 Du        
   4246 ****        20.2500  -7.7500  -8.2500 Du        
   4247 ****        20.2500  -7.7500  -8.0000 Du        
   4248 ****        20.2500  -7.7500  -7.5000 Du        
   4249 ****        20.2500  -7.7500  -7.2500 Du        
   4250 ****        20.2500  -7.7500  -7.0000 Du        
   4251 ****        20.2500  -7.5000  -9.2500 Du        
   4252 ****        20.2500  -7.5000  -9.0000 Du        
   4253 ****        20.2500  -7.5000  -8.7500 Du        
   4254 ****        20.2500  -7.5000  -8.2500 Du        
   4255 ****        20.2500  -7.5000  -8.0000 Du        
   4256 ****        20.2500  -7.5000  -7.7500 Du        
   4257 ****        20.2500  -7.5000  -7.5000 Du        
   4258 ****        20.2500  -7.5000  -7.2500 Du        
   4259 ****        20.2500  -7.5000  -7.0000 Du        
   4260 ****        20.2500  -7.2500  -9.2500 Du        
   4261 ****        20.2500  -7.2500  -9.0000 Du        
   4262 ****        20.2500  -7.2500  -8.7500 Du        
   4263 ****        20.2500  -7.2500  -8.5000 Du        
   4264 ****        20.2500  -7.2500  -8.2500 Du        
   4265 ****        20.2500  -7.2500  -8.0000 Du        
   4266 ****        20.2500  -7.2500  -7.7500 Du        
   4267 ****        20.2500  -7.2500  -7.5000 Du        
   4268 ****        20.2500  -7.2500  -7.2500 Du        
   4269 ****        20.2500  -7.2500  -7.0000 Du        
   4270 ****        20.2500  -7.0000  -9.5000 Du        
   4271 ****        20.2500  -7.0000  -9.2500 Du        
   4272 ****        20.2500  -7.0000  -9.0000 Du        
   4273 ****        20.2500  -7.0000  -8.7500 Du        
   4274 ****        20.2500  -7.0000  -8.5000 Du        
   4275 ****        20.2500  -7.0000  -8.2500 Du        
   4276 ****        20.2500  -7.0000  -8.0000 Du        
   4277 ****        20.2500  -7.0000  -7.7500 Du        
   4278 ****        20.2500  -7.0000  -7.5000 Du        
   4279 ****        20.2500  -7.0000  -7.2500 Du        
   4280 ****        20.2500  -7.0000  -7.0000 Du        
   4281 ****        20.2500  -6.7500  -9.2500 Du        
   4282 ****        20.2500  -6.7500  -9.0000 Du        
   4283 ****        20.2500  -6.7500  -8.7500 Du        
   4284 ****        20.2500  -6.7500  -8.2500 Du        
   4285 ****        20.2500  -6.7500  -7.7500 Du        
   4286 ****        20.2500  -6.7500  -7.5000 Du        
   4287 ****        20.2500  -6.7500  -7.2500 Du        
   4288 ****        20.2500  -6.7500  -7.0000 Du        
   4289 ****        20.2500  -6.5000  -8.5000 Du        
   4290 ****        20.2500  -6.5000  -8.2500 Du        
   4291 ****        20.2500  -6.5000  -8.0000 Du        
   4292 ****        20.2500  -6.5000  -7.7500 Du        
   4293 ****        20.2500  -6.5000  -7.5000 Du        
   4294 ****        20.2500  -6.5000  -7.2500 Du        
   4295 ****        20.2500  -6.2500  -8.2500 Du        
   4296 ****        20.2500  -6.2500  -8.0000 Du        
   4297 ****        20.2500  -6.2500  -7.7500 Du        
   4298 ****        20.2500  -6.2500  -7.5000 Du        
   4299 ****        20.2500  -6.0000  -8.0000 Du        
   4300 ****        20.2500  -6.0000  -7.7500 Du        
   4301 ****        20.2500  -6.0000  -7.2500 Du        
   4302 ****        20.2500  -5.2500  -5.5000 Du        
   4303 ****        20.2500  -5.2500  -5.2500 Du        
   4304 ****        20.2500  -5.0000  -5.5000 Du        
   4305 ****        20.2500  -5.0000  -5.2500 Du        
   4306 ****        20.2500  -5.0000  -5.0000 Du        
   4307 ****        20.2500  -5.0000  -4.7500 Du        
   4308 ****        20.2500  -4.7500  -6.0000 Du        
   4309 ****        20.2500  -4.7500  -5.7500 Du        
   4310 ****        20.2500  -4.7500  -5.5000 Du        
   4311 ****        20.2500  -4.7500  -5.2500 Du        
   4312 ****        20.2500  -4.7500  -5.0000 Du        
   4313 ****        20.2500  -4.7500  -4.7500 Du        
   4314 ****        20.2500  -4.7500  -4.5000 Du        
   4315 ****        20.2500  -4.7500  -4.2500 Du        
   4316 ****        20.2500  -4.5000 -13.2500 Du        
   4317 ****        20.2500  -4.5000 -13.0000 Du        
   4318 ****        20.2500  -4.5000  -6.2500 Du        
   4319 ****        20.2500  -4.5000  -6.0000 Du        
   4320 ****        20.2500  -4.5000  -5.7500 Du        
   4321 ****        20.2500  -4.5000  -5.5000 Du        
   4322 ****        20.2500  -4.5000  -5.2500 Du        
   4323 ****        20.2500  -4.5000  -5.0000 Du        
   4324 ****        20.2500  -4.5000  -4.7500 Du        
   4325 ****        20.2500  -4.5000  -4.5000 Du        
   4326 ****        20.2500  -4.5000  -4.2500 Du        
   4327 ****        20.2500  -4.2500 -13.7500 Du        
   4328 ****        20.2500  -4.2500 -13.5000 Du        
   4329 ****        20.2500  -4.2500 -13.2500 Du        
   4330 ****        20.2500  -4.2500 -13.0000 Du        
   4331 ****        20.2500  -4.2500 -12.7500 Du        
   4332 ****        20.2500  -4.2500  -6.2500 Du        
   4333 ****        20.2500  -4.2500  -6.0000 Du        
   4334 ****        20.2500  -4.2500  -5.7500 Du        
   4335 ****        20.2500  -4.2500  -5.5000 Du        
   4336 ****        20.2500  -4.2500  -5.2500 Du        
   4337 ****        20.2500  -4.2500  -5.0000 Du        
   4338 ****        20.2500  -4.2500  -4.7500 Du        
   4339 ****        20.2500  -4.2500  -4.5000 Du        
   4340 ****        20.2500  -4.2500  -4.2500 Du        
   4341 ****        20.2500  -4.2500  -4.0000 Du        
   4342 ****        20.2500  -4.0000 -13.5000 Du        
   4343 ****        20.2500  -4.0000 -13.2500 Du        
   4344 ****        20.2500  -4.0000 -13.0000 Du        
   4345 ****        20.2500  -4.0000  -6.2500 Du        
   4346 ****        20.2500  -4.0000  -6.0000 Du        
   4347 ****        20.2500  -4.0000  -5.7500 Du        
   4348 ****        20.2500  -4.0000  -5.5000 Du        
   4349 ****        20.2500  -4.0000  -5.2500 Du        
   4350 ****        20.2500  -4.0000  -5.0000 Du        
   4351 ****        20.2500  -4.0000  -4.7500 Du        
   4352 ****        20.2500  -4.0000  -4.5000 Du        
   4353 ****        20.2500  -4.0000  -4.2500 Du        
   4354 ****        20.2500  -4.0000  -4.0000 Du        
   4355 ****        20.2500  -4.0000  -3.7500 Du        
   4356 ****        20.2500  -3.7500  -6.2500 Du        
   4357 ****        20.2500  -3.7500  -6.0000 Du        
   4358 ****        20.2500  -3.7500  -5.7500 Du        
   4359 ****        20.2500  -3.7500  -5.5000 Du        
   4360 ****        20.2500  -3.7500  -5.2500 Du        
   4361 ****        20.2500  -3.7500  -5.0000 Du        
   4362 ****        20.2500  -3.7500  -4.7500 Du        
   4363 ****        20.2500  -3.7500  -4.5000 Du        
   4364 ****        20.2500  -3.7500  -4.2500 Du        
   4365 ****        20.2500  -3.7500  -4.0000 Du        
   4366 ****        20.2500  -3.7500  -3.7500 Du        
   4367 ****        20.2500  -3.7500  -3.5000 Du        
   4368 ****        20.2500  -3.5000  -6.2500 Du        
   4369 ****        20.2500  -3.5000  -6.0000 Du        
   4370 ****        20.2500  -3.5000  -5.7500 Du        
   4371 ****        20.2500  -3.5000  -5.5000 Du        
   4372 ****        20.2500  -3.5000  -5.2500 Du        
   4373 ****        20.2500  -3.5000  -5.0000 Du        
   4374 ****        20.2500  -3.5000  -4.7500 Du        
   4375 ****        20.2500  -3.5000  -4.5000 Du        
   4376 ****        20.2500  -3.5000  -4.2500 Du        
   4377 ****        20.2500  -3.5000  -4.0000 Du        
   4378 ****        20.2500  -3.5000  -3.7500 Du        
   4379 ****        20.2500  -3.5000  -3.5000 Du        
   4380 ****        20.2500  -3.2500  -6.0000 Du        
   4381 ****        20.2500  -3.2500  -5.7500 Du        
   4382 ****        20.2500  -3.2500  -5.5000 Du        
   4383 ****        20.2500  -3.2500  -5.2500 Du        
   4384 ****        20.2500  -3.2500  -5.0000 Du        
   4385 ****        20.2500  -3.2500  -4.7500 Du        
   4386 ****        20.2500  -3.2500  -4.5000 Du        
   4387 ****        20.2500  -3.2500  -4.2500 Du        
   4388 ****        20.2500  -3.2500  -4.0000 Du        
   4389 ****        20.2500  -3.2500  -3.7500 Du        
   4390 ****        20.2500  -3.2500  -3.5000 Du        
   4391 ****        20.2500  -3.0000  -6.0000 Du        
   4392 ****        20.2500  -3.0000  -5.7500 Du        
   4393 ****        20.2500  -3.0000  -5.5000 Du        
   4394 ****        20.2500  -3.0000  -5.2500 Du        
   4395 ****        20.2500  -3.0000  -5.0000 Du        
   4396 ****        20.2500  -3.0000  -4.7500 Du        
   4397 ****        20.2500  -3.0000  -4.5000 Du        
   4398 ****        20.2500  -3.0000  -4.2500 Du        
   4399 ****        20.2500  -3.0000  -4.0000 Du        
   4400 ****        20.2500  -3.0000  -3.7500 Du        
   4401 ****        20.2500  -3.0000  -3.5000 Du        
   4402 ****        20.2500  -2.7500  -6.2500 Du        
   4403 ****        20.2500  -2.7500  -6.0000 Du        
   4404 ****        20.2500  -2.7500  -5.7500 Du        
   4405 ****        20.2500  -2.7500  -5.5000 Du        
   4406 ****        20.2500  -2.7500  -5.2500 Du        
   4407 ****        20.2500  -2.7500  -5.0000 Du        
   4408 ****        20.2500  -2.7500  -4.7500 Du        
   4409 ****        20.2500  -2.7500  -4.5000 Du        
   4410 ****        20.2500  -2.7500  -4.2500 Du        
   4411 ****        20.2500  -2.7500  -4.0000 Du        
   4412 ****        20.2500  -2.7500  -3.7500 Du        
   4413 ****        20.2500  -2.7500  -3.5000 Du        
   4414 ****        20.2500  -2.5000  -6.2500 Du        
   4415 ****        20.2500  -2.5000  -6.0000 Du        
   4416 ****        20.2500  -2.5000  -5.7500 Du        
   4417 ****        20.2500  -2.5000  -5.5000 Du        
   4418 ****        20.2500  -2.5000  -5.2500 Du        
   4419 ****        20.2500  -2.5000  -5.0000 Du        
   4420 ****        20.2500  -2.5000  -4.7500 Du        
   4421 ****        20.2500  -2.5000  -4.5000 Du        
   4422 ****        20.2500  -2.5000  -4.2500 Du        
   4423 ****        20.2500  -2.5000  -4.0000 Du        
   4424 ****        20.2500  -2.2500  -6.0000 Du        
   4425 ****        20.2500  -2.2500  -5.7500 Du        
   4426 ****        20.2500  -2.2500  -5.5000 Du        
   4427 ****        20.2500  -2.2500  -5.2500 Du        
   4428 ****        20.2500  -2.2500  -5.0000 Du        
   4429 ****        20.2500  -2.2500  -4.7500 Du        
   4430 ****        20.2500  -2.2500  -4.5000 Du        
   4431 ****        20.2500  -2.2500  -4.2500 Du        
   4432 ****        20.2500  -2.2500  -4.0000 Du        
   4433 ****        20.2500  -2.0000  -6.2500 Du        
   4434 ****        20.2500  -2.0000  -6.0000 Du        
   4435 ****        20.2500  -2.0000  -5.7500 Du        
   4436 ****        20.2500  -2.0000  -5.5000 Du        
   4437 ****        20.2500  -2.0000  -5.2500 Du        
   4438 ****        20.2500  -2.0000  -5.0000 Du        
   4439 ****        20.2500  -2.0000  -4.7500 Du        
   4440 ****        20.2500  -2.0000  -4.5000 Du        
   4441 ****        20.2500  -2.0000  -4.2500 Du        
   4442 ****        20.2500  -1.7500  -6.5000 Du        
   4443 ****        20.2500  -1.7500  -6.2500 Du        
   4444 ****        20.2500  -1.7500  -6.0000 Du        
   4445 ****        20.2500  -1.7500  -5.7500 Du        
   4446 ****        20.2500  -1.7500  -5.5000 Du        
   4447 ****        20.2500  -1.7500  -5.2500 Du        
   4448 ****        20.2500  -1.7500  -5.0000 Du        
   4449 ****        20.2500  -1.7500  -4.7500 Du        
   4450 ****        20.2500  -1.7500  -4.5000 Du        
   4451 ****        20.2500  -1.7500  -4.2500 Du        
   4452 ****        20.2500  -1.5000  -6.5000 Du        
   4453 ****        20.2500  -1.5000  -6.2500 Du        
   4454 ****        20.2500  -1.5000  -6.0000 Du        
   4455 ****        20.2500  -1.5000  -5.7500 Du        
   4456 ****        20.2500  -1.5000  -5.5000 Du        
   4457 ****        20.2500  -1.5000  -5.2500 Du        
   4458 ****        20.2500  -1.5000  -5.0000 Du        
   4459 ****        20.2500  -1.5000  -4.7500 Du        
   4460 ****        20.2500  -1.5000  -4.5000 Du        
   4461 ****        20.2500  -1.2500  -6.5000 Du        
   4462 ****        20.2500  -1.2500  -6.2500 Du        
   4463 ****        20.2500  -1.2500  -6.0000 Du        
   4464 ****        20.2500  -1.2500  -5.7500 Du        
   4465 ****        20.2500  -1.2500  -5.5000 Du        
   4466 ****        20.2500  -1.2500  -5.2500 Du        
   4467 ****        20.2500  -1.2500  -5.0000 Du        
   4468 ****        20.2500  -1.2500  -4.7500 Du        
   4469 ****        20.2500  -1.2500  -4.5000 Du        
   4470 ****        20.2500  -1.0000  -6.5000 Du        
   4471 ****        20.2500  -1.0000  -6.2500 Du        
   4472 ****        20.2500  -1.0000  -6.0000 Du        
   4473 ****        20.2500  -1.0000  -5.7500 Du        
   4474 ****        20.2500  -1.0000  -5.5000 Du        
   4475 ****        20.2500  -1.0000  -5.2500 Du        
   4476 ****        20.2500  -1.0000  -5.0000 Du        
   4477 ****        20.2500  -1.0000  -4.7500 Du        
   4478 ****        20.2500  -1.0000  -4.5000 Du        
   4479 ****        20.2500  -0.7500  -6.5000 Du        
   4480 ****        20.2500  -0.7500  -6.2500 Du        
   4481 ****        20.2500  -0.7500  -6.0000 Du        
   4482 ****        20.2500  -0.7500  -5.7500 Du        
   4483 ****        20.2500  -0.7500  -5.5000 Du        
   4484 ****        20.2500  -0.7500  -5.2500 Du        
   4485 ****        20.2500  -0.7500  -5.0000 Du        
   4486 ****        20.2500  -0.7500  -4.7500 Du        
   4487 ****        20.2500  -0.7500  -4.5000 Du        
   4488 ****        20.2500  -0.5000  -6.5000 Du        
   4489 ****        20.2500  -0.5000  -6.2500 Du        
   4490 ****        20.2500  -0.5000  -6.0000 Du        
   4491 ****        20.2500  -0.5000  -5.7500 Du        
   4492 ****        20.2500  -0.5000  -5.5000 Du        
   4493 ****        20.2500  -0.5000  -5.2500 Du        
   4494 ****        20.2500  -0.5000  -5.0000 Du        
   4495 ****        20.2500  -0.5000  -4.7500 Du        
   4496 ****        20.2500  -0.2500  -6.5000 Du        
   4497 ****        20.2500  -0.2500  -6.2500 Du        
   4498 ****        20.2500   2.7500  -9.2500 Du        
   4499 ****        20.2500   2.7500  -9.0000 Du        
   4500 ****        20.2500   3.0000  -9.2500 Du        
   4501 ****        20.2500   3.0000  -9.0000 Du        
   4502 ****        20.2500   3.2500  -9.2500 Du        
   4503 ****        20.2500   3.2500  -9.0000 Du        
   4504 ****        20.2500   5.0000 -10.2500 Du        
   4505 ****        20.2500   5.2500 -10.2500 Du        
   4506 ****        20.2500   5.5000 -10.2500 Du        
   4507 ****        20.2500   5.7500 -11.0000 Du        
   4508 ****        20.2500   5.7500 -10.7500 Du        
   4509 ****        20.2500   5.7500 -10.5000 Du        
   4510 ****        20.2500   6.0000 -11.0000 Du        
   4511 ****        20.2500   6.0000 -10.7500 Du        
   4512 ****        20.2500   6.0000 -10.5000 Du        
   4513 ****        20.2500   6.2500 -11.2500 Du        
   4514 ****        20.2500   6.2500 -11.0000 Du        
   4515 ****        20.2500   6.2500 -10.7500 Du        
   4516 ****        20.2500   6.2500 -10.5000 Du        
   4517 ****        20.2500   6.5000 -11.2500 Du        
   4518 ****        20.2500   6.5000 -11.0000 Du        
   4519 ****        20.2500   6.5000 -10.7500 Du        
   4520 ****        20.2500   6.7500 -11.5000 Du        
   4521 ****        20.2500   6.7500 -11.2500 Du        
   4522 ****        20.2500   6.7500 -11.0000 Du        
   4523 ****        20.2500   6.7500 -10.7500 Du        
   4524 ****        20.2500   7.0000 -11.5000 Du        
   4525 ****        20.2500   7.0000 -11.2500 Du        
   4526 ****        20.2500   7.0000 -11.0000 Du        
   4527 ****        20.2500   7.0000 -10.7500 Du        
   4528 ****        20.2500   7.2500 -11.5000 Du        
   4529 ****        20.2500   7.2500 -11.2500 Du        
   4530 ****        20.2500   7.2500 -11.0000 Du        
   4531 ****        20.2500   7.5000 -11.2500 Du        
   4532 ****        20.2500   7.5000 -11.0000 Du        
   4533 ****        20.2500   7.7500 -11.2500 Du        
   4534 ****        20.2500   8.0000 -11.2500 Du        
   4535 ****        20.5000  -8.2500  -9.2500 Du        
   4536 ****        20.5000  -8.0000  -9.2500 Du        
   4537 ****        20.5000  -8.0000  -9.0000 Du        
   4538 ****        20.5000  -7.7500  -9.2500 Du        
   4539 ****        20.5000  -7.7500  -9.0000 Du        
   4540 ****        20.5000  -5.0000  -5.5000 Du        
   4541 ****        20.5000  -5.0000  -5.2500 Du        
   4542 ****        20.5000  -5.0000  -5.0000 Du        
   4543 ****        20.5000  -5.0000  -4.7500 Du        
   4544 ****        20.5000  -4.7500  -5.5000 Du        
   4545 ****        20.5000  -4.7500  -5.2500 Du        
   4546 ****        20.5000  -4.7500  -5.0000 Du        
   4547 ****        20.5000  -4.7500  -4.7500 Du        
   4548 ****        20.5000  -4.7500  -4.5000 Du        
   4549 ****        20.5000  -4.5000 -13.2500 Du        
   4550 ****        20.5000  -4.5000 -13.0000 Du        
   4551 ****        20.5000  -4.5000 -12.7500 Du        
   4552 ****        20.5000  -4.5000  -5.5000 Du        
   4553 ****        20.5000  -4.5000  -5.2500 Du        
   4554 ****        20.5000  -4.5000  -5.0000 Du        
   4555 ****        20.5000  -4.5000  -4.7500 Du        
   4556 ****        20.5000  -4.5000  -4.5000 Du        
   4557 ****        20.5000  -4.5000  -4.2500 Du        
   4558 ****        20.5000  -4.2500 -14.0000 Du        
   4559 ****        20.5000  -4.2500 -13.7500 Du        
   4560 ****        20.5000  -4.2500 -13.5000 Du        
   4561 ****        20.5000  -4.2500 -13.2500 Du        
   4562 ****        20.5000  -4.2500 -13.0000 Du        
   4563 ****        20.5000  -4.2500 -12.7500 Du        
   4564 ****        20.5000  -4.2500  -5.7500 Du        
   4565 ****        20.5000  -4.2500  -5.5000 Du        
   4566 ****        20.5000  -4.2500  -5.2500 Du        
   4567 ****        20.5000  -4.2500  -5.0000 Du        
   4568 ****        20.5000  -4.2500  -4.7500 Du        
   4569 ****        20.5000  -4.2500  -4.5000 Du        
   4570 ****        20.5000  -4.2500  -4.2500 Du        
   4571 ****        20.5000  -4.2500  -4.0000 Du        
   4572 ****        20.5000  -4.0000 -14.0000 Du        
   4573 ****        20.5000  -4.0000 -13.7500 Du        
   4574 ****        20.5000  -4.0000 -13.5000 Du        
   4575 ****        20.5000  -4.0000 -13.2500 Du        
   4576 ****        20.5000  -4.0000 -13.0000 Du        
   4577 ****        20.5000  -4.0000  -5.7500 Du        
   4578 ****        20.5000  -4.0000  -5.5000 Du        
   4579 ****        20.5000  -4.0000  -5.2500 Du        
   4580 ****        20.5000  -4.0000  -5.0000 Du        
   4581 ****        20.5000  -4.0000  -4.7500 Du        
   4582 ****        20.5000  -4.0000  -4.5000 Du        
   4583 ****        20.5000  -4.0000  -4.2500 Du        
   4584 ****        20.5000  -4.0000  -4.0000 Du        
   4585 ****        20.5000  -3.7500 -13.5000 Du        
   4586 ****        20.5000  -3.7500 -13.2500 Du        
   4587 ****        20.5000  -3.7500  -5.5000 Du        
   4588 ****        20.5000  -3.7500  -5.2500 Du        
   4589 ****        20.5000  -3.7500  -5.0000 Du        
   4590 ****        20.5000  -3.7500  -4.7500 Du        
   4591 ****        20.5000  -3.7500  -4.5000 Du        
   4592 ****        20.5000  -3.7500  -4.2500 Du        
   4593 ****        20.5000  -3.7500  -4.0000 Du        
   4594 ****        20.5000  -3.7500  -3.7500 Du        
   4595 ****        20.5000  -3.5000  -5.5000 Du        
   4596 ****        20.5000  -3.5000  -5.2500 Du        
   4597 ****        20.5000  -3.5000  -5.0000 Du        
   4598 ****        20.5000  -3.5000  -4.7500 Du        
   4599 ****        20.5000  -3.5000  -4.5000 Du        
   4600 ****        20.5000  -3.5000  -4.2500 Du        
   4601 ****        20.5000  -3.5000  -4.0000 Du        
   4602 ****        20.5000  -3.5000  -3.7500 Du        
   4603 ****        20.5000  -3.5000  -3.5000 Du        
   4604 ****        20.5000  -3.2500  -5.5000 Du        
   4605 ****        20.5000  -3.2500  -5.2500 Du        
   4606 ****        20.5000  -3.2500  -5.0000 Du        
   4607 ****        20.5000  -3.2500  -4.7500 Du        
   4608 ****        20.5000  -3.2500  -4.5000 Du        
   4609 ****        20.5000  -3.2500  -4.2500 Du        
   4610 ****        20.5000  -3.2500  -4.0000 Du        
   4611 ****        20.5000  -3.2500  -3.7500 Du        
   4612 ****        20.5000  -3.2500  -3.5000 Du        
   4613 ****        20.5000  -3.0000  -5.5000 Du        
   4614 ****        20.5000  -3.0000  -5.2500 Du        
   4615 ****        20.5000  -3.0000  -5.0000 Du        
   4616 ****        20.5000  -3.0000  -4.7500 Du        
   4617 ****        20.5000  -3.0000  -4.5000 Du        
   4618 ****        20.5000  -3.0000  -4.2500 Du        
   4619 ****        20.5000  -3.0000  -4.0000 Du        
   4620 ****        20.5000  -3.0000  -3.7500 Du        
   4621 ****        20.5000  -3.0000  -3.5000 Du        
   4622 ****        20.5000  -2.7500  -5.5000 Du        
   4623 ****        20.5000  -2.7500  -5.2500 Du        
   4624 ****        20.5000  -2.7500  -5.0000 Du        
   4625 ****        20.5000  -2.7500  -4.7500 Du        
   4626 ****        20.5000  -2.7500  -4.5000 Du        
   4627 ****        20.5000  -2.7500  -4.2500 Du        
   4628 ****        20.5000  -2.7500  -4.0000 Du        
   4629 ****        20.5000  -2.7500  -3.7500 Du        
   4630 ****        20.5000  -2.7500  -3.5000 Du        
   4631 ****        20.5000  -2.5000  -5.2500 Du        
   4632 ****        20.5000  -2.5000  -5.0000 Du        
   4633 ****        20.5000  -2.5000  -4.7500 Du        
   4634 ****        20.5000  -2.5000  -4.5000 Du        
   4635 ****        20.5000  -2.5000  -4.2500 Du        
   4636 ****        20.5000  -2.5000  -4.0000 Du        
   4637 ****        20.5000  -2.5000  -3.7500 Du        
   4638 ****        20.5000  -2.2500  -5.5000 Du        
   4639 ****        20.5000  -2.2500  -5.2500 Du        
   4640 ****        20.5000  -2.2500  -5.0000 Du        
   4641 ****        20.5000  -2.2500  -4.7500 Du        
   4642 ****        20.5000  -2.2500  -4.5000 Du        
   4643 ****        20.5000  -2.2500  -4.2500 Du        
   4644 ****        20.5000  -2.2500  -4.0000 Du        
   4645 ****        20.5000  -2.0000  -5.7500 Du        
   4646 ****        20.5000  -2.0000  -5.5000 Du        
   4647 ****        20.5000  -2.0000  -5.2500 Du        
   4648 ****        20.5000  -2.0000  -5.0000 Du        
   4649 ****        20.5000  -2.0000  -4.7500 Du        
   4650 ****        20.5000  -2.0000  -4.5000 Du        
   4651 ****        20.5000  -2.0000  -4.2500 Du        
   4652 ****        20.5000  -2.0000  -4.0000 Du        
   4653 ****        20.5000  -1.7500  -6.0000 Du        
   4654 ****        20.5000  -1.7500  -5.7500 Du        
   4655 ****        20.5000  -1.7500  -5.5000 Du        
   4656 ****        20.5000  -1.7500  -5.2500 Du        
   4657 ****        20.5000  -1.7500  -5.0000 Du        
   4658 ****        20.5000  -1.7500  -4.7500 Du        
   4659 ****        20.5000  -1.7500  -4.5000 Du        
   4660 ****        20.5000  -1.7500  -4.2500 Du        
   4661 ****        20.5000  -1.5000  -5.5000 Du        
   4662 ****        20.5000  -1.5000  -5.2500 Du        
   4663 ****        20.5000  -1.5000  -5.0000 Du        
   4664 ****        20.5000  -1.5000  -4.7500 Du        
   4665 ****        20.5000  -1.5000  -4.5000 Du        
   4666 ****        20.5000  -1.5000  -4.2500 Du        
   4667 ****        20.5000  -1.2500  -5.7500 Du        
   4668 ****        20.5000  -1.2500  -5.5000 Du        
   4669 ****        20.5000  -1.2500  -5.2500 Du        
   4670 ****        20.5000  -1.2500  -5.0000 Du        
   4671 ****        20.5000  -1.2500  -4.7500 Du        
   4672 ****        20.5000  -1.2500  -4.5000 Du        
   4673 ****        20.5000  -1.0000  -5.7500 Du        
   4674 ****        20.5000  -1.0000  -5.5000 Du        
   4675 ****        20.5000  -1.0000  -5.2500 Du        
   4676 ****        20.5000  -1.0000  -5.0000 Du        
   4677 ****        20.5000  -1.0000  -4.7500 Du        
   4678 ****        20.5000  -1.0000  -4.5000 Du        
   4679 ****        20.5000  -0.7500  -5.5000 Du        
   4680 ****        20.5000  -0.7500  -5.2500 Du        
   4681 ****        20.5000  -0.7500  -5.0000 Du        
   4682 ****        20.5000  -0.7500  -4.7500 Du        
   4683 ****        20.5000  -0.7500  -4.5000 Du        
   4684 ****        20.5000   6.0000 -10.7500 Du        
   4685 ****        20.5000   6.2500 -11.0000 Du        
   4686 ****        20.5000   6.2500 -10.7500 Du        
   4687 ****        20.5000   6.5000 -11.0000 Du        
   4688 ****        20.5000   6.5000 -10.7500 Du        
   4689 ****        20.5000   6.7500 -11.0000 Du        
   4690 ****        20.5000   6.7500 -10.7500 Du        
   4691 ****        20.5000   7.0000 -11.0000 Du        
   4692 ****        20.7500  -8.7500 -10.0000 Du        
   4693 ****        20.7500  -8.2500  -9.5000 Du        
   4694 ****        20.7500  -8.2500  -9.2500 Du        
   4695 ****        20.7500  -8.2500  -9.0000 Du        
   4696 ****        20.7500  -8.0000  -9.5000 Du        
   4697 ****        20.7500  -8.0000  -9.2500 Du        
   4698 ****        20.7500  -8.0000  -9.0000 Du        
   4699 ****        20.7500  -7.7500  -9.0000 Du        
   4700 ****        20.7500  -5.2500  -5.2500 Du        
   4701 ****        20.7500  -5.2500  -5.0000 Du        
   4702 ****        20.7500  -5.0000  -5.5000 Du        
   4703 ****        20.7500  -5.0000  -5.2500 Du        
   4704 ****        20.7500  -5.0000  -5.0000 Du        
   4705 ****        20.7500  -5.0000  -4.7500 Du        
   4706 ****        20.7500  -4.7500  -5.5000 Du        
   4707 ****        20.7500  -4.7500  -5.2500 Du        
   4708 ****        20.7500  -4.7500  -5.0000 Du        
   4709 ****        20.7500  -4.7500  -4.7500 Du        
   4710 ****        20.7500  -4.7500  -4.5000 Du        
   4711 ****        20.7500  -4.5000 -13.5000 Du        
   4712 ****        20.7500  -4.5000 -13.2500 Du        
   4713 ****        20.7500  -4.5000 -13.0000 Du        
   4714 ****        20.7500  -4.5000 -12.7500 Du        
   4715 ****        20.7500  -4.5000  -5.5000 Du        
   4716 ****        20.7500  -4.5000  -5.2500 Du        
   4717 ****        20.7500  -4.5000  -5.0000 Du        
   4718 ****        20.7500  -4.5000  -4.7500 Du        
   4719 ****        20.7500  -4.5000  -4.5000 Du        
   4720 ****        20.7500  -4.2500 -14.2500 Du        
   4721 ****        20.7500  -4.2500 -14.0000 Du        
   4722 ****        20.7500  -4.2500 -13.7500 Du        
   4723 ****        20.7500  -4.2500 -13.5000 Du        
   4724 ****        20.7500  -4.2500 -13.2500 Du        
   4725 ****        20.7500  -4.2500 -13.0000 Du        
   4726 ****        20.7500  -4.2500 -12.7500 Du        
   4727 ****        20.7500  -4.2500  -5.5000 Du        
   4728 ****        20.7500  -4.2500  -5.2500 Du        
   4729 ****        20.7500  -4.2500  -5.0000 Du        
   4730 ****        20.7500  -4.2500  -4.7500 Du        
   4731 ****        20.7500  -4.2500  -4.5000 Du        
   4732 ****        20.7500  -4.2500  -4.2500 Du        
   4733 ****        20.7500  -4.0000 -14.2500 Du        
   4734 ****        20.7500  -4.0000 -14.0000 Du        
   4735 ****        20.7500  -4.0000 -13.7500 Du        
   4736 ****        20.7500  -4.0000 -13.5000 Du        
   4737 ****        20.7500  -4.0000 -13.2500 Du        
   4738 ****        20.7500  -4.0000 -13.0000 Du        
   4739 ****        20.7500  -4.0000 -12.7500 Du        
   4740 ****        20.7500  -4.0000  -5.7500 Du        
   4741 ****        20.7500  -4.0000  -5.2500 Du        
   4742 ****        20.7500  -4.0000  -5.0000 Du        
   4743 ****        20.7500  -4.0000  -4.7500 Du        
   4744 ****        20.7500  -4.0000  -4.5000 Du        
   4745 ****        20.7500  -4.0000  -4.2500 Du        
   4746 ****        20.7500  -4.0000  -4.0000 Du        
   4747 ****        20.7500  -3.7500 -14.0000 Du        
   4748 ****        20.7500  -3.7500 -13.7500 Du        
   4749 ****        20.7500  -3.7500 -13.5000 Du        
   4750 ****        20.7500  -3.7500 -13.2500 Du        
   4751 ****        20.7500  -3.7500 -13.0000 Du        
   4752 ****        20.7500  -3.7500 -12.7500 Du        
   4753 ****        20.7500  -3.7500  -5.5000 Du        
   4754 ****        20.7500  -3.7500  -5.2500 Du        
   4755 ****        20.7500  -3.7500  -5.0000 Du        
   4756 ****        20.7500  -3.7500  -4.7500 Du        
   4757 ****        20.7500  -3.7500  -4.5000 Du        
   4758 ****        20.7500  -3.7500  -4.2500 Du        
   4759 ****        20.7500  -3.7500  -4.0000 Du        
   4760 ****        20.7500  -3.7500  -3.7500 Du        
   4761 ****        20.7500  -3.5000 -13.7500 Du        
   4762 ****        20.7500  -3.5000 -13.5000 Du        
   4763 ****        20.7500  -3.5000 -13.2500 Du        
   4764 ****        20.7500  -3.5000 -13.0000 Du        
   4765 ****        20.7500  -3.5000  -5.2500 Du        
   4766 ****        20.7500  -3.5000  -5.0000 Du        
   4767 ****        20.7500  -3.5000  -4.7500 Du        
   4768 ****        20.7500  -3.5000  -4.5000 Du        
   4769 ****        20.7500  -3.5000  -4.2500 Du        
   4770 ****        20.7500  -3.5000  -4.0000 Du        
   4771 ****        20.7500  -3.5000  -3.7500 Du        
   4772 ****        20.7500  -3.5000  -3.5000 Du        
   4773 ****        20.7500  -3.2500  -5.2500 Du        
   4774 ****        20.7500  -3.2500  -5.0000 Du        
   4775 ****        20.7500  -3.2500  -4.7500 Du        
   4776 ****        20.7500  -3.2500  -4.5000 Du        
   4777 ****        20.7500  -3.2500  -4.2500 Du        
   4778 ****        20.7500  -3.2500  -4.0000 Du        
   4779 ****        20.7500  -3.2500  -3.7500 Du        
   4780 ****        20.7500  -3.2500  -3.5000 Du        
   4781 ****        20.7500  -3.0000  -5.5000 Du        
   4782 ****        20.7500  -3.0000  -5.2500 Du        
   4783 ****        20.7500  -3.0000  -5.0000 Du        
   4784 ****        20.7500  -3.0000  -4.7500 Du        
   4785 ****        20.7500  -3.0000  -4.5000 Du        
   4786 ****        20.7500  -3.0000  -4.2500 Du        
   4787 ****        20.7500  -3.0000  -4.0000 Du        
   4788 ****        20.7500  -3.0000  -3.7500 Du        
   4789 ****        20.7500  -3.0000  -3.5000 Du        
   4790 ****        20.7500  -2.7500  -5.5000 Du        
   4791 ****        20.7500  -2.7500  -5.2500 Du        
   4792 ****        20.7500  -2.7500  -5.0000 Du        
   4793 ****        20.7500  -2.7500  -4.7500 Du        
   4794 ****        20.7500  -2.7500  -4.5000 Du        
   4795 ****        20.7500  -2.7500  -4.2500 Du        
   4796 ****        20.7500  -2.7500  -4.0000 Du        
   4797 ****        20.7500  -2.7500  -3.7500 Du        
   4798 ****        20.7500  -2.7500  -3.5000 Du        
   4799 ****        20.7500  -2.5000  -5.5000 Du        
   4800 ****        20.7500  -2.5000  -5.2500 Du        
   4801 ****        20.7500  -2.5000  -5.0000 Du        
   4802 ****        20.7500  -2.5000  -4.7500 Du        
   4803 ****        20.7500  -2.5000  -4.5000 Du        
   4804 ****        20.7500  -2.5000  -4.2500 Du        
   4805 ****        20.7500  -2.5000  -4.0000 Du        
   4806 ****        20.7500  -2.5000  -3.7500 Du        
   4807 ****        20.7500  -2.2500  -5.7500 Du        
   4808 ****        20.7500  -2.2500  -5.5000 Du        
   4809 ****        20.7500  -2.2500  -5.2500 Du        
   4810 ****        20.7500  -2.2500  -5.0000 Du        
   4811 ****        20.7500  -2.2500  -4.7500 Du        
   4812 ****        20.7500  -2.2500  -4.5000 Du        
   4813 ****        20.7500  -2.2500  -4.2500 Du        
   4814 ****        20.7500  -2.2500  -4.0000 Du        
   4815 ****        20.7500  -2.0000  -6.0000 Du        
   4816 ****        20.7500  -2.0000  -5.7500 Du        
   4817 ****        20.7500  -2.0000  -5.5000 Du        
   4818 ****        20.7500  -2.0000  -5.2500 Du        
   4819 ****        20.7500  -2.0000  -5.0000 Du        
   4820 ****        20.7500  -2.0000  -4.7500 Du        
   4821 ****        20.7500  -2.0000  -4.5000 Du        
   4822 ****        20.7500  -2.0000  -4.2500 Du        
   4823 ****        20.7500  -2.0000  -4.0000 Du        
   4824 ****        20.7500  -1.7500  -6.0000 Du        
   4825 ****        20.7500  -1.7500  -5.7500 Du        
   4826 ****        20.7500  -1.7500  -5.5000 Du        
   4827 ****        20.7500  -1.7500  -5.2500 Du        
   4828 ****        20.7500  -1.7500  -5.0000 Du        
   4829 ****        20.7500  -1.7500  -4.7500 Du        
   4830 ****        20.7500  -1.7500  -4.5000 Du        
   4831 ****        20.7500  -1.7500  -4.2500 Du        
   4832 ****        20.7500  -1.7500  -4.0000 Du        
   4833 ****        20.7500  -1.5000  -5.7500 Du        
   4834 ****        20.7500  -1.5000  -5.5000 Du        
   4835 ****        20.7500  -1.5000  -5.2500 Du        
   4836 ****        20.7500  -1.5000  -5.0000 Du        
   4837 ****        20.7500  -1.5000  -4.7500 Du        
   4838 ****        20.7500  -1.5000  -4.5000 Du        
   4839 ****        20.7500  -1.5000  -4.2500 Du        
   4840 ****        20.7500  -1.2500  -5.7500 Du        
   4841 ****        20.7500  -1.2500  -5.5000 Du        
   4842 ****        20.7500  -1.2500  -5.2500 Du        
   4843 ****        20.7500  -1.2500  -5.0000 Du        
   4844 ****        20.7500  -1.2500  -4.7500 Du        
   4845 ****        20.7500  -1.2500  -4.5000 Du        
   4846 ****        20.7500  -1.2500  -4.2500 Du        
   4847 ****        20.7500  -1.0000  -5.7500 Du        
   4848 ****        20.7500  -1.0000  -5.5000 Du        
   4849 ****        20.7500  -1.0000  -5.2500 Du        
   4850 ****        20.7500  -1.0000  -5.0000 Du        
   4851 ****        20.7500  -1.0000  -4.7500 Du        
   4852 ****        20.7500  -1.0000  -4.5000 Du        
   4853 ****        20.7500  -1.0000  -4.2500 Du        
   4854 ****        20.7500  -0.7500  -5.7500 Du        
   4855 ****        20.7500  -0.7500  -5.5000 Du        
   4856 ****        20.7500  -0.7500  -5.2500 Du        
   4857 ****        20.7500  -0.7500  -5.0000 Du        
   4858 ****        20.7500  -0.7500  -4.7500 Du        
   4859 ****        20.7500  -0.7500  -4.5000 Du        
   4860 ****        21.0000 -11.7500 -15.0000 Du        
   4861 ****        21.0000 -11.5000 -15.0000 Du        
   4862 ****        21.0000 -10.2500 -11.2500 Du        
   4863 ****        21.0000 -10.2500 -11.0000 Du        
   4864 ****        21.0000 -10.2500 -10.7500 Du        
   4865 ****        21.0000 -10.0000 -11.2500 Du        
   4866 ****        21.0000 -10.0000 -11.0000 Du        
   4867 ****        21.0000 -10.0000 -10.7500 Du        
   4868 ****        21.0000 -10.0000 -10.5000 Du        
   4869 ****        21.0000  -9.7500 -11.2500 Du        
   4870 ****        21.0000  -9.7500 -11.0000 Du        
   4871 ****        21.0000  -9.7500 -10.7500 Du        
   4872 ****        21.0000  -9.7500 -10.5000 Du        
   4873 ****        21.0000  -9.5000 -11.0000 Du        
   4874 ****        21.0000  -9.5000 -10.7500 Du        
   4875 ****        21.0000  -9.5000 -10.5000 Du        
   4876 ****        21.0000  -9.5000 -10.2500 Du        
   4877 ****        21.0000  -9.2500 -10.7500 Du        
   4878 ****        21.0000  -9.2500 -10.5000 Du        
   4879 ****        21.0000  -9.2500 -10.2500 Du        
   4880 ****        21.0000  -9.2500 -10.0000 Du        
   4881 ****        21.0000  -9.0000 -10.5000 Du        
   4882 ****        21.0000  -9.0000 -10.2500 Du        
   4883 ****        21.0000  -9.0000 -10.0000 Du        
   4884 ****        21.0000  -8.7500 -10.2500 Du        
   4885 ****        21.0000  -8.7500 -10.0000 Du        
   4886 ****        21.0000  -8.7500  -9.7500 Du        
   4887 ****        21.0000  -8.5000  -9.7500 Du        
   4888 ****        21.0000  -8.2500  -9.5000 Du        
   4889 ****        21.0000  -5.2500  -5.2500 Du        
   4890 ****        21.0000  -5.2500  -5.0000 Du        
   4891 ****        21.0000  -5.0000  -5.5000 Du        
   4892 ****        21.0000  -5.0000  -5.2500 Du        
   4893 ****        21.0000  -5.0000  -5.0000 Du        
   4894 ****        21.0000  -4.7500  -5.2500 Du        
   4895 ****        21.0000  -4.7500  -5.0000 Du        
   4896 ****        21.0000  -4.7500  -4.7500 Du        
   4897 ****        21.0000  -4.5000 -13.7500 Du        
   4898 ****        21.0000  -4.5000 -13.5000 Du        
   4899 ****        21.0000  -4.5000 -13.2500 Du        
   4900 ****        21.0000  -4.5000 -13.0000 Du        
   4901 ****        21.0000  -4.5000 -12.7500 Du        
   4902 ****        21.0000  -4.5000  -5.2500 Du        
   4903 ****        21.0000  -4.5000  -5.0000 Du        
   4904 ****        21.0000  -4.5000  -4.7500 Du        
   4905 ****        21.0000  -4.5000  -4.5000 Du        
   4906 ****        21.0000  -4.2500 -14.2500 Du        
   4907 ****        21.0000  -4.2500 -14.0000 Du        
   4908 ****        21.0000  -4.2500 -13.7500 Du        
   4909 ****        21.0000  -4.2500 -13.5000 Du        
   4910 ****        21.0000  -4.2500 -13.2500 Du        
   4911 ****        21.0000  -4.2500 -13.0000 Du        
   4912 ****        21.0000  -4.2500 -12.7500 Du        
   4913 ****        21.0000  -4.2500 -12.5000 Du        
   4914 ****        21.0000  -4.2500  -5.0000 Du        
   4915 ****        21.0000  -4.2500  -4.7500 Du        
   4916 ****        21.0000  -4.2500  -4.5000 Du        
   4917 ****        21.0000  -4.2500  -4.2500 Du        
   4918 ****        21.0000  -4.0000 -14.2500 Du        
   4919 ****        21.0000  -4.0000 -14.0000 Du        
   4920 ****        21.0000  -4.0000 -13.7500 Du        
   4921 ****        21.0000  -4.0000 -13.5000 Du        
   4922 ****        21.0000  -4.0000 -13.2500 Du        
   4923 ****        21.0000  -4.0000 -13.0000 Du        
   4924 ****        21.0000  -4.0000 -12.7500 Du        
   4925 ****        21.0000  -4.0000 -12.5000 Du        
   4926 ****        21.0000  -4.0000  -5.2500 Du        
   4927 ****        21.0000  -4.0000  -5.0000 Du        
   4928 ****        21.0000  -4.0000  -4.7500 Du        
   4929 ****        21.0000  -4.0000  -4.5000 Du        
   4930 ****        21.0000  -4.0000  -4.2500 Du        
   4931 ****        21.0000  -3.7500 -14.2500 Du        
   4932 ****        21.0000  -3.7500 -14.0000 Du        
   4933 ****        21.0000  -3.7500 -13.7500 Du        
   4934 ****        21.0000  -3.7500 -13.5000 Du        
   4935 ****        21.0000  -3.7500 -13.2500 Du        
   4936 ****        21.0000  -3.7500 -13.0000 Du        
   4937 ****        21.0000  -3.7500 -12.7500 Du        
   4938 ****        21.0000  -3.7500  -5.2500 Du        
   4939 ****        21.0000  -3.7500  -5.0000 Du        
   4940 ****        21.0000  -3.7500  -4.7500 Du        
   4941 ****        21.0000  -3.7500  -4.5000 Du        
   4942 ****        21.0000  -3.7500  -4.2500 Du        
   4943 ****        21.0000  -3.7500  -4.0000 Du        
   4944 ****        21.0000  -3.5000 -14.2500 Du        
   4945 ****        21.0000  -3.5000 -14.0000 Du        
   4946 ****        21.0000  -3.5000 -13.7500 Du        
   4947 ****        21.0000  -3.5000 -13.5000 Du        
   4948 ****        21.0000  -3.5000 -13.2500 Du        
   4949 ****        21.0000  -3.5000 -13.0000 Du        
   4950 ****        21.0000  -3.5000 -12.7500 Du        
   4951 ****        21.0000  -3.5000  -5.2500 Du        
   4952 ****        21.0000  -3.5000  -5.0000 Du        
   4953 ****        21.0000  -3.5000  -4.7500 Du        
   4954 ****        21.0000  -3.5000  -4.5000 Du        
   4955 ****        21.0000  -3.5000  -4.2500 Du        
   4956 ****        21.0000  -3.5000  -4.0000 Du        
   4957 ****        21.0000  -3.5000  -3.7500 Du        
   4958 ****        21.0000  -3.2500 -14.0000 Du        
   4959 ****        21.0000  -3.2500 -13.7500 Du        
   4960 ****        21.0000  -3.2500 -13.5000 Du        
   4961 ****        21.0000  -3.2500 -13.2500 Du        
   4962 ****        21.0000  -3.2500 -13.0000 Du        
   4963 ****        21.0000  -3.2500  -5.0000 Du        
   4964 ****        21.0000  -3.2500  -4.7500 Du        
   4965 ****        21.0000  -3.2500  -4.5000 Du        
   4966 ****        21.0000  -3.2500  -4.2500 Du        
   4967 ****        21.0000  -3.2500  -4.0000 Du        
   4968 ****        21.0000  -3.2500  -3.7500 Du        
   4969 ****        21.0000  -3.2500  -3.5000 Du        
   4970 ****        21.0000  -3.0000 -13.7500 Du        
   4971 ****        21.0000  -3.0000 -13.5000 Du        
   4972 ****        21.0000  -3.0000  -5.2500 Du        
   4973 ****        21.0000  -3.0000  -5.0000 Du        
   4974 ****        21.0000  -3.0000  -4.7500 Du        
   4975 ****        21.0000  -3.0000  -4.5000 Du        
   4976 ****        21.0000  -3.0000  -4.2500 Du        
   4977 ****        21.0000  -3.0000  -4.0000 Du        
   4978 ****        21.0000  -3.0000  -3.7500 Du        
   4979 ****        21.0000  -3.0000  -3.5000 Du        
   4980 ****        21.0000  -2.7500  -5.2500 Du        
   4981 ****        21.0000  -2.7500  -5.0000 Du        
   4982 ****        21.0000  -2.7500  -4.7500 Du        
   4983 ****        21.0000  -2.7500  -4.5000 Du        
   4984 ****        21.0000  -2.7500  -4.2500 Du        
   4985 ****        21.0000  -2.7500  -4.0000 Du        
   4986 ****        21.0000  -2.7500  -3.7500 Du        
   4987 ****        21.0000  -2.5000  -5.2500 Du        
   4988 ****        21.0000  -2.5000  -5.0000 Du        
   4989 ****        21.0000  -2.5000  -4.7500 Du        
   4990 ****        21.0000  -2.5000  -4.5000 Du        
   4991 ****        21.0000  -2.5000  -4.2500 Du        
   4992 ****        21.0000  -2.5000  -4.0000 Du        
   4993 ****        21.0000  -2.2500  -5.2500 Du        
   4994 ****        21.0000  -2.2500  -5.0000 Du        
   4995 ****        21.0000  -2.2500  -4.7500 Du        
   4996 ****        21.0000  -2.2500  -4.5000 Du        
   4997 ****        21.0000  -2.2500  -4.2500 Du        
   4998 ****        21.0000  -2.2500  -4.0000 Du        
   4999 ****        21.0000  -2.0000  -5.5000 Du        
   5000 ****        21.0000  -2.0000  -5.2500 Du        
   5001 ****        21.0000  -2.0000  -5.0000 Du        
   5002 ****        21.0000  -2.0000  -4.7500 Du        
   5003 ****        21.0000  -2.0000  -4.5000 Du        
   5004 ****        21.0000  -2.0000  -4.2500 Du        
   5005 ****        21.0000  -2.0000  -4.0000 Du        
   5006 ****        21.0000  -1.7500  -5.2500 Du        
   5007 ****        21.0000  -1.7500  -5.0000 Du        
   5008 ****        21.0000  -1.7500  -4.7500 Du        
   5009 ****        21.0000  -1.7500  -4.5000 Du        
   5010 ****        21.0000  -1.7500  -4.2500 Du        
   5011 ****        21.0000  -1.7500  -4.0000 Du        
   5012 ****        21.0000  -1.5000  -5.7500 Du        
   5013 ****        21.0000  -1.5000  -5.5000 Du        
   5014 ****        21.0000  -1.5000  -5.2500 Du        
   5015 ****        21.0000  -1.5000  -5.0000 Du        
   5016 ****        21.0000  -1.5000  -4.7500 Du        
   5017 ****        21.0000  -1.5000  -4.5000 Du        
   5018 ****        21.0000  -1.5000  -4.2500 Du        
   5019 ****        21.0000  -1.2500  -5.7500 Du        
   5020 ****        21.0000  -1.2500  -5.5000 Du        
   5021 ****        21.0000  -1.2500  -5.2500 Du        
   5022 ****        21.0000  -1.2500  -5.0000 Du        
   5023 ****        21.0000  -1.2500  -4.7500 Du        
   5024 ****        21.0000  -1.2500  -4.5000 Du        
   5025 ****        21.0000  -1.2500  -4.2500 Du        
   5026 ****        21.0000  -1.0000  -5.7500 Du        
   5027 ****        21.0000  -1.0000  -5.5000 Du        
   5028 ****        21.0000  -1.0000  -5.2500 Du        
   5029 ****        21.0000  -1.0000  -5.0000 Du        
   5030 ****        21.0000  -1.0000  -4.7500 Du        
   5031 ****        21.0000  -1.0000  -4.5000 Du        
   5032 ****        21.0000  -1.0000  -4.2500 Du        
   5033 ****        21.0000  -0.7500  -5.2500 Du        
   5034 ****        21.0000  -0.7500  -5.0000 Du        
   5035 ****        21.0000  -0.7500  -4.7500 Du        
   5036 ****        21.0000  -0.7500  -4.5000 Du        
   5037 ****        21.2500 -12.0000 -15.0000 Du        
   5038 ****        21.2500 -11.7500 -15.0000 Du        
   5039 ****        21.2500 -11.7500 -14.7500 Du        
   5040 ****        21.2500 -11.5000 -15.0000 Du        
   5041 ****        21.2500 -11.5000 -14.7500 Du        
   5042 ****        21.2500 -10.5000 -11.2500 Du        
   5043 ****        21.2500 -10.5000 -11.0000 Du        
   5044 ****        21.2500 -10.2500 -11.7500 Du        
   5045 ****        21.2500 -10.2500 -11.5000 Du        
   5046 ****        21.2500 -10.2500 -11.2500 Du        
   5047 ****        21.2500 -10.2500 -11.0000 Du        
   5048 ****        21.2500 -10.2500 -10.7500 Du        
   5049 ****        21.2500 -10.0000 -11.7500 Du        
   5050 ****        21.2500 -10.0000 -11.5000 Du        
   5051 ****        21.2500 -10.0000 -11.2500 Du        
   5052 ****        21.2500 -10.0000 -11.0000 Du        
   5053 ****        21.2500 -10.0000 -10.7500 Du        
   5054 ****        21.2500 -10.0000 -10.5000 Du        
   5055 ****        21.2500  -9.7500 -11.5000 Du        
   5056 ****        21.2500  -9.7500 -11.2500 Du        
   5057 ****        21.2500  -9.7500 -11.0000 Du        
   5058 ****        21.2500  -9.7500 -10.7500 Du        
   5059 ****        21.2500  -9.7500 -10.5000 Du        
   5060 ****        21.2500  -9.7500 -10.2500 Du        
   5061 ****        21.2500  -9.5000 -11.2500 Du        
   5062 ****        21.2500  -9.5000 -11.0000 Du        
   5063 ****        21.2500  -9.5000 -10.7500 Du        
   5064 ****        21.2500  -9.5000 -10.5000 Du        
   5065 ****        21.2500  -9.5000 -10.2500 Du        
   5066 ****        21.2500  -9.2500 -11.0000 Du        
   5067 ****        21.2500  -9.2500 -10.7500 Du        
   5068 ****        21.2500  -9.2500 -10.5000 Du        
   5069 ****        21.2500  -9.2500 -10.2500 Du        
   5070 ****        21.2500  -9.2500 -10.0000 Du        
   5071 ****        21.2500  -9.0000 -10.7500 Du        
   5072 ****        21.2500  -9.0000 -10.5000 Du        
   5073 ****        21.2500  -9.0000 -10.2500 Du        
   5074 ****        21.2500  -9.0000 -10.0000 Du        
   5075 ****        21.2500  -8.7500 -10.2500 Du        
   5076 ****        21.2500  -8.7500 -10.0000 Du        
   5077 ****        21.2500  -8.7500  -9.7500 Du        
   5078 ****        21.2500  -4.5000 -14.0000 Du        
   5079 ****        21.2500  -4.5000 -13.7500 Du        
   5080 ****        21.2500  -4.5000 -13.5000 Du        
   5081 ****        21.2500  -4.5000 -13.2500 Du        
   5082 ****        21.2500  -4.5000 -13.0000 Du        
   5083 ****        21.2500  -4.5000 -12.7500 Du        
   5084 ****        21.2500  -4.2500 -14.2500 Du        
   5085 ****        21.2500  -4.2500 -14.0000 Du        
   5086 ****        21.2500  -4.2500 -13.7500 Du        
   5087 ****        21.2500  -4.2500 -13.5000 Du        
   5088 ****        21.2500  -4.2500 -13.2500 Du        
   5089 ****        21.2500  -4.2500 -13.0000 Du        
   5090 ****        21.2500  -4.2500 -12.7500 Du        
   5091 ****        21.2500  -4.2500 -12.5000 Du        
   5092 ****        21.2500  -4.0000 -14.5000 Du        
   5093 ****        21.2500  -4.0000 -14.2500 Du        
   5094 ****        21.2500  -4.0000 -14.0000 Du        
   5095 ****        21.2500  -4.0000 -13.7500 Du        
   5096 ****        21.2500  -4.0000 -13.5000 Du        
   5097 ****        21.2500  -4.0000 -13.2500 Du        
   5098 ****        21.2500  -4.0000 -13.0000 Du        
   5099 ****        21.2500  -4.0000 -12.7500 Du        
   5100 ****        21.2500  -4.0000 -12.5000 Du        
   5101 ****        21.2500  -3.7500 -14.5000 Du        
   5102 ****        21.2500  -3.7500 -14.2500 Du        
   5103 ****        21.2500  -3.7500 -14.0000 Du        
   5104 ****        21.2500  -3.7500 -13.7500 Du        
   5105 ****        21.2500  -3.7500 -13.5000 Du        
   5106 ****        21.2500  -3.7500 -13.2500 Du        
   5107 ****        21.2500  -3.7500 -13.0000 Du        
   5108 ****        21.2500  -3.7500 -12.7500 Du        
   5109 ****        21.2500  -3.7500 -12.5000 Du        
   5110 ****        21.2500  -3.5000 -14.2500 Du        
   5111 ****        21.2500  -3.5000 -14.0000 Du        
   5112 ****        21.2500  -3.5000 -13.7500 Du        
   5113 ****        21.2500  -3.5000 -13.5000 Du        
   5114 ****        21.2500  -3.5000 -13.2500 Du        
   5115 ****        21.2500  -3.5000 -13.0000 Du        
   5116 ****        21.2500  -3.5000 -12.7500 Du        
   5117 ****        21.2500  -3.2500 -14.2500 Du        
   5118 ****        21.2500  -3.2500 -14.0000 Du        
   5119 ****        21.2500  -3.2500 -13.7500 Du        
   5120 ****        21.2500  -3.2500 -13.5000 Du        
   5121 ****        21.2500  -3.2500 -13.2500 Du        
   5122 ****        21.2500  -3.2500 -13.0000 Du        
   5123 ****        21.2500  -3.0000 -14.2500 Du        
   5124 ****        21.2500  -3.0000 -14.0000 Du        
   5125 ****        21.2500  -3.0000 -13.7500 Du        
   5126 ****        21.2500  -3.0000 -13.5000 Du        
   5127 ****        21.2500  -3.0000 -13.2500 Du        
   5128 ****        21.2500  -2.7500 -14.0000 Du        
   5129 ****        21.2500  -2.7500 -13.7500 Du        
   5130 ****        21.2500  -2.7500 -13.5000 Du        
   5131 ****        21.2500  -1.2500  -5.5000 Du        
   5132 ****        21.2500  -1.2500  -5.2500 Du        
   5133 ****        21.2500  -1.2500  -5.0000 Du        
   5134 ****        21.2500  -1.2500  -4.7500 Du        
   5135 ****        21.2500  -1.2500  -4.5000 Du        
   5136 ****        21.2500  -1.0000  -5.5000 Du        
   5137 ****        21.2500  -1.0000  -5.2500 Du        
   5138 ****        21.2500  -1.0000  -5.0000 Du        
   5139 ****        21.2500  -1.0000  -4.7500 Du        
   5140 ****        21.2500  -1.0000  -4.5000 Du        
   5141 ****        21.2500  -1.0000  -4.2500 Du        
   5142 ****        21.5000 -12.0000 -15.0000 Du        
   5143 ****        21.5000 -11.7500 -15.0000 Du        
   5144 ****        21.5000 -11.7500 -14.7500 Du        
   5145 ****        21.5000 -11.5000 -15.0000 Du        
   5146 ****        21.5000 -11.5000 -14.7500 Du        
   5147 ****        21.5000 -11.5000 -14.5000 Du        
   5148 ****        21.5000 -10.5000 -12.0000 Du        
   5149 ****        21.5000 -10.5000 -11.5000 Du        
   5150 ****        21.5000 -10.5000 -11.2500 Du        
   5151 ****        21.5000 -10.5000 -11.0000 Du        
   5152 ****        21.5000 -10.2500 -12.0000 Du        
   5153 ****        21.5000 -10.2500 -11.7500 Du        
   5154 ****        21.5000 -10.2500 -11.5000 Du        
   5155 ****        21.5000 -10.2500 -11.2500 Du        
   5156 ****        21.5000 -10.2500 -11.0000 Du        
   5157 ****        21.5000 -10.2500 -10.7500 Du        
   5158 ****        21.5000 -10.0000 -12.0000 Du        
   5159 ****        21.5000 -10.0000 -11.7500 Du        
   5160 ****        21.5000 -10.0000 -11.5000 Du        
   5161 ****        21.5000 -10.0000 -11.2500 Du        
   5162 ****        21.5000 -10.0000 -11.0000 Du        
   5163 ****        21.5000 -10.0000 -10.7500 Du        
   5164 ****        21.5000 -10.0000 -10.5000 Du        
   5165 ****        21.5000  -9.7500 -11.7500 Du        
   5166 ****        21.5000  -9.7500 -11.5000 Du        
   5167 ****        21.5000  -9.7500 -11.2500 Du        
   5168 ****        21.5000  -9.7500 -11.0000 Du        
   5169 ****        21.5000  -9.7500 -10.7500 Du        
   5170 ****        21.5000  -9.7500 -10.5000 Du        
   5171 ****        21.5000  -9.5000 -11.2500 Du        
   5172 ****        21.5000  -9.5000 -11.0000 Du        
   5173 ****        21.5000  -9.5000 -10.7500 Du        
   5174 ****        21.5000  -9.5000 -10.5000 Du        
   5175 ****        21.5000  -9.2500 -11.0000 Du        
   5176 ****        21.5000  -9.2500 -10.7500 Du        
   5177 ****        21.5000  -9.2500 -10.5000 Du        
   5178 ****        21.5000  -9.2500 -10.2500 Du        
   5179 ****        21.5000  -9.0000 -10.7500 Du        
   5180 ****        21.5000  -9.0000 -10.5000 Du        
   5181 ****        21.5000  -9.0000 -10.2500 Du        
   5182 ****        21.5000  -9.0000 -10.0000 Du        
   5183 ****        21.5000  -8.7500 -10.0000 Du        
   5184 ****        21.5000  -4.5000 -14.0000 Du        
   5185 ****        21.5000  -4.5000 -13.7500 Du        
   5186 ****        21.5000  -4.5000 -13.5000 Du        
   5187 ****        21.5000  -4.5000 -13.2500 Du        
   5188 ****        21.5000  -4.5000 -13.0000 Du        
   5189 ****        21.5000  -4.5000 -12.7500 Du        
   5190 ****        21.5000  -4.2500 -14.2500 Du        
   5191 ****        21.5000  -4.2500 -14.0000 Du        
   5192 ****        21.5000  -4.2500 -13.7500 Du        
   5193 ****        21.5000  -4.2500 -13.5000 Du        
   5194 ****        21.5000  -4.2500 -13.2500 Du        
   5195 ****        21.5000  -4.2500 -13.0000 Du        
   5196 ****        21.5000  -4.2500 -12.7500 Du        
   5197 ****        21.5000  -4.2500 -12.5000 Du        
   5198 ****        21.5000  -4.0000 -14.5000 Du        
   5199 ****        21.5000  -4.0000 -14.2500 Du        
   5200 ****        21.5000  -4.0000 -14.0000 Du        
   5201 ****        21.5000  -4.0000 -13.7500 Du        
   5202 ****        21.5000  -4.0000 -13.5000 Du        
   5203 ****        21.5000  -4.0000 -13.2500 Du        
   5204 ****        21.5000  -4.0000 -13.0000 Du        
   5205 ****        21.5000  -4.0000 -12.7500 Du        
   5206 ****        21.5000  -4.0000 -12.5000 Du        
   5207 ****        21.5000  -3.7500 -14.5000 Du        
   5208 ****        21.5000  -3.7500 -14.2500 Du        
   5209 ****        21.5000  -3.7500 -14.0000 Du        
   5210 ****        21.5000  -3.7500 -13.7500 Du        
   5211 ****        21.5000  -3.7500 -13.5000 Du        
   5212 ****        21.5000  -3.7500 -13.2500 Du        
   5213 ****        21.5000  -3.7500 -13.0000 Du        
   5214 ****        21.5000  -3.7500 -12.7500 Du        
   5215 ****        21.5000  -3.7500 -12.5000 Du        
   5216 ****        21.5000  -3.5000 -14.5000 Du        
   5217 ****        21.5000  -3.5000 -14.2500 Du        
   5218 ****        21.5000  -3.5000 -14.0000 Du        
   5219 ****        21.5000  -3.5000 -13.7500 Du        
   5220 ****        21.5000  -3.5000 -13.5000 Du        
   5221 ****        21.5000  -3.5000 -13.2500 Du        
   5222 ****        21.5000  -3.5000 -13.0000 Du        
   5223 ****        21.5000  -3.5000 -12.7500 Du        
   5224 ****        21.5000  -3.2500 -14.5000 Du        
   5225 ****        21.5000  -3.2500 -14.2500 Du        
   5226 ****        21.5000  -3.2500 -14.0000 Du        
   5227 ****        21.5000  -3.2500 -13.7500 Du        
   5228 ****        21.5000  -3.2500 -13.5000 Du        
   5229 ****        21.5000  -3.2500 -13.2500 Du        
   5230 ****        21.5000  -3.2500 -13.0000 Du        
   5231 ****        21.5000  -3.0000 -14.2500 Du        
   5232 ****        21.5000  -3.0000 -14.0000 Du        
   5233 ****        21.5000  -3.0000 -13.7500 Du        
   5234 ****        21.5000  -3.0000 -13.5000 Du        
   5235 ****        21.5000  -3.0000 -13.2500 Du        
   5236 ****        21.5000  -3.0000 -13.0000 Du        
   5237 ****        21.5000  -2.7500 -14.2500 Du        
   5238 ****        21.5000  -2.7500 -14.0000 Du        
   5239 ****        21.5000  -2.7500 -13.7500 Du        
   5240 ****        21.5000  -2.7500 -13.5000 Du        
   5241 ****        21.5000  -2.5000 -14.0000 Du        
   5242 ****        21.5000  -2.5000 -13.7500 Du        
   5243 ****        21.7500 -12.0000 -15.0000 Du        
   5244 ****        21.7500 -12.0000 -14.7500 Du        
   5245 ****        21.7500 -11.7500 -15.0000 Du        
   5246 ****        21.7500 -11.7500 -14.7500 Du        
   5247 ****        21.7500 -11.7500 -14.5000 Du        
   5248 ****        21.7500 -11.5000 -15.0000 Du        
   5249 ****        21.7500 -11.5000 -14.7500 Du        
   5250 ****        21.7500 -11.5000 -14.5000 Du        
   5251 ****        21.7500 -11.5000 -14.2500 Du        
   5252 ****        21.7500 -11.2500 -15.0000 Du        
   5253 ****        21.7500 -11.2500 -14.7500 Du        
   5254 ****        21.7500 -11.2500 -14.5000 Du        
   5255 ****        21.7500 -11.2500 -14.2500 Du        
   5256 ****        21.7500 -11.2500 -14.0000 Du        
   5257 ****        21.7500 -10.5000 -12.2500 Du        
   5258 ****        21.7500 -10.5000 -12.0000 Du        
   5259 ****        21.7500 -10.5000 -11.7500 Du        
   5260 ****        21.7500 -10.5000 -11.5000 Du        
   5261 ****        21.7500 -10.5000 -11.2500 Du        
   5262 ****        21.7500 -10.5000 -11.0000 Du        
   5263 ****        21.7500 -10.2500 -12.2500 Du        
   5264 ****        21.7500 -10.2500 -12.0000 Du        
   5265 ****        21.7500 -10.2500 -11.7500 Du        
   5266 ****        21.7500 -10.2500 -11.5000 Du        
   5267 ****        21.7500 -10.2500 -11.2500 Du        
   5268 ****        21.7500 -10.2500 -11.0000 Du        
   5269 ****        21.7500 -10.2500 -10.7500 Du        
   5270 ****        21.7500 -10.0000 -12.0000 Du        
   5271 ****        21.7500 -10.0000 -11.7500 Du        
   5272 ****        21.7500 -10.0000 -11.5000 Du        
   5273 ****        21.7500 -10.0000 -11.2500 Du        
   5274 ****        21.7500 -10.0000 -11.0000 Du        
   5275 ****        21.7500 -10.0000 -10.7500 Du        
   5276 ****        21.7500 -10.0000 -10.5000 Du        
   5277 ****        21.7500  -9.7500 -12.0000 Du        
   5278 ****        21.7500  -9.7500 -11.7500 Du        
   5279 ****        21.7500  -9.7500 -11.5000 Du        
   5280 ****        21.7500  -9.7500 -11.2500 Du        
   5281 ****        21.7500  -9.7500 -11.0000 Du        
   5282 ****        21.7500  -9.7500 -10.7500 Du        
   5283 ****        21.7500  -9.7500 -10.5000 Du        
   5284 ****        21.7500  -9.5000 -11.5000 Du        
   5285 ****        21.7500  -9.5000 -11.2500 Du        
   5286 ****        21.7500  -9.5000 -11.0000 Du        
   5287 ****        21.7500  -9.5000 -10.7500 Du        
   5288 ****        21.7500  -9.5000 -10.5000 Du        
   5289 ****        21.7500  -9.5000  -3.5000 Du        
   5290 ****        21.7500  -9.2500 -11.2500 Du        
   5291 ****        21.7500  -9.2500 -11.0000 Du        
   5292 ****        21.7500  -9.2500 -10.7500 Du        
   5293 ****        21.7500  -9.2500 -10.5000 Du        
   5294 ****        21.7500  -9.2500 -10.2500 Du        
   5295 ****        21.7500  -9.2500  -4.5000 Du        
   5296 ****        21.7500  -9.2500  -4.2500 Du        
   5297 ****        21.7500  -9.2500  -4.0000 Du        
   5298 ****        21.7500  -9.2500  -3.7500 Du        
   5299 ****        21.7500  -9.2500  -3.5000 Du        
   5300 ****        21.7500  -9.2500  -3.2500 Du        
   5301 ****        21.7500  -9.0000 -10.7500 Du        
   5302 ****        21.7500  -9.0000 -10.5000 Du        
   5303 ****        21.7500  -9.0000 -10.2500 Du        
   5304 ****        21.7500  -9.0000  -5.0000 Du        
   5305 ****        21.7500  -9.0000  -4.7500 Du        
   5306 ****        21.7500  -9.0000  -4.5000 Du        
   5307 ****        21.7500  -9.0000  -4.2500 Du        
   5308 ****        21.7500  -9.0000  -4.0000 Du        
   5309 ****        21.7500  -9.0000  -3.7500 Du        
   5310 ****        21.7500  -9.0000  -3.5000 Du        
   5311 ****        21.7500  -9.0000  -3.2500 Du        
   5312 ****        21.7500  -8.7500  -5.2500 Du        
   5313 ****        21.7500  -8.7500  -5.0000 Du        
   5314 ****        21.7500  -8.7500  -4.7500 Du        
   5315 ****        21.7500  -8.7500  -4.5000 Du        
   5316 ****        21.7500  -8.7500  -4.2500 Du        
   5317 ****        21.7500  -8.7500  -4.0000 Du        
   5318 ****        21.7500  -8.7500  -3.7500 Du        
   5319 ****        21.7500  -8.7500  -3.5000 Du        
   5320 ****        21.7500  -8.7500  -3.2500 Du        
   5321 ****        21.7500  -8.5000  -5.5000 Du        
   5322 ****        21.7500  -8.5000  -5.2500 Du        
   5323 ****        21.7500  -8.5000  -5.0000 Du        
   5324 ****        21.7500  -8.5000  -4.7500 Du        
   5325 ****        21.7500  -8.5000  -4.5000 Du        
   5326 ****        21.7500  -8.5000  -4.2500 Du        
   5327 ****        21.7500  -8.5000  -4.0000 Du        
   5328 ****        21.7500  -8.5000  -3.7500 Du        
   5329 ****        21.7500  -8.5000  -3.5000 Du        
   5330 ****        21.7500  -8.2500  -5.5000 Du        
   5331 ****        21.7500  -8.2500  -5.2500 Du        
   5332 ****        21.7500  -8.2500  -5.0000 Du        
   5333 ****        21.7500  -8.2500  -4.7500 Du        
   5334 ****        21.7500  -8.2500  -4.5000 Du        
   5335 ****        21.7500  -8.2500  -4.2500 Du        
   5336 ****        21.7500  -8.2500  -4.0000 Du        
   5337 ****        21.7500  -4.5000 -14.2500 Du        
   5338 ****        21.7500  -4.5000 -14.0000 Du        
   5339 ****        21.7500  -4.5000 -13.7500 Du        
   5340 ****        21.7500  -4.5000 -13.5000 Du        
   5341 ****        21.7500  -4.5000 -13.2500 Du        
   5342 ****        21.7500  -4.5000 -13.0000 Du        
   5343 ****        21.7500  -4.2500 -14.5000 Du        
   5344 ****        21.7500  -4.2500 -14.2500 Du        
   5345 ****        21.7500  -4.2500 -14.0000 Du        
   5346 ****        21.7500  -4.2500 -13.7500 Du        
   5347 ****        21.7500  -4.2500 -13.5000 Du        
   5348 ****        21.7500  -4.2500 -13.2500 Du        
   5349 ****        21.7500  -4.2500 -13.0000 Du        
   5350 ****        21.7500  -4.2500 -12.7500 Du        
   5351 ****        21.7500  -4.0000 -14.5000 Du        
   5352 ****        21.7500  -4.0000 -14.2500 Du        
   5353 ****        21.7500  -4.0000 -14.0000 Du        
   5354 ****        21.7500  -4.0000 -13.7500 Du        
   5355 ****        21.7500  -4.0000 -13.5000 Du        
   5356 ****        21.7500  -4.0000 -13.2500 Du        
   5357 ****        21.7500  -4.0000 -13.0000 Du        
   5358 ****        21.7500  -4.0000 -12.7500 Du        
   5359 ****        21.7500  -4.0000 -12.5000 Du        
   5360 ****        21.7500  -3.7500 -14.5000 Du        
   5361 ****        21.7500  -3.7500 -14.2500 Du        
   5362 ****        21.7500  -3.7500 -14.0000 Du        
   5363 ****        21.7500  -3.7500 -13.7500 Du        
   5364 ****        21.7500  -3.7500 -13.5000 Du        
   5365 ****        21.7500  -3.7500 -13.2500 Du        
   5366 ****        21.7500  -3.7500 -13.0000 Du        
   5367 ****        21.7500  -3.7500 -12.7500 Du        
   5368 ****        21.7500  -3.7500 -12.5000 Du        
   5369 ****        21.7500  -3.5000 -14.5000 Du        
   5370 ****        21.7500  -3.5000 -14.2500 Du        
   5371 ****        21.7500  -3.5000 -14.0000 Du        
   5372 ****        21.7500  -3.5000 -13.7500 Du        
   5373 ****        21.7500  -3.5000 -13.5000 Du        
   5374 ****        21.7500  -3.5000 -13.2500 Du        
   5375 ****        21.7500  -3.5000 -13.0000 Du        
   5376 ****        21.7500  -3.5000 -12.7500 Du        
   5377 ****        21.7500  -3.2500 -14.5000 Du        
   5378 ****        21.7500  -3.2500 -14.2500 Du        
   5379 ****        21.7500  -3.2500 -14.0000 Du        
   5380 ****        21.7500  -3.2500 -13.7500 Du        
   5381 ****        21.7500  -3.2500 -13.5000 Du        
   5382 ****        21.7500  -3.2500 -13.2500 Du        
   5383 ****        21.7500  -3.2500 -13.0000 Du        
   5384 ****        21.7500  -3.2500 -12.7500 Du        
   5385 ****        21.7500  -3.0000 -14.5000 Du        
   5386 ****        21.7500  -3.0000 -14.2500 Du        
   5387 ****        21.7500  -3.0000 -14.0000 Du        
   5388 ****        21.7500  -3.0000 -13.7500 Du        
   5389 ****        21.7500  -3.0000 -13.5000 Du        
   5390 ****        21.7500  -3.0000 -13.2500 Du        
   5391 ****        21.7500  -3.0000 -13.0000 Du        
   5392 ****        21.7500  -2.7500 -14.5000 Du        
   5393 ****        21.7500  -2.7500 -14.2500 Du        
   5394 ****        21.7500  -2.7500 -14.0000 Du        
   5395 ****        21.7500  -2.7500 -13.7500 Du        
   5396 ****        21.7500  -2.7500 -13.5000 Du        
   5397 ****        21.7500  -2.7500 -13.2500 Du        
   5398 ****        21.7500  -2.5000 -14.2500 Du        
   5399 ****        21.7500  -2.5000 -14.0000 Du        
   5400 ****        21.7500  -2.5000 -13.7500 Du        
   5401 ****        21.7500  -2.2500 -14.2500 Du        
   5402 ****        21.7500  -2.2500 -14.0000 Du        
   5403 ****        21.7500  -2.2500 -13.7500 Du        
   5404 ****        22.0000 -12.2500 -15.0000 Du        
   5405 ****        22.0000 -12.0000 -15.0000 Du        
   5406 ****        22.0000 -12.0000 -14.7500 Du        
   5407 ****        22.0000 -11.7500 -15.0000 Du        
   5408 ****        22.0000 -11.7500 -14.7500 Du        
   5409 ****        22.0000 -11.7500 -14.5000 Du        
   5410 ****        22.0000 -11.5000 -15.0000 Du        
   5411 ****        22.0000 -11.5000 -14.7500 Du        
   5412 ****        22.0000 -11.5000 -14.5000 Du        
   5413 ****        22.0000 -11.5000 -14.2500 Du        
   5414 ****        22.0000 -11.5000 -14.0000 Du        
   5415 ****        22.0000 -11.2500 -15.0000 Du        
   5416 ****        22.0000 -11.2500 -14.7500 Du        
   5417 ****        22.0000 -11.2500 -14.5000 Du        
   5418 ****        22.0000 -11.2500 -14.2500 Du        
   5419 ****        22.0000 -11.2500 -14.0000 Du        
   5420 ****        22.0000 -11.2500 -13.7500 Du        
   5421 ****        22.0000 -11.2500  -2.2500 Du        
   5422 ****        22.0000 -11.0000 -14.0000 Du        
   5423 ****        22.0000 -11.0000 -13.7500 Du        
   5424 ****        22.0000 -11.0000 -13.5000 Du        
   5425 ****        22.0000 -11.0000 -13.2500 Du        
   5426 ****        22.0000 -11.0000  -2.2500 Du        
   5427 ****        22.0000 -10.7500 -13.2500 Du        
   5428 ****        22.0000 -10.7500 -13.0000 Du        
   5429 ****        22.0000 -10.7500 -12.7500 Du        
   5430 ****        22.0000 -10.7500  -2.2500 Du        
   5431 ****        22.0000 -10.5000 -12.7500 Du        
   5432 ****        22.0000 -10.5000 -12.5000 Du        
   5433 ****        22.0000 -10.5000 -12.2500 Du        
   5434 ****        22.0000 -10.5000 -12.0000 Du        
   5435 ****        22.0000 -10.5000 -11.7500 Du        
   5436 ****        22.0000 -10.5000 -11.5000 Du        
   5437 ****        22.0000 -10.5000 -11.2500 Du        
   5438 ****        22.0000 -10.5000 -11.0000 Du        
   5439 ****        22.0000 -10.2500 -12.5000 Du        
   5440 ****        22.0000 -10.2500 -12.2500 Du        
   5441 ****        22.0000 -10.2500 -12.0000 Du        
   5442 ****        22.0000 -10.2500 -11.7500 Du        
   5443 ****        22.0000 -10.2500 -11.5000 Du        
   5444 ****        22.0000 -10.2500 -11.2500 Du        
   5445 ****        22.0000 -10.2500 -11.0000 Du        
   5446 ****        22.0000 -10.2500 -10.7500 Du        
   5447 ****        22.0000 -10.0000 -12.2500 Du        
   5448 ****        22.0000 -10.0000 -12.0000 Du        
   5449 ****        22.0000 -10.0000 -11.7500 Du        
   5450 ****        22.0000 -10.0000 -11.5000 Du        
   5451 ****        22.0000 -10.0000 -11.2500 Du        
   5452 ****        22.0000 -10.0000 -11.0000 Du        
   5453 ****        22.0000 -10.0000 -10.7500 Du        
   5454 ****        22.0000 -10.0000  -3.5000 Du        
   5455 ****        22.0000 -10.0000  -3.2500 Du        
   5456 ****        22.0000 -10.0000  -3.0000 Du        
   5457 ****        22.0000  -9.7500 -12.0000 Du        
   5458 ****        22.0000  -9.7500 -11.7500 Du        
   5459 ****        22.0000  -9.7500 -11.5000 Du        
   5460 ****        22.0000  -9.7500 -11.2500 Du        
   5461 ****        22.0000  -9.7500 -11.0000 Du        
   5462 ****        22.0000  -9.7500 -10.7500 Du        
   5463 ****        22.0000  -9.7500 -10.5000 Du        
   5464 ****        22.0000  -9.7500  -4.2500 Du        
   5465 ****        22.0000  -9.7500  -4.0000 Du        
   5466 ****        22.0000  -9.7500  -3.7500 Du        
   5467 ****        22.0000  -9.7500  -3.5000 Du        
   5468 ****        22.0000  -9.7500  -3.2500 Du        
   5469 ****        22.0000  -9.7500  -3.0000 Du        
   5470 ****        22.0000  -9.5000 -11.5000 Du        
   5471 ****        22.0000  -9.5000 -11.2500 Du        
   5472 ****        22.0000  -9.5000 -11.0000 Du        
   5473 ****        22.0000  -9.5000 -10.7500 Du        
   5474 ****        22.0000  -9.5000  -4.5000 Du        
   5475 ****        22.0000  -9.5000  -4.2500 Du        
   5476 ****        22.0000  -9.5000  -4.0000 Du        
   5477 ****        22.0000  -9.5000  -3.7500 Du        
   5478 ****        22.0000  -9.5000  -3.5000 Du        
   5479 ****        22.0000  -9.5000  -3.2500 Du        
   5480 ****        22.0000  -9.5000  -3.0000 Du        
   5481 ****        22.0000  -9.2500 -11.2500 Du        
   5482 ****        22.0000  -9.2500 -11.0000 Du        
   5483 ****        22.0000  -9.2500 -10.7500 Du        
   5484 ****        22.0000  -9.2500  -5.0000 Du        
   5485 ****        22.0000  -9.2500  -4.7500 Du        
   5486 ****        22.0000  -9.2500  -4.5000 Du        
   5487 ****        22.0000  -9.2500  -4.2500 Du        
   5488 ****        22.0000  -9.2500  -4.0000 Du        
   5489 ****        22.0000  -9.2500  -3.7500 Du        
   5490 ****        22.0000  -9.2500  -3.5000 Du        
   5491 ****        22.0000  -9.2500  -3.2500 Du        
   5492 ****        22.0000  -9.2500  -3.0000 Du        
   5493 ****        22.0000  -9.0000  -5.2500 Du        
   5494 ****        22.0000  -9.0000  -5.0000 Du        
   5495 ****        22.0000  -9.0000  -4.7500 Du        
   5496 ****        22.0000  -9.0000  -4.5000 Du        
   5497 ****        22.0000  -9.0000  -4.2500 Du        
   5498 ****        22.0000  -9.0000  -4.0000 Du        
   5499 ****        22.0000  -9.0000  -3.7500 Du        
   5500 ****        22.0000  -9.0000  -3.5000 Du        
   5501 ****        22.0000  -9.0000  -3.2500 Du        
   5502 ****        22.0000  -9.0000  -3.0000 Du        
   5503 ****        22.0000  -8.7500  -5.5000 Du        
   5504 ****        22.0000  -8.7500  -5.2500 Du        
   5505 ****        22.0000  -8.7500  -5.0000 Du        
   5506 ****        22.0000  -8.7500  -4.7500 Du        
   5507 ****        22.0000  -8.7500  -4.5000 Du        
   5508 ****        22.0000  -8.7500  -4.2500 Du        
   5509 ****        22.0000  -8.7500  -4.0000 Du        
   5510 ****        22.0000  -8.7500  -3.7500 Du        
   5511 ****        22.0000  -8.7500  -3.5000 Du        
   5512 ****        22.0000  -8.7500  -3.2500 Du        
   5513 ****        22.0000  -8.5000  -5.5000 Du        
   5514 ****        22.0000  -8.5000  -5.2500 Du        
   5515 ****        22.0000  -8.5000  -5.0000 Du        
   5516 ****        22.0000  -8.5000  -4.7500 Du        
   5517 ****        22.0000  -8.5000  -4.5000 Du        
   5518 ****        22.0000  -8.5000  -4.2500 Du        
   5519 ****        22.0000  -8.5000  -4.0000 Du        
   5520 ****        22.0000  -8.5000  -3.7500 Du        
   5521 ****        22.0000  -8.5000  -3.5000 Du        
   5522 ****        22.0000  -8.5000  -3.2500 Du        
   5523 ****        22.0000  -8.2500  -5.5000 Du        
   5524 ****        22.0000  -8.2500  -5.2500 Du        
   5525 ****        22.0000  -8.2500  -5.0000 Du        
   5526 ****        22.0000  -8.2500  -4.7500 Du        
   5527 ****        22.0000  -8.2500  -4.5000 Du        
   5528 ****        22.0000  -8.2500  -4.2500 Du        
   5529 ****        22.0000  -8.2500  -4.0000 Du        
   5530 ****        22.0000  -8.2500  -3.7500 Du        
   5531 ****        22.0000  -8.2500  -3.5000 Du        
   5532 ****        22.0000  -8.0000  -5.5000 Du        
   5533 ****        22.0000  -8.0000  -5.2500 Du        
   5534 ****        22.0000  -8.0000  -5.0000 Du        
   5535 ****        22.0000  -8.0000  -4.7500 Du        
   5536 ****        22.0000  -8.0000  -4.5000 Du        
   5537 ****        22.0000  -8.0000  -4.2500 Du        
   5538 ****        22.0000  -8.0000  -4.0000 Du        
   5539 ****        22.0000  -8.0000  -3.7500 Du        
   5540 ****        22.0000  -7.7500  -5.0000 Du        
   5541 ****        22.0000  -7.7500  -4.7500 Du        
   5542 ****        22.0000  -7.7500  -4.5000 Du        
   5543 ****        22.0000  -7.7500  -4.2500 Du        
   5544 ****        22.0000  -7.7500  -4.0000 Du        
   5545 ****        22.0000  -4.7500 -13.7500 Du        
   5546 ****        22.0000  -4.7500 -13.5000 Du        
   5547 ****        22.0000  -4.7500 -13.2500 Du        
   5548 ****        22.0000  -4.5000 -14.2500 Du        
   5549 ****        22.0000  -4.5000 -14.0000 Du        
   5550 ****        22.0000  -4.5000 -13.7500 Du        
   5551 ****        22.0000  -4.5000 -13.5000 Du        
   5552 ****        22.0000  -4.5000 -13.2500 Du        
   5553 ****        22.0000  -4.5000 -13.0000 Du        
   5554 ****        22.0000  -4.2500 -14.5000 Du        
   5555 ****        22.0000  -4.2500 -14.2500 Du        
   5556 ****        22.0000  -4.2500 -14.0000 Du        
   5557 ****        22.0000  -4.2500 -13.7500 Du        
   5558 ****        22.0000  -4.2500 -13.5000 Du        
   5559 ****        22.0000  -4.2500 -13.2500 Du        
   5560 ****        22.0000  -4.2500 -13.0000 Du        
   5561 ****        22.0000  -4.0000 -14.5000 Du        
   5562 ****        22.0000  -4.0000 -14.2500 Du        
   5563 ****        22.0000  -4.0000 -14.0000 Du        
   5564 ****        22.0000  -4.0000 -13.7500 Du        
   5565 ****        22.0000  -4.0000 -13.5000 Du        
   5566 ****        22.0000  -4.0000 -13.2500 Du        
   5567 ****        22.0000  -4.0000 -13.0000 Du        
   5568 ****        22.0000  -4.0000 -12.7500 Du        
   5569 ****        22.0000  -3.7500 -14.5000 Du        
   5570 ****        22.0000  -3.7500 -14.2500 Du        
   5571 ****        22.0000  -3.7500 -14.0000 Du        
   5572 ****        22.0000  -3.7500 -13.7500 Du        
   5573 ****        22.0000  -3.7500 -13.5000 Du        
   5574 ****        22.0000  -3.7500 -13.2500 Du        
   5575 ****        22.0000  -3.7500 -13.0000 Du        
   5576 ****        22.0000  -3.7500 -12.7500 Du        
   5577 ****        22.0000  -3.5000 -14.5000 Du        
   5578 ****        22.0000  -3.5000 -14.2500 Du        
   5579 ****        22.0000  -3.5000 -14.0000 Du        
   5580 ****        22.0000  -3.5000 -13.7500 Du        
   5581 ****        22.0000  -3.5000 -13.5000 Du        
   5582 ****        22.0000  -3.5000 -13.2500 Du        
   5583 ****        22.0000  -3.5000 -13.0000 Du        
   5584 ****        22.0000  -3.5000 -12.7500 Du        
   5585 ****        22.0000  -3.2500 -14.5000 Du        
   5586 ****        22.0000  -3.2500 -14.2500 Du        
   5587 ****        22.0000  -3.2500 -14.0000 Du        
   5588 ****        22.0000  -3.2500 -13.7500 Du        
   5589 ****        22.0000  -3.2500 -13.5000 Du        
   5590 ****        22.0000  -3.2500 -13.2500 Du        
   5591 ****        22.0000  -3.2500 -13.0000 Du        
   5592 ****        22.0000  -3.2500 -12.7500 Du        
   5593 ****        22.0000  -3.0000 -14.5000 Du        
   5594 ****        22.0000  -3.0000 -14.2500 Du        
   5595 ****        22.0000  -3.0000 -14.0000 Du        
   5596 ****        22.0000  -3.0000 -13.7500 Du        
   5597 ****        22.0000  -3.0000 -13.5000 Du        
   5598 ****        22.0000  -3.0000 -13.2500 Du        
   5599 ****        22.0000  -3.0000 -13.0000 Du        
   5600 ****        22.0000  -2.7500 -14.5000 Du        
   5601 ****        22.0000  -2.7500 -14.2500 Du        
   5602 ****        22.0000  -2.7500 -14.0000 Du        
   5603 ****        22.0000  -2.7500 -13.7500 Du        
   5604 ****        22.0000  -2.7500 -13.5000 Du        
   5605 ****        22.0000  -2.7500 -13.2500 Du        
   5606 ****        22.0000  -2.7500 -13.0000 Du        
   5607 ****        22.0000  -2.5000 -14.5000 Du        
   5608 ****        22.0000  -2.5000 -14.2500 Du        
   5609 ****        22.0000  -2.5000 -14.0000 Du        
   5610 ****        22.0000  -2.5000 -13.7500 Du        
   5611 ****        22.0000  -2.5000 -13.5000 Du        
   5612 ****        22.0000  -2.2500 -14.2500 Du        
   5613 ****        22.0000  -2.2500 -14.0000 Du        
   5614 ****        22.0000  -2.2500 -13.7500 Du        
   5615 ****        22.2500 -12.0000 -15.0000 Du        
   5616 ****        22.2500 -12.0000 -14.7500 Du        
   5617 ****        22.2500 -11.7500 -15.0000 Du        
   5618 ****        22.2500 -11.7500 -14.7500 Du        
   5619 ****        22.2500 -11.7500 -14.5000 Du        
   5620 ****        22.2500 -11.5000 -15.0000 Du        
   5621 ****        22.2500 -11.5000 -14.7500 Du        
   5622 ****        22.2500 -11.5000 -14.5000 Du        
   5623 ****        22.2500 -11.5000 -14.2500 Du        
   5624 ****        22.2500 -11.5000 -14.0000 Du        
   5625 ****        22.2500 -11.2500 -15.0000 Du        
   5626 ****        22.2500 -11.2500 -14.7500 Du        
   5627 ****        22.2500 -11.2500 -14.5000 Du        
   5628 ****        22.2500 -11.2500 -14.2500 Du        
   5629 ****        22.2500 -11.2500 -14.0000 Du        
   5630 ****        22.2500 -11.2500 -13.7500 Du        
   5631 ****        22.2500 -11.2500 -13.5000 Du        
   5632 ****        22.2500 -11.0000 -14.2500 Du        
   5633 ****        22.2500 -11.0000 -14.0000 Du        
   5634 ****        22.2500 -11.0000 -13.7500 Du        
   5635 ****        22.2500 -11.0000 -13.5000 Du        
   5636 ****        22.2500 -11.0000 -13.2500 Du        
   5637 ****        22.2500 -11.0000 -13.0000 Du        
   5638 ****        22.2500 -10.7500 -13.5000 Du        
   5639 ****        22.2500 -10.7500 -13.2500 Du        
   5640 ****        22.2500 -10.7500 -13.0000 Du        
   5641 ****        22.2500 -10.7500 -12.7500 Du        
   5642 ****        22.2500 -10.7500 -12.5000 Du        
   5643 ****        22.2500 -10.7500 -12.2500 Du        
   5644 ****        22.2500 -10.7500 -12.0000 Du        
   5645 ****        22.2500 -10.7500  -2.2500 Du        
   5646 ****        22.2500 -10.5000 -13.0000 Du        
   5647 ****        22.2500 -10.5000 -12.7500 Du        
   5648 ****        22.2500 -10.5000 -12.5000 Du        
   5649 ****        22.2500 -10.5000 -12.2500 Du        
   5650 ****        22.2500 -10.5000 -12.0000 Du        
   5651 ****        22.2500 -10.5000 -11.7500 Du        
   5652 ****        22.2500 -10.5000 -11.5000 Du        
   5653 ****        22.2500 -10.5000 -11.2500 Du        
   5654 ****        22.2500 -10.5000  -2.5000 Du        
   5655 ****        22.2500 -10.5000  -2.2500 Du        
   5656 ****        22.2500 -10.2500 -12.7500 Du        
   5657 ****        22.2500 -10.2500 -12.5000 Du        
   5658 ****        22.2500 -10.2500 -12.2500 Du        
   5659 ****        22.2500 -10.2500 -12.0000 Du        
   5660 ****        22.2500 -10.2500 -11.7500 Du        
   5661 ****        22.2500 -10.2500 -11.5000 Du        
   5662 ****        22.2500 -10.2500 -11.2500 Du        
   5663 ****        22.2500 -10.2500 -11.0000 Du        
   5664 ****        22.2500 -10.2500  -3.5000 Du        
   5665 ****        22.2500 -10.2500  -3.2500 Du        
   5666 ****        22.2500 -10.2500  -3.0000 Du        
   5667 ****        22.2500 -10.2500  -2.7500 Du        
   5668 ****        22.2500 -10.2500  -2.5000 Du        
   5669 ****        22.2500 -10.0000 -12.2500 Du        
   5670 ****        22.2500 -10.0000 -12.0000 Du        
   5671 ****        22.2500 -10.0000 -11.7500 Du        
   5672 ****        22.2500 -10.0000 -11.5000 Du        
   5673 ****        22.2500 -10.0000 -11.2500 Du        
   5674 ****        22.2500 -10.0000 -11.0000 Du        
   5675 ****        22.2500 -10.0000 -10.7500 Du        
   5676 ****        22.2500 -10.0000  -4.2500 Du        
   5677 ****        22.2500 -10.0000  -4.0000 Du        
   5678 ****        22.2500 -10.0000  -3.7500 Du        
   5679 ****        22.2500 -10.0000  -3.5000 Du        
   5680 ****        22.2500 -10.0000  -3.2500 Du        
   5681 ****        22.2500 -10.0000  -3.0000 Du        
   5682 ****        22.2500 -10.0000  -2.7500 Du        
   5683 ****        22.2500 -10.0000  -2.5000 Du        
   5684 ****        22.2500  -9.7500 -12.0000 Du        
   5685 ****        22.2500  -9.7500 -11.7500 Du        
   5686 ****        22.2500  -9.7500 -11.5000 Du        
   5687 ****        22.2500  -9.7500 -11.2500 Du        
   5688 ****        22.2500  -9.7500 -11.0000 Du        
   5689 ****        22.2500  -9.7500 -10.7500 Du        
   5690 ****        22.2500  -9.7500  -4.5000 Du        
   5691 ****        22.2500  -9.7500  -4.2500 Du        
   5692 ****        22.2500  -9.7500  -4.0000 Du        
   5693 ****        22.2500  -9.7500  -3.7500 Du        
   5694 ****        22.2500  -9.7500  -3.5000 Du        
   5695 ****        22.2500  -9.7500  -3.2500 Du        
   5696 ****        22.2500  -9.7500  -3.0000 Du        
   5697 ****        22.2500  -9.7500  -2.7500 Du        
   5698 ****        22.2500  -9.5000 -11.2500 Du        
   5699 ****        22.2500  -9.5000  -4.7500 Du        
   5700 ****        22.2500  -9.5000  -4.5000 Du        
   5701 ****        22.2500  -9.5000  -4.2500 Du        
   5702 ****        22.2500  -9.5000  -4.0000 Du        
   5703 ****        22.2500  -9.5000  -3.7500 Du        
   5704 ****        22.2500  -9.5000  -3.5000 Du        
   5705 ****        22.2500  -9.5000  -3.2500 Du        
   5706 ****        22.2500  -9.5000  -3.0000 Du        
   5707 ****        22.2500  -9.5000  -2.7500 Du        
   5708 ****        22.2500  -9.2500  -5.0000 Du        
   5709 ****        22.2500  -9.2500  -4.7500 Du        
   5710 ****        22.2500  -9.2500  -4.5000 Du        
   5711 ****        22.2500  -9.2500  -4.2500 Du        
   5712 ****        22.2500  -9.2500  -4.0000 Du        
   5713 ****        22.2500  -9.2500  -3.7500 Du        
   5714 ****        22.2500  -9.2500  -3.5000 Du        
   5715 ****        22.2500  -9.2500  -3.2500 Du        
   5716 ****        22.2500  -9.2500  -3.0000 Du        
   5717 ****        22.2500  -9.0000  -5.2500 Du        
   5718 ****        22.2500  -9.0000  -5.0000 Du        
   5719 ****        22.2500  -9.0000  -4.7500 Du        
   5720 ****        22.2500  -9.0000  -4.5000 Du        
   5721 ****        22.2500  -9.0000  -4.2500 Du        
   5722 ****        22.2500  -9.0000  -4.0000 Du        
   5723 ****        22.2500  -9.0000  -3.7500 Du        
   5724 ****        22.2500  -9.0000  -3.5000 Du        
   5725 ****        22.2500  -9.0000  -3.2500 Du        
   5726 ****        22.2500  -9.0000  -3.0000 Du        
   5727 ****        22.2500  -8.7500  -5.5000 Du        
   5728 ****        22.2500  -8.7500  -5.2500 Du        
   5729 ****        22.2500  -8.7500  -5.0000 Du        
   5730 ****        22.2500  -8.7500  -4.7500 Du        
   5731 ****        22.2500  -8.7500  -4.5000 Du        
   5732 ****        22.2500  -8.7500  -4.2500 Du        
   5733 ****        22.2500  -8.7500  -4.0000 Du        
   5734 ****        22.2500  -8.7500  -3.7500 Du        
   5735 ****        22.2500  -8.7500  -3.5000 Du        
   5736 ****        22.2500  -8.7500  -3.2500 Du        
   5737 ****        22.2500  -8.5000  -5.5000 Du        
   5738 ****        22.2500  -8.5000  -5.2500 Du        
   5739 ****        22.2500  -8.5000  -5.0000 Du        
   5740 ****        22.2500  -8.5000  -4.7500 Du        
   5741 ****        22.2500  -8.5000  -4.5000 Du        
   5742 ****        22.2500  -8.5000  -4.2500 Du        
   5743 ****        22.2500  -8.5000  -4.0000 Du        
   5744 ****        22.2500  -8.5000  -3.7500 Du        
   5745 ****        22.2500  -8.5000  -3.5000 Du        
   5746 ****        22.2500  -8.2500  -5.5000 Du        
   5747 ****        22.2500  -8.2500  -5.2500 Du        
   5748 ****        22.2500  -8.2500  -5.0000 Du        
   5749 ****        22.2500  -8.2500  -4.7500 Du        
   5750 ****        22.2500  -8.2500  -4.5000 Du        
   5751 ****        22.2500  -8.2500  -4.2500 Du        
   5752 ****        22.2500  -8.2500  -4.0000 Du        
   5753 ****        22.2500  -8.2500  -3.7500 Du        
   5754 ****        22.2500  -8.2500  -3.5000 Du        
   5755 ****        22.2500  -8.0000  -5.5000 Du        
   5756 ****        22.2500  -8.0000  -5.2500 Du        
   5757 ****        22.2500  -8.0000  -5.0000 Du        
   5758 ****        22.2500  -8.0000  -4.7500 Du        
   5759 ****        22.2500  -8.0000  -4.5000 Du        
   5760 ****        22.2500  -8.0000  -4.2500 Du        
   5761 ****        22.2500  -8.0000  -4.0000 Du        
   5762 ****        22.2500  -8.0000  -3.7500 Du        
   5763 ****        22.2500  -7.7500  -4.7500 Du        
   5764 ****        22.2500  -7.7500  -4.5000 Du        
   5765 ****        22.2500  -7.7500  -4.2500 Du        
   5766 ****        22.2500  -7.7500  -4.0000 Du        
   5767 ****        22.2500  -7.5000  -4.5000 Du        
   5768 ****        22.2500  -7.2500  -4.5000 Du        
   5769 ****        22.2500  -7.0000  -4.5000 Du        
   5770 ****        22.2500  -4.7500 -13.7500 Du        
   5771 ****        22.2500  -4.7500 -13.5000 Du        
   5772 ****        22.2500  -4.5000 -14.2500 Du        
   5773 ****        22.2500  -4.5000 -14.0000 Du        
   5774 ****        22.2500  -4.5000 -13.7500 Du        
   5775 ****        22.2500  -4.5000 -13.5000 Du        
   5776 ****        22.2500  -4.5000 -13.2500 Du        
   5777 ****        22.2500  -4.2500 -14.5000 Du        
   5778 ****        22.2500  -4.2500 -14.2500 Du        
   5779 ****        22.2500  -4.2500 -14.0000 Du        
   5780 ****        22.2500  -4.2500 -13.7500 Du        
   5781 ****        22.2500  -4.2500 -13.5000 Du        
   5782 ****        22.2500  -4.2500 -13.2500 Du        
   5783 ****        22.2500  -4.0000 -14.5000 Du        
   5784 ****        22.2500  -4.0000 -14.2500 Du        
   5785 ****        22.2500  -4.0000 -14.0000 Du        
   5786 ****        22.2500  -4.0000 -13.7500 Du        
   5787 ****        22.2500  -4.0000 -13.5000 Du        
   5788 ****        22.2500  -4.0000 -13.2500 Du        
   5789 ****        22.2500  -4.0000 -13.0000 Du        
   5790 ****        22.2500  -3.7500 -14.7500 Du        
   5791 ****        22.2500  -3.7500 -14.5000 Du        
   5792 ****        22.2500  -3.7500 -14.2500 Du        
   5793 ****        22.2500  -3.7500 -14.0000 Du        
   5794 ****        22.2500  -3.7500 -13.7500 Du        
   5795 ****        22.2500  -3.7500 -13.5000 Du        
   5796 ****        22.2500  -3.7500 -13.2500 Du        
   5797 ****        22.2500  -3.7500 -13.0000 Du        
   5798 ****        22.2500  -3.5000 -14.7500 Du        
   5799 ****        22.2500  -3.5000 -14.5000 Du        
   5800 ****        22.2500  -3.5000 -14.2500 Du        
   5801 ****        22.2500  -3.5000 -14.0000 Du        
   5802 ****        22.2500  -3.5000 -13.7500 Du        
   5803 ****        22.2500  -3.5000 -13.5000 Du        
   5804 ****        22.2500  -3.5000 -13.2500 Du        
   5805 ****        22.2500  -3.5000 -13.0000 Du        
   5806 ****        22.2500  -3.2500 -14.7500 Du        
   5807 ****        22.2500  -3.2500 -14.5000 Du        
   5808 ****        22.2500  -3.2500 -14.2500 Du        
   5809 ****        22.2500  -3.2500 -14.0000 Du        
   5810 ****        22.2500  -3.2500 -13.7500 Du        
   5811 ****        22.2500  -3.2500 -13.5000 Du        
   5812 ****        22.2500  -3.2500 -13.2500 Du        
   5813 ****        22.2500  -3.2500 -13.0000 Du        
   5814 ****        22.2500  -3.0000 -14.7500 Du        
   5815 ****        22.2500  -3.0000 -14.5000 Du        
   5816 ****        22.2500  -3.0000 -14.2500 Du        
   5817 ****        22.2500  -3.0000 -14.0000 Du        
   5818 ****        22.2500  -3.0000 -13.7500 Du        
   5819 ****        22.2500  -3.0000 -13.5000 Du        
   5820 ****        22.2500  -3.0000 -13.2500 Du        
   5821 ****        22.2500  -3.0000 -13.0000 Du        
   5822 ****        22.2500  -2.7500 -14.5000 Du        
   5823 ****        22.2500  -2.7500 -14.2500 Du        
   5824 ****        22.2500  -2.7500 -14.0000 Du        
   5825 ****        22.2500  -2.7500 -13.7500 Du        
   5826 ****        22.2500  -2.7500 -13.5000 Du        
   5827 ****        22.2500  -2.7500 -13.2500 Du        
   5828 ****        22.2500  -2.5000 -14.5000 Du        
   5829 ****        22.2500  -2.5000 -14.2500 Du        
   5830 ****        22.2500  -2.5000 -14.0000 Du        
   5831 ****        22.2500  -2.5000 -13.7500 Du        
   5832 ****        22.2500  -2.5000 -13.5000 Du        
   5833 ****        22.2500  -2.2500 -14.2500 Du        
   5834 ****        22.2500  -2.2500 -14.0000 Du        
   5835 ****        22.2500  -2.2500 -13.7500 Du        
   5836 ****        22.5000 -11.7500 -15.0000 Du        
   5837 ****        22.5000 -11.5000 -15.0000 Du        
   5838 ****        22.5000 -11.5000 -14.7500 Du        
   5839 ****        22.5000 -11.5000 -14.5000 Du        
   5840 ****        22.5000 -11.5000 -14.2500 Du        
   5841 ****        22.5000 -11.2500 -15.0000 Du        
   5842 ****        22.5000 -11.2500 -14.7500 Du        
   5843 ****        22.5000 -11.2500 -14.5000 Du        
   5844 ****        22.5000 -11.2500 -14.2500 Du        
   5845 ****        22.5000 -11.2500 -14.0000 Du        
   5846 ****        22.5000 -11.0000 -14.0000 Du        
   5847 ****        22.5000 -10.7500 -13.0000 Du        
   5848 ****        22.5000 -10.5000  -2.2500 Du        
   5849 ****        22.5000 -10.2500  -3.0000 Du        
   5850 ****        22.5000 -10.2500  -2.7500 Du        
   5851 ****        22.5000 -10.2500  -2.5000 Du        
   5852 ****        22.5000 -10.2500  -2.2500 Du        
   5853 ****        22.5000 -10.0000  -4.2500 Du        
   5854 ****        22.5000 -10.0000  -4.0000 Du        
   5855 ****        22.5000 -10.0000  -3.7500 Du        
   5856 ****        22.5000 -10.0000  -3.5000 Du        
   5857 ****        22.5000 -10.0000  -3.2500 Du        
   5858 ****        22.5000 -10.0000  -3.0000 Du        
   5859 ****        22.5000 -10.0000  -2.7500 Du        
   5860 ****        22.5000 -10.0000  -2.5000 Du        
   5861 ****        22.5000 -10.0000  -2.2500 Du        
   5862 ****        22.5000  -9.7500  -4.5000 Du        
   5863 ****        22.5000  -9.7500  -4.2500 Du        
   5864 ****        22.5000  -9.7500  -4.0000 Du        
   5865 ****        22.5000  -9.7500  -3.7500 Du        
   5866 ****        22.5000  -9.7500  -3.5000 Du        
   5867 ****        22.5000  -9.7500  -3.2500 Du        
   5868 ****        22.5000  -9.7500  -3.0000 Du        
   5869 ****        22.5000  -9.7500  -2.7500 Du        
   5870 ****        22.5000  -9.7500  -2.5000 Du        
   5871 ****        22.5000  -9.5000  -4.7500 Du        
   5872 ****        22.5000  -9.5000  -4.5000 Du        
   5873 ****        22.5000  -9.5000  -4.2500 Du        
   5874 ****        22.5000  -9.5000  -4.0000 Du        
   5875 ****        22.5000  -9.5000  -3.7500 Du        
   5876 ****        22.5000  -9.5000  -3.5000 Du        
   5877 ****        22.5000  -9.5000  -3.2500 Du        
   5878 ****        22.5000  -9.5000  -3.0000 Du        
   5879 ****        22.5000  -9.5000  -2.7500 Du        
   5880 ****        22.5000  -9.5000  -2.5000 Du        
   5881 ****        22.5000  -9.2500  -5.0000 Du        
   5882 ****        22.5000  -9.2500  -4.7500 Du        
   5883 ****        22.5000  -9.2500  -4.5000 Du        
   5884 ****        22.5000  -9.2500  -4.2500 Du        
   5885 ****        22.5000  -9.2500  -4.0000 Du        
   5886 ****        22.5000  -9.2500  -3.7500 Du        
   5887 ****        22.5000  -9.2500  -3.5000 Du        
   5888 ****        22.5000  -9.2500  -3.2500 Du        
   5889 ****        22.5000  -9.2500  -3.0000 Du        
   5890 ****        22.5000  -9.2500  -2.7500 Du        
   5891 ****        22.5000  -9.0000  -5.2500 Du        
   5892 ****        22.5000  -9.0000  -5.0000 Du        
   5893 ****        22.5000  -9.0000  -4.7500 Du        
   5894 ****        22.5000  -9.0000  -4.5000 Du        
   5895 ****        22.5000  -9.0000  -4.2500 Du        
   5896 ****        22.5000  -9.0000  -4.0000 Du        
   5897 ****        22.5000  -9.0000  -3.7500 Du        
   5898 ****        22.5000  -9.0000  -3.5000 Du        
   5899 ****        22.5000  -9.0000  -3.2500 Du        
   5900 ****        22.5000  -9.0000  -3.0000 Du        
   5901 ****        22.5000  -8.7500  -5.5000 Du        
   5902 ****        22.5000  -8.7500  -5.2500 Du        
   5903 ****        22.5000  -8.7500  -5.0000 Du        
   5904 ****        22.5000  -8.7500  -4.7500 Du        
   5905 ****        22.5000  -8.7500  -4.5000 Du        
   5906 ****        22.5000  -8.7500  -4.2500 Du        
   5907 ****        22.5000  -8.7500  -4.0000 Du        
   5908 ****        22.5000  -8.7500  -3.7500 Du        
   5909 ****        22.5000  -8.7500  -3.5000 Du        
   5910 ****        22.5000  -8.7500  -3.2500 Du        
   5911 ****        22.5000  -8.5000  -5.2500 Du        
   5912 ****        22.5000  -8.5000  -5.0000 Du        
   5913 ****        22.5000  -8.5000  -4.7500 Du        
   5914 ****        22.5000  -8.5000  -4.5000 Du        
   5915 ****        22.5000  -8.5000  -4.2500 Du        
   5916 ****        22.5000  -8.5000  -4.0000 Du        
   5917 ****        22.5000  -8.5000  -3.7500 Du        
   5918 ****        22.5000  -8.2500  -5.2500 Du        
   5919 ****        22.5000  -8.2500  -5.0000 Du        
   5920 ****        22.5000  -8.2500  -4.7500 Du        
   5921 ****        22.5000  -8.2500  -4.5000 Du        
   5922 ****        22.5000  -8.2500  -4.2500 Du        
   5923 ****        22.5000  -8.2500  -4.0000 Du        
   5924 ****        22.5000  -8.2500  -3.7500 Du        
   5925 ****        22.5000  -8.0000  -5.0000 Du        
   5926 ****        22.5000  -8.0000  -4.7500 Du        
   5927 ****        22.5000  -8.0000  -4.5000 Du        
   5928 ****        22.5000  -8.0000  -4.2500 Du        
   5929 ****        22.5000  -8.0000  -4.0000 Du        
   5930 ****        22.5000  -7.7500  -5.0000 Du        
   5931 ****        22.5000  -7.7500  -4.7500 Du        
   5932 ****        22.5000  -7.7500  -4.5000 Du        
   5933 ****        22.5000  -7.7500  -4.2500 Du        
   5934 ****        22.5000  -7.5000  -4.5000 Du        
   5935 ****        22.5000  -7.2500  -4.5000 Du        
   5936 ****        22.5000  -4.5000 -14.2500 Du        
   5937 ****        22.5000  -4.5000 -14.0000 Du        
   5938 ****        22.5000  -4.5000 -13.7500 Du        
   5939 ****        22.5000  -4.2500 -14.5000 Du        
   5940 ****        22.5000  -4.2500 -14.2500 Du        
   5941 ****        22.5000  -4.2500 -14.0000 Du        
   5942 ****        22.5000  -4.2500 -13.7500 Du        
   5943 ****        22.5000  -4.0000 -14.5000 Du        
   5944 ****        22.5000  -4.0000 -14.2500 Du        
   5945 ****        22.5000  -4.0000 -14.0000 Du        
   5946 ****        22.5000  -4.0000 -13.7500 Du        
   5947 ****        22.5000  -3.7500 -14.7500 Du        
   5948 ****        22.5000  -3.7500 -14.5000 Du        
   5949 ****        22.5000  -3.7500 -14.2500 Du        
   5950 ****        22.5000  -3.7500 -14.0000 Du        
   5951 ****        22.5000  -3.7500 -13.7500 Du        
   5952 ****        22.5000  -3.7500 -13.5000 Du        
   5953 ****        22.5000  -3.5000 -14.7500 Du        
   5954 ****        22.5000  -3.5000 -14.5000 Du        
   5955 ****        22.5000  -3.5000 -14.2500 Du        
   5956 ****        22.5000  -3.5000 -14.0000 Du        
   5957 ****        22.5000  -3.5000 -13.7500 Du        
   5958 ****        22.5000  -3.2500 -14.7500 Du        
   5959 ****        22.5000  -3.2500 -14.5000 Du        
   5960 ****        22.5000  -3.2500 -14.2500 Du        
   5961 ****        22.5000  -3.2500 -14.0000 Du        
   5962 ****        22.5000  -3.2500 -13.7500 Du        
   5963 ****        22.5000  -3.0000 -14.7500 Du        
   5964 ****        22.5000  -3.0000 -14.5000 Du        
   5965 ****        22.5000  -3.0000 -14.2500 Du        
   5966 ****        22.5000  -3.0000 -14.0000 Du        
   5967 ****        22.5000  -3.0000 -13.7500 Du        
   5968 ****        22.5000  -2.7500 -14.5000 Du        
   5969 ****        22.5000  -2.7500 -14.2500 Du        
   5970 ****        22.5000  -2.7500 -14.0000 Du        
   5971 ****        22.5000  -2.7500 -13.7500 Du        
   5972 ****        22.5000  -2.5000 -14.2500 Du        
   5973 ****        22.5000  -2.5000 -14.0000 Du        
   5974 ****        22.5000  -2.5000 -13.7500 Du        
   5975 ****        22.5000  -2.2500 -14.2500 Du        
   5976 ****        22.5000  -2.2500 -14.0000 Du        
   5977 ****        22.5000  -2.2500 -13.7500 Du        
   5978 ****        22.7500 -11.5000 -15.0000 Du        
   5979 ****        22.7500 -11.5000 -14.7500 Du        
   5980 ****        22.7500 -11.5000 -14.5000 Du        
   5981 ****        22.7500 -11.2500 -15.0000 Du        
   5982 ****        22.7500 -11.2500 -14.7500 Du        
   5983 ****        22.7500 -11.2500 -14.5000 Du        
   5984 ****        22.7500 -11.2500 -14.2500 Du        
   5985 ****        22.7500 -11.0000 -15.0000 Du        
   5986 ****        22.7500 -11.0000 -14.7500 Du        
   5987 ****        22.7500 -11.0000 -14.5000 Du        
   5988 ****        22.7500 -11.0000 -14.2500 Du        
   5989 ****        22.7500 -11.0000 -14.0000 Du        
   5990 ****        22.7500 -10.5000  -2.2500 Du        
   5991 ****        22.7500 -10.2500  -2.7500 Du        
   5992 ****        22.7500 -10.2500  -2.5000 Du        
   5993 ****        22.7500 -10.2500  -2.2500 Du        
   5994 ****        22.7500 -10.0000  -4.2500 Du        
   5995 ****        22.7500 -10.0000  -4.0000 Du        
   5996 ****        22.7500 -10.0000  -3.7500 Du        
   5997 ****        22.7500 -10.0000  -3.5000 Du        
   5998 ****        22.7500 -10.0000  -3.2500 Du        
   5999 ****        22.7500 -10.0000  -3.0000 Du        
   6000 ****        22.7500 -10.0000  -2.7500 Du        
   6001 ****        22.7500 -10.0000  -2.5000 Du        
   6002 ****        22.7500 -10.0000  -2.2500 Du        
   6003 ****        22.7500  -9.7500  -4.7500 Du        
   6004 ****        22.7500  -9.7500  -4.5000 Du        
   6005 ****        22.7500  -9.7500  -4.2500 Du        
   6006 ****        22.7500  -9.7500  -4.0000 Du        
   6007 ****        22.7500  -9.7500  -3.7500 Du        
   6008 ****        22.7500  -9.7500  -3.5000 Du        
   6009 ****        22.7500  -9.7500  -3.2500 Du        
   6010 ****        22.7500  -9.7500  -3.0000 Du        
   6011 ****        22.7500  -9.7500  -2.7500 Du        
   6012 ****        22.7500  -9.7500  -2.5000 Du        
   6013 ****        22.7500  -9.7500  -2.2500 Du        
   6014 ****        22.7500  -9.5000  -5.0000 Du        
   6015 ****        22.7500  -9.5000  -4.7500 Du        
   6016 ****        22.7500  -9.5000  -4.5000 Du        
   6017 ****        22.7500  -9.5000  -4.2500 Du        
   6018 ****        22.7500  -9.5000  -4.0000 Du        
   6019 ****        22.7500  -9.5000  -3.7500 Du        
   6020 ****        22.7500  -9.5000  -3.5000 Du        
   6021 ****        22.7500  -9.5000  -3.2500 Du        
   6022 ****        22.7500  -9.5000  -3.0000 Du        
   6023 ****        22.7500  -9.5000  -2.7500 Du        
   6024 ****        22.7500  -9.5000  -2.5000 Du        
   6025 ****        22.7500  -9.5000  -2.2500 Du        
   6026 ****        22.7500  -9.2500  -5.2500 Du        
   6027 ****        22.7500  -9.2500  -5.0000 Du        
   6028 ****        22.7500  -9.2500  -4.7500 Du        
   6029 ****        22.7500  -9.2500  -4.5000 Du        
   6030 ****        22.7500  -9.2500  -4.2500 Du        
   6031 ****        22.7500  -9.2500  -4.0000 Du        
   6032 ****        22.7500  -9.2500  -3.7500 Du        
   6033 ****        22.7500  -9.2500  -3.5000 Du        
   6034 ****        22.7500  -9.2500  -3.2500 Du        
   6035 ****        22.7500  -9.2500  -3.0000 Du        
   6036 ****        22.7500  -9.2500  -2.7500 Du        
   6037 ****        22.7500  -9.2500  -2.5000 Du        
   6038 ****        22.7500  -9.0000  -5.2500 Du        
   6039 ****        22.7500  -9.0000  -5.0000 Du        
   6040 ****        22.7500  -9.0000  -4.7500 Du        
   6041 ****        22.7500  -9.0000  -4.5000 Du        
   6042 ****        22.7500  -9.0000  -4.2500 Du        
   6043 ****        22.7500  -9.0000  -4.0000 Du        
   6044 ****        22.7500  -9.0000  -3.7500 Du        
   6045 ****        22.7500  -9.0000  -3.5000 Du        
   6046 ****        22.7500  -9.0000  -3.2500 Du        
   6047 ****        22.7500  -9.0000  -3.0000 Du        
   6048 ****        22.7500  -8.7500  -5.5000 Du        
   6049 ****        22.7500  -8.7500  -5.2500 Du        
   6050 ****        22.7500  -8.7500  -5.0000 Du        
   6051 ****        22.7500  -8.7500  -4.7500 Du        
   6052 ****        22.7500  -8.7500  -4.5000 Du        
   6053 ****        22.7500  -8.7500  -4.2500 Du        
   6054 ****        22.7500  -8.7500  -4.0000 Du        
   6055 ****        22.7500  -8.7500  -3.7500 Du        
   6056 ****        22.7500  -8.7500  -3.5000 Du        
   6057 ****        22.7500  -8.7500  -3.2500 Du        
   6058 ****        22.7500  -8.5000  -5.2500 Du        
   6059 ****        22.7500  -8.5000  -5.0000 Du        
   6060 ****        22.7500  -8.5000  -4.7500 Du        
   6061 ****        22.7500  -8.5000  -4.5000 Du        
   6062 ****        22.7500  -8.5000  -4.2500 Du        
   6063 ****        22.7500  -8.5000  -4.0000 Du        
   6064 ****        22.7500  -8.5000  -3.7500 Du        
   6065 ****        22.7500  -8.2500  -5.2500 Du        
   6066 ****        22.7500  -8.2500  -5.0000 Du        
   6067 ****        22.7500  -8.2500  -4.7500 Du        
   6068 ****        22.7500  -8.2500  -4.5000 Du        
   6069 ****        22.7500  -8.2500  -4.2500 Du        
   6070 ****        22.7500  -8.2500  -4.0000 Du        
   6071 ****        22.7500  -8.0000  -5.0000 Du        
   6072 ****        22.7500  -8.0000  -4.7500 Du        
   6073 ****        22.7500  -8.0000  -4.5000 Du        
   6074 ****        22.7500  -8.0000  -4.2500 Du        
   6075 ****        22.7500  -7.7500  -5.0000 Du        
   6076 ****        22.7500  -7.7500  -4.7500 Du        
   6077 ****        22.7500  -7.7500  -4.5000 Du        
   6078 ****        22.7500  -7.7500  -4.2500 Du        
   6079 ****        22.7500  -7.5000  -4.5000 Du        
   6080 ****        22.7500  -4.5000 -14.2500 Du        
   6081 ****        22.7500  -4.5000 -14.0000 Du        
   6082 ****        22.7500  -4.5000 -13.7500 Du        
   6083 ****        22.7500  -4.2500 -14.5000 Du        
   6084 ****        22.7500  -4.2500 -14.2500 Du        
   6085 ****        22.7500  -4.2500 -14.0000 Du        
   6086 ****        22.7500  -4.2500 -13.7500 Du        
   6087 ****        22.7500  -4.0000 -14.7500 Du        
   6088 ****        22.7500  -4.0000 -14.5000 Du        
   6089 ****        22.7500  -4.0000 -14.2500 Du        
   6090 ****        22.7500  -4.0000 -14.0000 Du        
   6091 ****        22.7500  -4.0000 -13.7500 Du        
   6092 ****        22.7500  -3.7500 -14.7500 Du        
   6093 ****        22.7500  -3.7500 -14.5000 Du        
   6094 ****        22.7500  -3.7500 -14.2500 Du        
   6095 ****        22.7500  -3.7500 -14.0000 Du        
   6096 ****        22.7500  -3.7500 -13.7500 Du        
   6097 ****        22.7500  -3.5000 -14.7500 Du        
   6098 ****        22.7500  -3.5000 -14.5000 Du        
   6099 ****        22.7500  -3.5000 -14.2500 Du        
   6100 ****        22.7500  -3.5000 -14.0000 Du        
   6101 ****        22.7500  -3.2500 -14.7500 Du        
   6102 ****        22.7500  -3.2500 -14.5000 Du        
   6103 ****        22.7500  -3.2500 -14.2500 Du        
   6104 ****        22.7500  -3.2500 -14.0000 Du        
   6105 ****        22.7500  -3.2500 -13.7500 Du        
   6106 ****        22.7500  -3.0000 -14.7500 Du        
   6107 ****        22.7500  -3.0000 -14.5000 Du        
   6108 ****        22.7500  -3.0000 -14.2500 Du        
   6109 ****        22.7500  -3.0000 -14.0000 Du        
   6110 ****        22.7500  -3.0000 -13.7500 Du        
   6111 ****        22.7500  -2.7500 -14.7500 Du        
   6112 ****        22.7500  -2.7500 -14.5000 Du        
   6113 ****        22.7500  -2.7500 -14.2500 Du        
   6114 ****        22.7500  -2.7500 -14.0000 Du        
   6115 ****        22.7500  -2.7500 -13.7500 Du        
   6116 ****        22.7500  -2.5000 -14.2500 Du        
   6117 ****        22.7500  -2.5000 -14.0000 Du        
   6118 ****        22.7500  -2.5000 -13.7500 Du        
   6119 ****        22.7500  -2.2500 -14.2500 Du        
   6120 ****        22.7500  -2.2500 -14.0000 Du        
   6121 ****        22.7500  -2.2500 -13.7500 Du        
   6122 ****        23.0000 -11.2500 -15.0000 Du        
   6123 ****        23.0000 -11.2500 -14.7500 Du        
   6124 ****        23.0000 -11.0000 -15.0000 Du        
   6125 ****        23.0000 -11.0000 -14.7500 Du        
   6126 ****        23.0000 -11.0000 -14.5000 Du        
   6127 ****        23.0000 -11.0000 -14.2500 Du        
   6128 ****        23.0000 -10.2500  -2.2500 Du        
   6129 ****        23.0000 -10.0000  -3.2500 Du        
   6130 ****        23.0000 -10.0000  -3.0000 Du        
   6131 ****        23.0000 -10.0000  -2.7500 Du        
   6132 ****        23.0000 -10.0000  -2.5000 Du        
   6133 ****        23.0000 -10.0000  -2.2500 Du        
   6134 ****        23.0000  -9.7500  -5.0000 Du        
   6135 ****        23.0000  -9.7500  -4.7500 Du        
   6136 ****        23.0000  -9.7500  -4.5000 Du        
   6137 ****        23.0000  -9.7500  -4.2500 Du        
   6138 ****        23.0000  -9.7500  -4.0000 Du        
   6139 ****        23.0000  -9.7500  -3.7500 Du        
   6140 ****        23.0000  -9.7500  -3.5000 Du        
   6141 ****        23.0000  -9.7500  -3.2500 Du        
   6142 ****        23.0000  -9.7500  -3.0000 Du        
   6143 ****        23.0000  -9.7500  -2.7500 Du        
   6144 ****        23.0000  -9.7500  -2.5000 Du        
   6145 ****        23.0000  -9.7500  -2.2500 Du        
   6146 ****        23.0000  -9.5000  -5.0000 Du        
   6147 ****        23.0000  -9.5000  -4.7500 Du        
   6148 ****        23.0000  -9.5000  -4.5000 Du        
   6149 ****        23.0000  -9.5000  -4.2500 Du        
   6150 ****        23.0000  -9.5000  -4.0000 Du        
   6151 ****        23.0000  -9.5000  -3.7500 Du        
   6152 ****        23.0000  -9.5000  -3.5000 Du        
   6153 ****        23.0000  -9.5000  -3.2500 Du        
   6154 ****        23.0000  -9.5000  -3.0000 Du        
   6155 ****        23.0000  -9.5000  -2.7500 Du        
   6156 ****        23.0000  -9.5000  -2.5000 Du        
   6157 ****        23.0000  -9.5000  -2.2500 Du        
   6158 ****        23.0000  -9.2500  -5.2500 Du        
   6159 ****        23.0000  -9.2500  -5.0000 Du        
   6160 ****        23.0000  -9.2500  -4.7500 Du        
   6161 ****        23.0000  -9.2500  -4.5000 Du        
   6162 ****        23.0000  -9.2500  -4.2500 Du        
   6163 ****        23.0000  -9.2500  -4.0000 Du        
   6164 ****        23.0000  -9.2500  -3.7500 Du        
   6165 ****        23.0000  -9.2500  -3.5000 Du        
   6166 ****        23.0000  -9.2500  -3.2500 Du        
   6167 ****        23.0000  -9.2500  -3.0000 Du        
   6168 ****        23.0000  -9.2500  -2.7500 Du        
   6169 ****        23.0000  -9.2500  -2.5000 Du        
   6170 ****        23.0000  -9.0000  -5.5000 Du        
   6171 ****        23.0000  -9.0000  -5.2500 Du        
   6172 ****        23.0000  -9.0000  -5.0000 Du        
   6173 ****        23.0000  -9.0000  -4.7500 Du        
   6174 ****        23.0000  -9.0000  -4.5000 Du        
   6175 ****        23.0000  -9.0000  -4.2500 Du        
   6176 ****        23.0000  -9.0000  -4.0000 Du        
   6177 ****        23.0000  -9.0000  -3.7500 Du        
   6178 ****        23.0000  -9.0000  -3.5000 Du        
   6179 ****        23.0000  -9.0000  -3.2500 Du        
   6180 ****        23.0000  -9.0000  -3.0000 Du        
   6181 ****        23.0000  -8.7500  -5.5000 Du        
   6182 ****        23.0000  -8.7500  -5.2500 Du        
   6183 ****        23.0000  -8.7500  -5.0000 Du        
   6184 ****        23.0000  -8.7500  -4.7500 Du        
   6185 ****        23.0000  -8.7500  -4.5000 Du        
   6186 ****        23.0000  -8.7500  -4.2500 Du        
   6187 ****        23.0000  -8.7500  -4.0000 Du        
   6188 ****        23.0000  -8.7500  -3.7500 Du        
   6189 ****        23.0000  -8.7500  -3.5000 Du        
   6190 ****        23.0000  -8.5000  -5.0000 Du        
   6191 ****        23.0000  -8.5000  -4.7500 Du        
   6192 ****        23.0000  -8.5000  -4.5000 Du        
   6193 ****        23.0000  -8.5000  -4.2500 Du        
   6194 ****        23.0000  -8.5000  -4.0000 Du        
   6195 ****        23.0000  -8.2500  -5.0000 Du        
   6196 ****        23.0000  -8.2500  -4.7500 Du        
   6197 ****        23.0000  -8.2500  -4.5000 Du        
   6198 ****        23.0000  -8.2500  -4.2500 Du        
   6199 ****        23.0000  -8.2500  -4.0000 Du        
   6200 ****        23.0000  -8.0000  -5.0000 Du        
   6201 ****        23.0000  -8.0000  -4.7500 Du        
   6202 ****        23.0000  -8.0000  -4.5000 Du        
   6203 ****        23.0000  -8.0000  -4.2500 Du        
   6204 ****        23.0000  -7.7500  -5.0000 Du        
   6205 ****        23.0000  -7.7500  -4.7500 Du        
   6206 ****        23.0000  -7.7500  -4.5000 Du        
   6207 ****        23.0000  -4.5000 -14.0000 Du        
   6208 ****        23.0000  -4.2500 -14.5000 Du        
   6209 ****        23.0000  -4.2500 -14.2500 Du        
   6210 ****        23.0000  -4.2500 -14.0000 Du        
   6211 ****        23.0000  -4.2500 -13.7500 Du        
   6212 ****        23.0000  -4.0000 -14.7500 Du        
   6213 ****        23.0000  -4.0000 -14.5000 Du        
   6214 ****        23.0000  -4.0000 -14.2500 Du        
   6215 ****        23.0000  -4.0000 -14.0000 Du        
   6216 ****        23.0000  -4.0000 -13.7500 Du        
   6217 ****        23.0000  -3.7500 -14.7500 Du        
   6218 ****        23.0000  -3.7500 -14.5000 Du        
   6219 ****        23.0000  -3.7500 -14.2500 Du        
   6220 ****        23.0000  -3.7500 -14.0000 Du        
   6221 ****        23.0000  -3.7500 -13.7500 Du        
   6222 ****        23.0000  -3.5000 -14.7500 Du        
   6223 ****        23.0000  -3.5000 -14.5000 Du        
   6224 ****        23.0000  -3.5000 -14.2500 Du        
   6225 ****        23.0000  -3.5000 -14.0000 Du        
   6226 ****        23.0000  -3.2500 -14.7500 Du        
   6227 ****        23.0000  -3.2500 -14.5000 Du        
   6228 ****        23.0000  -3.2500 -14.2500 Du        
   6229 ****        23.0000  -3.2500 -14.0000 Du        
   6230 ****        23.0000  -3.2500 -13.7500 Du        
   6231 ****        23.0000  -3.0000 -14.7500 Du        
   6232 ****        23.0000  -3.0000 -14.5000 Du        
   6233 ****        23.0000  -3.0000 -14.2500 Du        
   6234 ****        23.0000  -3.0000 -14.0000 Du        
   6235 ****        23.0000  -3.0000 -13.7500 Du        
   6236 ****        23.0000  -2.7500 -14.7500 Du        
   6237 ****        23.0000  -2.7500 -14.5000 Du        
   6238 ****        23.0000  -2.7500 -14.2500 Du        
   6239 ****        23.0000  -2.7500 -14.0000 Du        
   6240 ****        23.0000  -2.7500 -13.7500 Du        
   6241 ****        23.2500 -10.0000  -2.7500 Du        
   6242 ****        23.2500 -10.0000  -2.5000 Du        
   6243 ****        23.2500 -10.0000  -2.2500 Du        
   6244 ****        23.2500  -9.7500  -5.0000 Du        
   6245 ****        23.2500  -9.7500  -4.7500 Du        
   6246 ****        23.2500  -9.7500  -4.5000 Du        
   6247 ****        23.2500  -9.7500  -4.2500 Du        
   6248 ****        23.2500  -9.7500  -4.0000 Du        
   6249 ****        23.2500  -9.7500  -3.7500 Du        
   6250 ****        23.2500  -9.7500  -3.5000 Du        
   6251 ****        23.2500  -9.7500  -3.2500 Du        
   6252 ****        23.2500  -9.7500  -3.0000 Du        
   6253 ****        23.2500  -9.7500  -2.7500 Du        
   6254 ****        23.2500  -9.7500  -2.5000 Du        
   6255 ****        23.2500  -9.7500  -2.2500 Du        
   6256 ****        23.2500  -9.5000  -5.2500 Du        
   6257 ****        23.2500  -9.5000  -5.0000 Du        
   6258 ****        23.2500  -9.5000  -4.7500 Du        
   6259 ****        23.2500  -9.5000  -4.5000 Du        
   6260 ****        23.2500  -9.5000  -4.2500 Du        
   6261 ****        23.2500  -9.5000  -4.0000 Du        
   6262 ****        23.2500  -9.5000  -3.7500 Du        
   6263 ****        23.2500  -9.5000  -3.5000 Du        
   6264 ****        23.2500  -9.5000  -3.2500 Du        
   6265 ****        23.2500  -9.5000  -3.0000 Du        
   6266 ****        23.2500  -9.5000  -2.7500 Du        
   6267 ****        23.2500  -9.5000  -2.5000 Du        
   6268 ****        23.2500  -9.5000  -2.2500 Du        
   6269 ****        23.2500  -9.2500  -5.2500 Du        
   6270 ****        23.2500  -9.2500  -5.0000 Du        
   6271 ****        23.2500  -9.2500  -4.7500 Du        
   6272 ****        23.2500  -9.2500  -4.5000 Du        
   6273 ****        23.2500  -9.2500  -4.2500 Du        
   6274 ****        23.2500  -9.2500  -4.0000 Du        
   6275 ****        23.2500  -9.2500  -3.7500 Du        
   6276 ****        23.2500  -9.2500  -3.5000 Du        
   6277 ****        23.2500  -9.2500  -3.2500 Du        
   6278 ****        23.2500  -9.2500  -3.0000 Du        
   6279 ****        23.2500  -9.2500  -2.7500 Du        
   6280 ****        23.2500  -9.0000  -5.5000 Du        
   6281 ****        23.2500  -9.0000  -5.2500 Du        
   6282 ****        23.2500  -9.0000  -5.0000 Du        
   6283 ****        23.2500  -9.0000  -4.7500 Du        
   6284 ****        23.2500  -9.0000  -4.5000 Du        
   6285 ****        23.2500  -9.0000  -4.2500 Du        
   6286 ****        23.2500  -9.0000  -4.0000 Du        
   6287 ****        23.2500  -9.0000  -3.7500 Du        
   6288 ****        23.2500  -9.0000  -3.5000 Du        
   6289 ****        23.2500  -9.0000  -3.2500 Du        
   6290 ****        23.2500  -8.7500  -5.2500 Du        
   6291 ****        23.2500  -8.7500  -5.0000 Du        
   6292 ****        23.2500  -8.7500  -4.7500 Du        
   6293 ****        23.2500  -8.7500  -4.5000 Du        
   6294 ****        23.2500  -8.7500  -4.2500 Du        
   6295 ****        23.2500  -8.7500  -4.0000 Du        
   6296 ****        23.2500  -8.7500  -3.7500 Du        
   6297 ****        23.2500  -8.5000  -4.7500 Du        
   6298 ****        23.2500  -8.5000  -4.5000 Du        
   6299 ****        23.2500  -8.5000  -4.2500 Du        
   6300 ****        23.2500  -8.5000  -4.0000 Du        
   6301 ****        23.2500  -8.2500  -5.0000 Du        
   6302 ****        23.2500  -8.2500  -4.7500 Du        
   6303 ****        23.2500  -8.2500  -4.5000 Du        
   6304 ****        23.2500  -8.2500  -4.2500 Du        
   6305 ****        23.2500  -8.0000  -5.0000 Du        
   6306 ****        23.2500  -8.0000  -4.7500 Du        
   6307 ****        23.2500  -8.0000  -4.5000 Du        
   6308 ****        23.2500  -4.2500 -14.2500 Du        
   6309 ****        23.2500  -4.0000 -14.7500 Du        
   6310 ****        23.2500  -4.0000 -14.5000 Du        
   6311 ****        23.2500  -4.0000 -14.2500 Du        
   6312 ****        23.2500  -4.0000 -14.0000 Du        
   6313 ****        23.2500  -3.7500 -14.7500 Du        
   6314 ****        23.2500  -3.7500 -14.5000 Du        
   6315 ****        23.2500  -3.7500 -14.2500 Du        
   6316 ****        23.2500  -3.7500 -14.0000 Du        
   6317 ****        23.2500  -3.5000 -14.7500 Du        
   6318 ****        23.2500  -3.2500 -14.7500 Du        
   6319 ****        23.2500  -3.2500 -14.5000 Du        
   6320 ****        23.2500  -3.2500 -14.2500 Du        
   6321 ****        23.2500  -3.2500 -14.0000 Du        
   6322 ****        23.2500  -3.0000 -14.7500 Du        
   6323 ****        23.2500  -3.0000 -14.5000 Du        
   6324 ****        23.2500  -3.0000 -14.2500 Du        
   6325 ****        23.2500  -3.0000 -14.0000 Du        
   6326 ****        23.2500  -2.7500 -14.5000 Du        
   6327 ****        23.2500  -2.7500 -14.2500 Du        
   6328 ****        23.2500  -2.7500 -14.0000 Du        
   6329 ****        23.5000 -10.0000  -2.2500 Du        
   6330 ****        23.5000  -9.7500  -3.0000 Du        
   6331 ****        23.5000  -9.7500  -2.7500 Du        
   6332 ****        23.5000  -9.7500  -2.5000 Du        
   6333 ****        23.5000  -9.7500  -2.2500 Du        
   6334 ****        23.5000  -9.5000  -5.0000 Du        
   6335 ****        23.5000  -9.5000  -4.7500 Du        
   6336 ****        23.5000  -9.5000  -4.5000 Du        
   6337 ****        23.5000  -9.5000  -4.2500 Du        
   6338 ****        23.5000  -9.5000  -4.0000 Du        
   6339 ****        23.5000  -9.5000  -3.7500 Du        
   6340 ****        23.5000  -9.5000  -3.5000 Du        
   6341 ****        23.5000  -9.5000  -3.2500 Du        
   6342 ****        23.5000  -9.5000  -3.0000 Du        
   6343 ****        23.5000  -9.5000  -2.7500 Du        
   6344 ****        23.5000  -9.5000  -2.5000 Du        
   6345 ****        23.5000  -9.5000  -2.2500 Du        
   6346 ****        23.5000  -9.2500  -5.2500 Du        
   6347 ****        23.5000  -9.2500  -5.0000 Du        
   6348 ****        23.5000  -9.2500  -4.7500 Du        
   6349 ****        23.5000  -9.2500  -4.5000 Du        
   6350 ****        23.5000  -9.2500  -4.2500 Du        
   6351 ****        23.5000  -9.2500  -4.0000 Du        
   6352 ****        23.5000  -9.2500  -3.7500 Du        
   6353 ****        23.5000  -9.2500  -3.5000 Du        
   6354 ****        23.5000  -9.2500  -3.2500 Du        
   6355 ****        23.5000  -9.2500  -3.0000 Du        
   6356 ****        23.5000  -9.0000  -5.2500 Du        
   6357 ****        23.5000  -9.0000  -5.0000 Du        
   6358 ****        23.5000  -9.0000  -4.7500 Du        
   6359 ****        23.5000  -9.0000  -4.5000 Du        
   6360 ****        23.5000  -9.0000  -4.2500 Du        
   6361 ****        23.5000  -9.0000  -4.0000 Du        
   6362 ****        23.5000  -9.0000  -3.7500 Du        
   6363 ****        23.5000  -9.0000  -3.5000 Du        
   6364 ****        23.5000  -8.7500  -5.0000 Du        
   6365 ****        23.5000  -8.7500  -4.7500 Du        
   6366 ****        23.5000  -8.7500  -4.5000 Du        
   6367 ****        23.5000  -8.7500  -4.2500 Du        
   6368 ****        23.5000  -8.7500  -4.0000 Du        
   6369 ****        23.5000  -3.7500 -14.7500 Du        
   6370 ****        23.7500 -10.0000  -2.2500 Du        
   6371 ****        23.7500  -9.7500  -2.7500 Du        
   6372 ****        23.7500  -9.7500  -2.5000 Du        
   6373 ****        23.7500  -9.7500  -2.2500 Du        
   6374 ****        23.7500  -9.5000  -5.0000 Du        
   6375 ****        23.7500  -9.5000  -4.7500 Du        
   6376 ****        23.7500  -9.5000  -4.5000 Du        
   6377 ****        23.7500  -9.5000  -4.2500 Du        
   6378 ****        23.7500  -9.5000  -4.0000 Du        
   6379 ****        23.7500  -9.5000  -3.7500 Du        
   6380 ****        23.7500  -9.5000  -3.5000 Du        
   6381 ****        23.7500  -9.5000  -3.2500 Du        
   6382 ****        23.7500  -9.5000  -3.0000 Du        
   6383 ****        23.7500  -9.5000  -2.7500 Du        
   6384 ****        23.7500  -9.5000  -2.5000 Du        
   6385 ****        23.7500  -9.5000  -2.2500 Du        
   6386 ****        23.7500  -9.2500  -5.0000 Du        
   6387 ****        23.7500  -9.2500  -4.7500 Du        
   6388 ****        23.7500  -9.2500  -4.5000 Du        
   6389 ****        23.7500  -9.2500  -4.2500 Du        
   6390 ****        23.7500  -9.2500  -4.0000 Du        
   6391 ****        23.7500  -9.2500  -3.7500 Du        
   6392 ****        23.7500  -9.2500  -3.5000 Du        
   6393 ****        23.7500  -9.2500  -3.2500 Du        
   6394 ****        23.7500  -9.2500  -3.0000 Du        
   6395 ****        23.7500  -9.0000  -5.2500 Du        
   6396 ****        23.7500  -9.0000  -5.0000 Du        
   6397 ****        23.7500  -9.0000  -4.7500 Du        
   6398 ****        23.7500  -9.0000  -4.5000 Du        
   6399 ****        23.7500  -9.0000  -4.2500 Du        
   6400 ****        23.7500  -9.0000  -4.0000 Du        
   6401 ****        23.7500  -9.0000  -3.7500 Du        
   6402 ****        23.7500  -9.0000  -3.5000 Du        
   6403 ****        23.7500  -8.7500  -5.2500 Du        
   6404 ****        23.7500  -8.7500  -5.0000 Du        
   6405 ****        23.7500  -8.7500  -4.7500 Du        
   6406 ****        23.7500  -8.7500  -4.5000 Du        
   6407 ****        23.7500  -8.7500  -4.2500 Du        
   6408 ****        23.7500  -8.7500  -4.0000 Du        
   6409 ****        23.7500  -8.5000  -4.2500 Du        
   6410 ****        23.7500  -4.0000 -14.7500 Du        
   6411 ****        23.7500  -3.7500 -15.0000 Du        
   6412 ****        24.0000 -10.0000  -2.2500 Du        
   6413 ****        24.0000  -9.7500  -2.7500 Du        
   6414 ****        24.0000  -9.7500  -2.5000 Du        
   6415 ****        24.0000  -9.7500  -2.2500 Du        
   6416 ****        24.0000  -9.5000  -4.0000 Du        
   6417 ****        24.0000  -9.5000  -3.7500 Du        
   6418 ****        24.0000  -9.5000  -3.5000 Du        
   6419 ****        24.0000  -9.5000  -3.2500 Du        
   6420 ****        24.0000  -9.5000  -3.0000 Du        
   6421 ****        24.0000  -9.5000  -2.7500 Du        
   6422 ****        24.0000  -9.5000  -2.5000 Du        
   6423 ****        24.0000  -9.5000  -2.2500 Du        
   6424 ****        24.0000  -9.2500  -5.0000 Du        
   6425 ****        24.0000  -9.2500  -4.7500 Du        
   6426 ****        24.0000  -9.2500  -4.5000 Du        
   6427 ****        24.0000  -9.2500  -4.2500 Du        
   6428 ****        24.0000  -9.2500  -4.0000 Du        
   6429 ****        24.0000  -9.2500  -3.7500 Du        
   6430 ****        24.0000  -9.2500  -3.5000 Du        
   6431 ****        24.0000  -9.2500  -3.2500 Du        
   6432 ****        24.0000  -9.2500  -3.0000 Du        
   6433 ****        24.0000  -9.0000  -5.2500 Du        
   6434 ****        24.0000  -9.0000  -5.0000 Du        
   6435 ****        24.0000  -9.0000  -4.7500 Du        
   6436 ****        24.0000  -9.0000  -4.5000 Du        
   6437 ****        24.0000  -9.0000  -4.2500 Du        
   6438 ****        24.0000  -9.0000  -4.0000 Du        
   6439 ****        24.0000  -9.0000  -3.7500 Du        
   6440 ****        24.0000  -9.0000  -3.5000 Du        
   6441 ****        24.0000  -8.7500  -5.0000 Du        
   6442 ****        24.0000  -8.7500  -4.7500 Du        
   6443 ****        24.0000  -8.7500  -4.5000 Du        
   6444 ****        24.0000  -8.7500  -4.2500 Du        
   6445 ****        24.0000  -8.7500  -4.0000 Du        
   6446 ****        24.0000  -8.5000  -4.5000 Du        
   6447 ****        24.0000  -8.5000  -4.2500 Du        
   6448 ****        24.0000  -8.2500  -4.5000 Du        
   6449 ****        24.2500 -10.0000  -2.2500 Du        
   6450 ****        24.2500  -9.7500  -2.5000 Du        
   6451 ****        24.2500  -9.7500  -2.2500 Du        
   6452 ****        24.2500  -9.5000  -3.5000 Du        
   6453 ****        24.2500  -9.5000  -3.2500 Du        
   6454 ****        24.2500  -9.5000  -3.0000 Du        
   6455 ****        24.2500  -9.5000  -2.7500 Du        
   6456 ****        24.2500  -9.5000  -2.5000 Du        
   6457 ****        24.2500  -9.5000  -2.2500 Du        
   6458 ****        24.2500  -9.2500  -4.5000 Du        
   6459 ****        24.2500  -9.2500  -4.2500 Du        
   6460 ****        24.2500  -9.2500  -4.0000 Du        
   6461 ****        24.2500  -9.2500  -3.7500 Du        
   6462 ****        24.2500  -9.2500  -3.5000 Du        
   6463 ****        24.2500  -9.2500  -3.2500 Du        
   6464 ****        24.2500  -9.2500  -3.0000 Du        
   6465 ****        24.2500  -9.0000  -4.7500 Du        
   6466 ****        24.2500  -9.0000  -4.5000 Du        
   6467 ****        24.2500  -9.0000  -4.2500 Du        
   6468 ****        24.2500  -9.0000  -4.0000 Du        
   6469 ****        24.2500  -9.0000  -3.7500 Du        
   6470 ****        24.2500  -9.0000  -3.5000 Du        
   6471 ****        24.2500  -8.7500  -5.0000 Du        
   6472 ****        24.2500  -8.7500  -4.7500 Du        
   6473 ****        24.2500  -8.7500  -4.5000 Du        
   6474 ****        24.2500  -8.7500  -4.2500 Du        
   6475 ****        24.2500  -8.7500  -4.0000 Du        
   6476 ****        24.2500  -8.5000  -4.5000 Du        
   6477 ****        24.2500  -8.5000  -4.2500 Du        
   6478 ****        24.2500  -8.2500  -4.5000 Du        
   6479 ****        24.5000 -10.0000  -2.2500 Du        
   6480 ****        24.5000  -9.7500  -2.5000 Du        
   6481 ****        24.5000  -9.7500  -2.2500 Du        
   6482 ****        24.5000  -9.5000  -3.2500 Du        
   6483 ****        24.5000  -9.5000  -3.0000 Du        
   6484 ****        24.5000  -9.5000  -2.7500 Du        
   6485 ****        24.5000  -9.5000  -2.5000 Du        
   6486 ****        24.5000  -9.5000  -2.2500 Du        
   6487 ****        24.5000  -9.2500  -4.2500 Du        
   6488 ****        24.5000  -9.2500  -4.0000 Du        
   6489 ****        24.5000  -9.2500  -3.7500 Du        
   6490 ****        24.5000  -9.2500  -3.5000 Du        
   6491 ****        24.5000  -9.2500  -3.2500 Du        
   6492 ****        24.5000  -9.2500  -3.0000 Du        
   6493 ****        24.5000  -9.0000  -4.5000 Du        
   6494 ****        24.5000  -9.0000  -4.2500 Du        
   6495 ****        24.5000  -9.0000  -4.0000 Du        
   6496 ****        24.5000  -9.0000  -3.7500 Du        
   6497 ****        24.5000  -9.0000  -3.5000 Du        
   6498 ****        24.5000  -8.7500  -4.5000 Du        
   6499 ****        24.5000  -8.7500  -4.2500 Du        
   6500 ****        24.5000  -8.7500  -4.0000 Du        
   6501 ****        24.5000  -8.7500  -3.7500 Du        
   6502 ****        24.5000  -8.5000  -4.5000 Du        
   6503 ****        24.5000  -8.5000  -4.2500 Du        
   6504 ****        24.7500 -10.0000  -2.2500 Du        
   6505 ****        24.7500  -9.7500  -2.7500 Du        
   6506 ****        24.7500  -9.7500  -2.5000 Du        
   6507 ****        24.7500  -9.7500  -2.2500 Du        
   6508 ****        24.7500  -9.5000  -3.2500 Du        
   6509 ****        24.7500  -9.5000  -3.0000 Du        
   6510 ****        24.7500  -9.5000  -2.7500 Du        
   6511 ****        24.7500  -9.5000  -2.5000 Du        
   6512 ****        24.7500  -9.5000  -2.2500 Du        
   6513 ****        24.7500  -9.2500  -4.0000 Du        
   6514 ****        24.7500  -9.2500  -3.7500 Du        
   6515 ****        24.7500  -9.2500  -3.5000 Du        
   6516 ****        24.7500  -9.2500  -3.2500 Du        
   6517 ****        24.7500  -9.2500  -3.0000 Du        
   6518 ****        24.7500  -9.0000  -4.2500 Du        
   6519 ****        24.7500  -9.0000  -4.0000 Du        
   6520 ****        24.7500  -9.0000  -3.7500 Du        
   6521 ****        24.7500  -9.0000  -3.5000 Du        
   6522 ****        24.7500  -9.0000  -3.2500 Du        
   6523 ****        24.7500  -8.7500  -4.5000 Du        
   6524 ****        24.7500  -8.7500  -4.2500 Du        
   6525 ****        24.7500  -8.7500  -4.0000 Du        
   6526 ****        24.7500  -8.7500  -3.7500 Du        
   6527 ****        24.7500  -8.5000  -4.2500 Du        
   6528 ****        24.7500  -8.2500  -4.7500 Du        
   6529 ****        24.7500  -8.2500  -4.5000 Du        
   6530 ****        24.7500  -8.2500  -4.2500 Du        
   6531 ****        25.0000 -10.0000  -2.2500 Du        
   6532 ****        25.0000  -9.7500  -2.7500 Du        
   6533 ****        25.0000  -9.7500  -2.5000 Du        
   6534 ****        25.0000  -9.7500  -2.2500 Du        
   6535 ****        25.0000  -9.5000  -3.2500 Du        
   6536 ****        25.0000  -9.5000  -3.0000 Du        
   6537 ****        25.0000  -9.5000  -2.7500 Du        
   6538 ****        25.0000  -9.5000  -2.5000 Du        
   6539 ****        25.0000  -9.5000  -2.2500 Du        
   6540 ****        25.0000  -9.2500  -3.7500 Du        
   6541 ****        25.0000  -9.2500  -3.5000 Du        
   6542 ****        25.0000  -9.2500  -3.2500 Du        
   6543 ****        25.0000  -9.2500  -3.0000 Du        
   6544 ****        25.0000  -9.2500  -2.7500 Du        
   6545 ****        25.0000  -9.0000  -4.2500 Du        
   6546 ****        25.0000  -9.0000  -4.0000 Du        
   6547 ****        25.0000  -9.0000  -3.7500 Du        
   6548 ****        25.0000  -9.0000  -3.5000 Du        
   6549 ****        25.0000  -9.0000  -3.2500 Du        
   6550 ****        25.0000  -8.7500  -4.5000 Du        
   6551 ****        25.0000  -8.7500  -4.2500 Du        
   6552 ****        25.0000  -8.7500  -4.0000 Du        
   6553 ****        25.0000  -8.7500  -3.7500 Du        
   6554 ****        25.0000  -8.5000  -4.2500 Du        
   6555 ****        25.0000  -8.5000  -4.0000 Du        
   6556 ****        25.0000  -8.2500  -4.7500 Du        
   6557 ****        25.0000  -8.2500  -4.5000 Du        
   6558 ****        25.0000  -8.2500  -4.2500 Du        
   6559 ****        25.0000  -8.0000  -5.0000 Du        
   6560 ****        25.0000  -8.0000  -4.7500 Du        
   6561 ****        25.0000  -8.0000  -4.5000 Du        
   6562 ****        25.2500  -9.7500  -2.5000 Du        
   6563 ****        25.2500  -9.7500  -2.2500 Du        
   6564 ****        25.2500  -9.5000  -3.0000 Du        
   6565 ****        25.2500  -9.5000  -2.7500 Du        
   6566 ****        25.2500  -9.5000  -2.5000 Du        
   6567 ****        25.2500  -9.2500  -3.5000 Du        
   6568 ****        25.2500  -9.2500  -3.2500 Du        
   6569 ****        25.2500  -9.2500  -3.0000 Du        
   6570 ****        25.2500  -9.2500  -2.7500 Du        
   6571 ****        25.2500  -9.0000  -4.0000 Du        
   6572 ****        25.2500  -9.0000  -3.7500 Du        
   6573 ****        25.2500  -9.0000  -3.5000 Du        
   6574 ****        25.2500  -9.0000  -3.2500 Du        
   6575 ****        25.2500  -9.0000  -3.0000 Du        
   6576 ****        25.2500  -8.7500  -4.2500 Du        
   6577 ****        25.2500  -8.7500  -4.0000 Du        
   6578 ****        25.2500  -8.7500  -3.7500 Du        
   6579 ****        25.2500  -8.7500  -3.5000 Du        
   6580 ****        25.2500  -8.5000  -4.2500 Du        
   6581 ****        25.2500  -8.5000  -4.0000 Du        
   6582 ****        25.2500  -8.5000  -3.7500 Du        
   6583 ****        25.2500  -8.2500  -4.7500 Du        
   6584 ****        25.2500  -8.2500  -4.5000 Du        
   6585 ****        25.2500  -8.2500  -4.2500 Du        
   6586 ****        25.2500  -8.2500  -4.0000 Du        
   6587 ****        25.2500  -8.0000  -4.7500 Du        
   6588 ****        25.2500  -8.0000  -4.5000 Du        
   6589 ****        25.2500  -8.0000  -4.2500 Du        
   6590 ****        25.2500  -7.7500  -4.5000 Du        
   6591 ****        25.5000  -9.2500  -3.2500 Du        
   6592 ****        25.5000  -9.2500  -3.0000 Du        
   6593 ****        25.5000  -9.2500  -2.7500 Du        
   6594 ****        25.5000  -9.0000  -3.5000 Du        
   6595 ****        25.5000  -9.0000  -3.2500 Du        
   6596 ****        25.5000  -9.0000  -3.0000 Du        
   6597 ****        25.5000  -8.7500  -3.7500 Du        
   6598 ****        25.5000  -8.7500  -3.5000 Du        
   6599 ****        25.5000  -8.5000  -4.2500 Du        
   6600 ****        25.5000  -8.5000  -4.0000 Du        
   6601 ****        25.5000  -8.5000  -3.7500 Du        
   6602 ****        25.5000  -8.2500  -4.5000 Du        
   6603 ****        25.5000  -8.2500  -4.2500 Du        
   6604 ****        25.5000  -8.2500  -4.0000 Du        
   6605 ****        25.5000  -8.2500  -3.7500 Du        
   6606 ****        25.5000  -8.0000  -4.5000 Du        
   6607 ****        25.5000  -8.0000  -4.2500 Du        
   6608 ****        25.5000  -8.0000  -4.0000 Du        
   6609 ****        25.5000  -7.7500  -4.5000 Du        
   6610 ****        25.5000  -7.7500  -4.2500 Du        
   6611 ****        25.7500  -8.7500  -3.2500 Du        
   6612 ****        25.7500  -8.5000  -4.0000 Du        
   6613 ****        25.7500  -8.5000  -3.7500 Du        
   6614 ****        25.7500  -8.5000  -3.5000 Du        
   6615 ****        25.7500  -8.2500  -4.5000 Du        
   6616 ****        25.7500  -8.2500  -4.2500 Du        
   6617 ****        25.7500  -8.2500  -4.0000 Du        
   6618 ****        25.7500  -8.2500  -3.7500 Du        
   6619 ****        25.7500  -8.0000  -4.5000 Du        
   6620 ****        25.7500  -8.0000  -4.2500 Du        
   6621 ****        25.7500  -8.0000  -4.0000 Du        
   6622 ****        25.7500  -8.0000  -3.7500 Du        
   6623 ****        25.7500  -7.7500  -4.5000 Du        
   6624 ****        25.7500  -7.7500  -4.2500 Du        
   6625 ****        25.7500  -7.7500  -4.0000 Du        
   6626 ****        26.0000  -8.2500  -4.2500 Du        
   6627 ****        26.0000  -8.2500  -4.0000 Du        
   6628 ****        26.0000  -8.2500  -3.7500 Du        
   6629 ****        26.0000  -8.0000  -4.5000 Du        
   6630 ****        26.0000  -8.0000  -4.2500 Du        
   6631 ****        26.0000  -8.0000  -4.0000 Du        
   6632 ****        26.0000  -8.0000  -3.7500 Du        
   6633 ****        26.0000  -7.7500  -4.5000 Du        
   6634 ****        26.0000  -7.7500  -4.2500 Du        
   6635 ****        26.0000  -7.7500  -4.0000 Du        
   6636 ****        26.2500  -8.0000  -4.2500 Du        
   6637 ****        26.2500  -8.0000  -4.0000 Du        
   6638 ****        26.2500  -8.0000  -3.7500 Du        
   6639 ****        26.2500  -7.7500  -4.5000 Du        
   6640 ****        26.2500  -7.7500  -4.2500 Du        
   6641 ****        26.2500  -7.7500  -4.0000 Du        
