#       Name:                CT1002167954
#       Creating user name   hitesit
#       Creation time:       Sun Apr 16 02:22:04 2023


#       File generated by GOLD software.
#

@<TRIPOS>MOLECULE
CT1002167954|ligand_prepared|mol2|1|dock3
    29    30     1
SMALL
NO_CHARGES


@<TRIPOS>ATOM
      1 C1          19.5489  -5.6594  -8.2250 C.3            1 RES1               0.0000
      2 C2          19.5750  -4.4396  -7.2814 C.ar           1 RES1               0.0000
      3 C3          18.1828  -5.6463  -8.9044 C.2            1 RES1               0.0000
      4 C4          20.7219  -5.4828  -9.1829 C.2            1 RES1               0.0000
      5 C5          19.7239  -7.0140  -7.4999 C.3            1 RES1               0.0000
      6 C6          19.2289  -4.5737  -5.9402 C.ar           1 RES1               0.0000
      7 C7          19.9449  -3.1767  -7.7362 C.ar           1 RES1               0.0000
      8 N8          18.1318  -5.2670 -10.2134 N.am           1 RES1               0.0000
      9 O9          17.1608  -5.9264  -8.2901 O.2            1 RES1               0.0000
     10 N10         20.4430  -5.2827 -10.5095 N.am           1 RES1               0.0000
     11 O11         21.8847  -5.4987  -8.7983 O.2            1 RES1               0.0000
     12 C12         20.1459  -8.1507  -8.4176 C.3            1 RES1               0.0000
     13 C13         19.2545  -3.4854  -5.0838 C.ar           1 RES1               0.0000
     14 C14         19.9696  -2.0896  -6.8782 C.ar           1 RES1               0.0000
     15 C15         19.2005  -5.1361 -11.0634 C.2            1 RES1               0.0000
     16 C16         19.6252  -2.2429  -5.5521 C.ar           1 RES1               0.0000
     17 O17         19.0321  -4.9037 -12.2570 O.2            1 RES1               0.0000
     18 H18         20.4782  -6.8979  -6.7118 H              1 RES1               0.0000
     19 H19         18.7752  -7.2823  -7.0189 H              1 RES1               0.0000
     20 H20         18.9321  -5.5433  -5.5542 H              1 RES1               0.0000
     21 H21         20.2188  -3.0323  -8.7758 H              1 RES1               0.0000
     22 H22         17.2141  -5.0616 -10.5957 H              1 RES1               0.0000
     23 H23         21.2351  -5.2390 -11.1428 H              1 RES1               0.0000
     24 H24         20.2543  -9.0778  -7.8586 H              1 RES1               0.0000
     25 H25         19.4058  -8.3106  -9.1989 H              1 RES1               0.0000
     26 H26         21.0987  -7.9285  -8.8936 H              1 RES1               0.0000
     27 H27         18.9812  -3.6111  -4.0414 H              1 RES1               0.0000
     28 H28         20.2614  -1.1134  -7.2512 H              1 RES1               0.0000
     29 H29         19.6455  -1.3906  -4.8810 H              1 RES1               0.0000
@<TRIPOS>BOND
    1    1    2 1     
    2    1    3 1     
    3    1    4 1     
    4    1    5 1     
    5    2    6 ar    
    6    2    7 ar    
    7    3    8 1     
    8    3    9 2     
    9    4   10 1     
   10    4   11 2     
   11    5   12 1     
   12    5   18 1     
   13    5   19 1     
   14    6   13 ar    
   15    6   20 1     
   16    7   14 ar    
   17    7   21 1     
   18    8   15 1     
   19    8   22 1     
   20   10   15 1     
   21   10   23 1     
   22   12   24 1     
   23   12   25 1     
   24   12   26 1     
   25   13   16 ar    
   26   13   27 1     
   27   14   16 ar    
   28   14   28 1     
   29   15   17 2     
   30   16   29 1     
@<TRIPOS>SUBSTRUCTURE
      1 RES1           1
@<TRIPOS>SET
DONOR_HYDROGENS      STATIC     ATOMS    <user>   **** ""
2 22 23
ATOM$RED        STATIC     ATOMS    COLORGROUP SYSTEM
2 22 23
@<TRIPOS>COMMENT
> <Gold.Version>
2022.3.0

> <Gold.Id.Protein>
unknown|4g3y_cavity_clean|pdb

> <Gold.Protein.RotatedTorsions>
[ 1460 1451 1450 1449 ] final -158.94 input   60.03 | X-H torsion
[ 2171 2166 2165 2162 ] final  166.24 input   60.01 | X-H torsion
[  286  273  274  275 ] final  -66.86 input   33.26 | X-H torsion
[ 8865  276  275  274 ] final  -83.51 input   -0.00 | X-H torsion

> <Gold.Protein.ActiveResidues>
 GLN25   LEU26   GLN27   TRP28   ASP45   ASN46   GLN47   LYS90   SER133  ALA134 
 GLU135  ILE136  PRO139 

> <Gold.Protein.RotatedAtoms>
   24.4452    7.5117   -2.0272 H   0  0  0  0  0  0  0  0  0  0  0  0  # atno 286  bound_to 273 
   22.1251    0.6586  -12.2275 H   0  0  0  0  0  0  0  0  0  0  0  0  # atno 1460 bound_to 1451
   23.0165    1.9801  -12.6806 H   0  0  0  0  0  0  0  0  0  0  0  0  # atno 1461 bound_to 1451
   21.5287    2.1850  -11.9781 H   0  0  0  0  0  0  0  0  0  0  0  0  # atno 1462 bound_to 1451
   19.2947   -0.3610  -14.3341 H   0  0  0  0  0  0  0  0  0  0  0  0  # atno 2171 bound_to 2166
   17.7107   -0.0548  -14.5474 LP  0  0  0  0  0  0  0  0  0  0  0  0  # atno 8838 bound_to 2166
   18.7458    0.0697  -15.8043 LP  0  0  0  0  0  0  0  0  0  0  0  0  # atno 8839 bound_to 2166
   24.5342    5.8354   -2.5148 LP  0  0  0  0  0  0  0  0  0  0  0  0  # atno 8864 bound_to 273 
   21.9798    5.8420   -0.2782 LP  0  0  0  0  0  0  0  0  0  0  0  0  # atno 8865 bound_to 276 
   22.3028    7.5315   -0.0742 LP  0  0  0  0  0  0  0  0  0  0  0  0  # atno 8866 bound_to 276 

> <Gold.Score>
     Fitness  S(hb_ext) S(vdw_ext)  S(hb_int)    S(int)      intcor
     28.94       1.01      21.07       0.00      -1.04      -0.77

> <Gold.Goldscore.Fitness>
28.9425

> <Gold.Goldscore.Internal.Vdw>
-0.9226

> <Gold.Goldscore.Internal.Torsion>
-0.8817

> <Gold.Goldscore.External.Vdw>
21.0706

> <Gold.Goldscore.Internal.HBond>
0.0000

> <Gold.Goldscore.External.HBond>
1.0060

> <Gold.Goldscore.Internal.Correction>
-0.7686

> <Gold.Goldscore.Hbonds>
donor molecule, donor type, donor heavy atom, donor atom, acceptor molecule, acceptor atom, score
      P1  H  2197  2205       L1     9  0.16
      P1  H   613   618       L1    17  0.02
      L1  H     8    22       P1  2175  0.32

> <Gold.Goldscore.Internal.Vdw.Weighted>
-0.9226

> <Gold.Goldscore.Internal.Torsion.Weighted>
-0.8817

> <Gold.Goldscore.External.Vdw.Weighted>
28.9721

> <Gold.Goldscore.Internal.HBond.Weighted>
0.0000

> <Gold.Goldscore.External.HBond.Weighted>
1.0060

> <Gold.Goldscore.Internal.Correction.Weighted>
-0.7686

> <Gold.Rescore>
     Score     S(PLP)   S(hbond)     S(cho)   S(metal)  DE(clash)   DE(tors)     intcor
     33.90     -29.57       1.77       0.00       0.00       0.00       0.48       ----

> <Gold.PLP.Fitness>
33.9037

> <Gold.PLP.PLP>
-29.5668

> <Gold.PLP.part.hbond>
-2.0000

> <Gold.PLP.part.metal>
0.0000

> <Gold.PLP.part.buried>
-3.1471

> <Gold.PLP.part.nonpolar>
-25.4959

> <Gold.PLP.part.repulsive>
0.4092

> <Gold.PLP.ligand.clash>
0.0000

> <Gold.PLP.ligand.torsion>
0.4841

> <Gold.PLP.Chemscore.Hbond>
1.7684

> <Gold.PLP.Chemscore.CHOScore>
0.0000

> <Gold.PLP.Chemscore.Metal>
0.0000

> <Gold.Chemscore.Hbonds>
donor molecule, donor type, donor heavy atom, donor atom, acceptor molecule, acceptor atom, score
      P1  H  2197  2205       L1     9  0.31
      P1  H   613   618       L1    17  0.15

> <Gold.PLP.Chemscore.Internal.Correction>
   9.000000E+99

