#       Name:                CT1002167954
#       Creating user name   hitesit
#       Creation time:       Sun Apr 16 02:22:03 2023


#       File generated by GOLD software.
#

@<TRIPOS>MOLECULE
CT1002167954|ligand_prepared|mol2|1|dock2
    29    30     1
SMALL
NO_CHARGES


@<TRIPOS>ATOM
      1 C1          20.0024  -4.7592  -7.4178 C.3            1 RES1               0.0000
      2 C2          20.2699  -3.8179  -6.2258 C.ar           1 RES1               0.0000
      3 C3          21.0119  -5.8973  -7.3001 C.2            1 RES1               0.0000
      4 C4          18.5486  -5.2019  -7.2940 C.2            1 RES1               0.0000
      5 C5          20.1806  -4.0854  -8.7983 C.3            1 RES1               0.0000
      6 C6          19.7805  -4.1220  -4.9590 C.ar           1 RES1               0.0000
      7 C7          21.0053  -2.6453  -6.3765 C.ar           1 RES1               0.0000
      8 N8          20.5496  -7.1118  -6.8863 N.am           1 RES1               0.0000
      9 O9          22.2024  -5.7216  -7.5286 O.2            1 RES1               0.0000
     10 N10         18.2997  -6.5260  -7.0438 N.am           1 RES1               0.0000
     11 O11         17.6170  -4.4130  -7.3942 O.2            1 RES1               0.0000
     12 C12         19.6198  -4.8984  -9.9544 C.3            1 RES1               0.0000
     13 C13         20.0201  -3.2858  -3.8812 C.ar           1 RES1               0.0000
     14 C14         21.2436  -1.8102  -5.2974 C.ar           1 RES1               0.0000
     15 C15         19.2351  -7.4954  -6.8039 C.2            1 RES1               0.0000
     16 C16         20.7521  -2.1297  -4.0495 C.ar           1 RES1               0.0000
     17 O17         18.9321  -8.6535  -6.5320 O.2            1 RES1               0.0000
     18 H18         19.6839  -3.1075  -8.7807 H              1 RES1               0.0000
     19 H19         21.2502  -3.9151  -8.9727 H              1 RES1               0.0000
     20 H20         19.2003  -5.0262  -4.8078 H              1 RES1               0.0000
     21 H21         21.4009  -2.3733  -7.3492 H              1 RES1               0.0000
     22 H22         21.2455  -7.7982  -6.6129 H              1 RES1               0.0000
     23 H23         17.3270  -6.8159  -7.0359 H              1 RES1               0.0000
     24 H24         19.7710  -4.3806 -10.8993 H              1 RES1               0.0000
     25 H25         20.1092  -5.8681 -10.0173 H              1 RES1               0.0000
     26 H26         18.5522  -5.0653  -9.8265 H              1 RES1               0.0000
     27 H27         19.6300  -3.5410  -2.9015 H              1 RES1               0.0000
     28 H28         21.8197  -0.9011  -5.4346 H              1 RES1               0.0000
     29 H29         20.9400  -1.4749  -3.2050 H              1 RES1               0.0000
@<TRIPOS>BOND
    1    1    2 1     
    2    1    3 1     
    3    1    4 1     
    4    1    5 1     
    5    2    6 ar    
    6    2    7 ar    
    7    3    8 1     
    8    3    9 2     
    9    4   10 1     
   10    4   11 2     
   11    5   12 1     
   12    5   18 1     
   13    5   19 1     
   14    6   13 ar    
   15    6   20 1     
   16    7   14 ar    
   17    7   21 1     
   18    8   15 1     
   19    8   22 1     
   20   10   15 1     
   21   10   23 1     
   22   12   24 1     
   23   12   25 1     
   24   12   26 1     
   25   13   16 ar    
   26   13   27 1     
   27   14   16 ar    
   28   14   28 1     
   29   15   17 2     
   30   16   29 1     
@<TRIPOS>SUBSTRUCTURE
      1 RES1           1
@<TRIPOS>SET
DONOR_HYDROGENS      STATIC     ATOMS    <user>   **** ""
2 22 23
ATOM$RED        STATIC     ATOMS    COLORGROUP SYSTEM
2 22 23
@<TRIPOS>COMMENT
> <Gold.Version>
2022.3.0

> <Gold.Id.Protein>
unknown|4g3y_cavity_clean|pdb

> <Gold.Protein.RotatedTorsions>
[ 1460 1451 1450 1449 ] final -170.65 input   60.03 | X-H torsion
[ 2171 2166 2165 2162 ] final  156.43 input   60.01 | X-H torsion
[  286  273  274  275 ] final -159.14 input   33.26 | X-H torsion
[ 8865  276  275  274 ] final   68.35 input   -0.00 | X-H torsion

> <Gold.Protein.ActiveResidues>
 GLN25   LEU26   GLN27   TRP28   ASP45   ASN46   GLN47   LYS90   SER133  ALA134 
 GLU135  ILE136  PRO139 

> <Gold.Protein.RotatedAtoms>
   24.7942    6.8760   -3.0777 H   0  0  0  0  0  0  0  0  0  0  0  0  # atno 286  bound_to 273 
   21.9529    0.7022  -12.1466 H   0  0  0  0  0  0  0  0  0  0  0  0  # atno 1460 bound_to 1451
   23.0698    1.7934  -12.7018 H   0  0  0  0  0  0  0  0  0  0  0  0  # atno 1461 bound_to 1451
   21.6477    2.3280  -12.0378 H   0  0  0  0  0  0  0  0  0  0  0  0  # atno 1462 bound_to 1451
   19.1832   -0.3696  -14.2195 H   0  0  0  0  0  0  0  0  0  0  0  0  # atno 2171 bound_to 2166
   17.6690   -0.0133  -14.6976 LP  0  0  0  0  0  0  0  0  0  0  0  0  # atno 8838 bound_to 2166
   18.8999    0.0369  -15.7695 LP  0  0  0  0  0  0  0  0  0  0  0  0  # atno 8839 bound_to 2166
   24.1941    6.4551   -1.4908 LP  0  0  0  0  0  0  0  0  0  0  0  0  # atno 8864 bound_to 273 
   22.6692    7.3726   -0.2076 LP  0  0  0  0  0  0  0  0  0  0  0  0  # atno 8865 bound_to 276 
   21.6134    6.0009   -0.1448 LP  0  0  0  0  0  0  0  0  0  0  0  0  # atno 8866 bound_to 276 

> <Gold.Score>
     Fitness  S(hb_ext) S(vdw_ext)  S(hb_int)    S(int)      intcor
     30.20       1.12      21.31       0.00      -0.23      -0.77

> <Gold.Goldscore.Fitness>
30.1955

> <Gold.Goldscore.Internal.Vdw>
-0.3694

> <Gold.Goldscore.Internal.Torsion>
-0.6324

> <Gold.Goldscore.External.Vdw>
21.3138

> <Gold.Goldscore.Internal.HBond>
0.0000

> <Gold.Goldscore.External.HBond>
1.1222

> <Gold.Goldscore.Internal.Correction>
-0.7686

> <Gold.Goldscore.Hbonds>
donor molecule, donor type, donor heavy atom, donor atom, acceptor molecule, acceptor atom, score
      P1  H  2197  2205       L1    11  0.11
      P1  H   245   262       L1    17  0.45

> <Gold.Goldscore.Internal.Vdw.Weighted>
-0.3694

> <Gold.Goldscore.Internal.Torsion.Weighted>
-0.6324

> <Gold.Goldscore.External.Vdw.Weighted>
29.3065

> <Gold.Goldscore.Internal.HBond.Weighted>
0.0000

> <Gold.Goldscore.External.HBond.Weighted>
1.1222

> <Gold.Goldscore.Internal.Correction.Weighted>
-0.7686

> <Gold.Rescore>
     Score     S(PLP)   S(hbond)     S(cho)   S(metal)  DE(clash)   DE(tors)     intcor
     23.83     -26.35       0.00       0.00       0.00       0.00       1.26       ----

> <Gold.PLP.Fitness>
23.8258

> <Gold.PLP.PLP>
-26.3477

> <Gold.PLP.part.hbond>
0.0000

> <Gold.PLP.part.metal>
0.0000

> <Gold.PLP.part.buried>
-5.4868

> <Gold.PLP.part.nonpolar>
-21.4796

> <Gold.PLP.part.repulsive>
0.4749

> <Gold.PLP.ligand.clash>
0.0000

> <Gold.PLP.ligand.torsion>
1.2610

> <Gold.PLP.Chemscore.Hbond>
0.0000

> <Gold.PLP.Chemscore.CHOScore>
0.0000

> <Gold.PLP.Chemscore.Metal>
0.0000

> <Gold.Chemscore.Hbonds>
donor molecule, donor type, donor heavy atom, donor atom, acceptor molecule, acceptor atom, score
      P1  H  2197  2205       L1    11  0.64
      P1  H   245   262       L1    17  0.98

> <Gold.PLP.Chemscore.Internal.Correction>
   9.000000E+99

