#       Name:                CT1002167954
#       Creating user name   hitesit
#       Creation time:       Sun Apr 16 02:22:02 2023


#       File generated by GOLD software.
#

@<TRIPOS>MOLECULE
CT1002167954|ligand_prepared|mol2|1|dock1
    29    30     1
SMALL
NO_CHARGES


@<TRIPOS>ATOM
      1 C1          20.9670  -0.9878  -5.5607 C.3            1 RES1               0.0000
      2 C2          19.7865  -0.0639  -5.1978 C.ar           1 RES1               0.0000
      3 C3          20.5868  -1.6751  -6.8688 C.2            1 RES1               0.0000
      4 C4          22.1952  -0.0902  -5.6636 C.2            1 RES1               0.0000
      5 C5          21.2578  -2.0756  -4.5007 C.3            1 RES1               0.0000
      6 C6          18.7647   0.1727  -6.1125 C.ar           1 RES1               0.0000
      7 C7          19.7043   0.5557  -3.9537 C.ar           1 RES1               0.0000
      8 N8          21.2161  -1.2619  -8.0059 N.am           1 RES1               0.0000
      9 O9          19.7194  -2.5391  -6.9081 O.2            1 RES1               0.0000
     10 N10         22.7870   0.0498  -6.8916 N.am           1 RES1               0.0000
     11 O11         22.6459   0.5102  -4.6958 O.2            1 RES1               0.0000
     12 C12         20.0070  -2.7233  -3.9277 C.3            1 RES1               0.0000
     13 C13         17.6978   0.9964  -5.7940 C.ar           1 RES1               0.0000
     14 C14         18.6365   1.3793  -3.6372 C.ar           1 RES1               0.0000
     15 C15         22.3349  -0.4709  -8.0734 C.2            1 RES1               0.0000
     16 C16         17.6327   1.5998  -4.5562 C.ar           1 RES1               0.0000
     17 O17         22.8912  -0.2557  -9.1464 O.2            1 RES1               0.0000
     18 H18         21.8818  -2.8545  -4.9560 H              1 RES1               0.0000
     19 H19         21.8296  -1.6250  -3.6800 H              1 RES1               0.0000
     20 H20         18.8000  -0.2916  -7.0925 H              1 RES1               0.0000
     21 H21         20.4831   0.3975  -3.2154 H              1 RES1               0.0000
     22 H22         20.8181  -1.5692  -8.8876 H              1 RES1               0.0000
     23 H23         23.6441   0.5925  -6.9281 H              1 RES1               0.0000
     24 H24         20.2675  -3.4786  -3.1893 H              1 RES1               0.0000
     25 H25         19.3749  -1.9810  -3.4448 H              1 RES1               0.0000
     26 H26         19.4268  -3.2031  -4.7132 H              1 RES1               0.0000
     27 H27         16.9110   1.1678  -6.5212 H              1 RES1               0.0000
     28 H28         18.5898   1.8526  -2.6620 H              1 RES1               0.0000
     29 H29         16.7966   2.2447  -4.3067 H              1 RES1               0.0000
@<TRIPOS>BOND
    1    1    2 1     
    2    1    3 1     
    3    1    4 1     
    4    1    5 1     
    5    2    6 ar    
    6    2    7 ar    
    7    3    8 1     
    8    3    9 2     
    9    4   10 1     
   10    4   11 2     
   11    5   12 1     
   12    5   18 1     
   13    5   19 1     
   14    6   13 ar    
   15    6   20 1     
   16    7   14 ar    
   17    7   21 1     
   18    8   15 1     
   19    8   22 1     
   20   10   15 1     
   21   10   23 1     
   22   12   24 1     
   23   12   25 1     
   24   12   26 1     
   25   13   16 ar    
   26   13   27 1     
   27   14   16 ar    
   28   14   28 1     
   29   15   17 2     
   30   16   29 1     
@<TRIPOS>SUBSTRUCTURE
      1 RES1           1
@<TRIPOS>SET
DONOR_HYDROGENS      STATIC     ATOMS    <user>   **** ""
2 22 23
ATOM$RED        STATIC     ATOMS    COLORGROUP SYSTEM
2 22 23
@<TRIPOS>COMMENT
> <Gold.Version>
2022.3.0

> <Gold.Id.Protein>
unknown|4g3y_cavity_clean|pdb

> <Gold.Protein.RotatedTorsions>
[ 1460 1451 1450 1449 ] final   16.17 input   60.03 | X-H torsion
[ 2171 2166 2165 2162 ] final   65.75 input   60.01 | X-H torsion
[  286  273  274  275 ] final -175.75 input   33.26 | X-H torsion
[ 8865  276  275  274 ] final   14.90 input   -0.00 | X-H torsion

> <Gold.Protein.ActiveResidues>
 GLN25   LEU26   GLN27   TRP28   ASP45   ASN46   GLN47   LYS90   SER133  ALA134 
 GLU135  ILE136  PRO139 

> <Gold.Protein.RotatedAtoms>
   24.7894    6.6220   -3.1062 H   0  0  0  0  0  0  0  0  0  0  0  0  # atno 286  bound_to 273 
   22.3945    2.5435  -12.3975 H   0  0  0  0  0  0  0  0  0  0  0  0  # atno 1460 bound_to 1451
   21.4039    1.3121  -11.8989 H   0  0  0  0  0  0  0  0  0  0  0  0  # atno 1461 bound_to 1451
   22.8713    0.9675  -12.5895 H   0  0  0  0  0  0  0  0  0  0  0  0  # atno 1462 bound_to 1451
   17.8724   -0.1434  -14.2877 H   0  0  0  0  0  0  0  0  0  0  0  0  # atno 2171 bound_to 2166
   18.4301    0.1180  -15.7940 LP  0  0  0  0  0  0  0  0  0  0  0  0  # atno 8838 bound_to 2166
   19.4586   -0.3222  -14.6044 LP  0  0  0  0  0  0  0  0  0  0  0  0  # atno 8839 bound_to 2166
   24.1987    6.7027   -1.4630 LP  0  0  0  0  0  0  0  0  0  0  0  0  # atno 8864 bound_to 273 
   22.9736    6.6864   -0.4157 LP  0  0  0  0  0  0  0  0  0  0  0  0  # atno 8865 bound_to 276 
   21.3090    6.6871    0.0633 LP  0  0  0  0  0  0  0  0  0  0  0  0  # atno 8866 bound_to 276 

> <Gold.Score>
     Fitness  S(hb_ext) S(vdw_ext)  S(hb_int)    S(int)      intcor
     26.71       1.14      21.34       0.00      -3.77      -0.80

> <Gold.Goldscore.Fitness>
26.7067

> <Gold.Goldscore.Internal.Vdw>
-3.6953

> <Gold.Goldscore.Internal.Torsion>
-0.8796

> <Gold.Goldscore.External.Vdw>
21.3360

> <Gold.Goldscore.Internal.HBond>
0.0000

> <Gold.Goldscore.External.HBond>
1.1412

> <Gold.Goldscore.Internal.Correction>
-0.8033

> <Gold.Goldscore.Hbonds>
donor molecule, donor type, donor heavy atom, donor atom, acceptor molecule, acceptor atom, score
      P1  H   280   292       L1    11  0.07
      L1  H     8    22       P1  2189  0.17

> <Gold.Goldscore.Internal.Vdw.Weighted>
-3.6953

> <Gold.Goldscore.Internal.Torsion.Weighted>
-0.8796

> <Gold.Goldscore.External.Vdw.Weighted>
29.3371

> <Gold.Goldscore.Internal.HBond.Weighted>
0.0000

> <Gold.Goldscore.External.HBond.Weighted>
1.1412

> <Gold.Goldscore.Internal.Correction.Weighted>
-0.8033

> <Gold.Rescore>
     Score     S(PLP)   S(hbond)     S(cho)   S(metal)  DE(clash)   DE(tors)     intcor
     29.26     -26.11       1.74       0.00       0.00       2.05       0.01       ----

> <Gold.PLP.Fitness>
29.2608

> <Gold.PLP.PLP>
-26.1082

> <Gold.PLP.part.hbond>
-2.7597

> <Gold.PLP.part.metal>
0.0000

> <Gold.PLP.part.buried>
0.2600

> <Gold.PLP.part.nonpolar>
-24.3577

> <Gold.PLP.part.repulsive>
0.9804

> <Gold.PLP.ligand.clash>
2.0529

> <Gold.PLP.ligand.torsion>
0.0116

> <Gold.PLP.Chemscore.Hbond>
1.7429

> <Gold.PLP.Chemscore.CHOScore>
0.0000

> <Gold.PLP.Chemscore.Metal>
0.0000

> <Gold.Chemscore.Hbonds>
donor molecule, donor type, donor heavy atom, donor atom, acceptor molecule, acceptor atom, score
      L1  H     8    22       P1  2189  0.63
      P1  H   280   292       L1    11  0.66

> <Gold.PLP.Chemscore.Internal.Correction>
   9.000000E+99

