#       Name:                CT1002167954
#       Creating user name   hitesit
#       Creation time:       Sun Apr 16 02:22:10 2023


#       File generated by GOLD software.
#

@<TRIPOS>MOLECULE
CT1002167954|ligand_prepared|mol2|1|dock10
    29    30     1
SMALL
NO_CHARGES


@<TRIPOS>ATOM
      1 C1          20.6450  -1.2165  -6.1404 C.3            1 RES1               0.0000
      2 C2          19.7421  -0.3189  -7.0110 C.ar           1 RES1               0.0000
      3 C3          21.3050  -2.2108  -7.0912 C.2            1 RES1               0.0000
      4 C4          21.6248  -0.2829  -5.4382 C.2            1 RES1               0.0000
      5 C5          19.8788  -2.0086  -5.0555 C.3            1 RES1               0.0000
      6 C6          20.2945   0.5212  -7.9731 C.ar           1 RES1               0.0000
      7 C7          18.3574  -0.3219  -6.8656 C.ar           1 RES1               0.0000
      8 N8          22.6247  -2.0268  -7.3815 N.am           1 RES1               0.0000
      9 O9          20.6673  -3.1193  -7.6092 O.2            1 RES1               0.0000
     10 N10         22.9531  -0.3876  -5.7582 N.am           1 RES1               0.0000
     11 O11         21.2565   0.5538  -4.6230 O.2            1 RES1               0.0000
     12 C12         20.7801  -2.8144  -4.1333 C.3            1 RES1               0.0000
     13 C13         19.4916   1.3269  -8.7634 C.ar           1 RES1               0.0000
     14 C14         17.5563   0.4847  -7.6568 C.ar           1 RES1               0.0000
     15 C15         23.4937  -1.1963  -6.7205 C.2            1 RES1               0.0000
     16 C16         18.1221   1.3089  -8.6061 C.ar           1 RES1               0.0000
     17 O17         24.6917  -1.1949  -6.9885 O.2            1 RES1               0.0000
     18 H18         19.2941  -1.3043  -4.4509 H              1 RES1               0.0000
     19 H19         19.1758  -2.6920  -5.5476 H              1 RES1               0.0000
     20 H20         21.3704   0.5507  -8.1096 H              1 RES1               0.0000
     21 H21         17.8903  -0.9616  -6.1244 H              1 RES1               0.0000
     22 H22         23.0003  -2.5556  -8.1623 H              1 RES1               0.0000
     23 H23         23.5987   0.1907  -5.2300 H              1 RES1               0.0000
     24 H24         20.1923  -3.3507  -3.3914 H              1 RES1               0.0000
     25 H25         21.3582  -3.5425  -4.6985 H              1 RES1               0.0000
     26 H26         21.4759  -2.1631  -3.6083 H              1 RES1               0.0000
     27 H27         19.9419   1.9748  -9.5082 H              1 RES1               0.0000
     28 H28         16.4789   0.4678  -7.5291 H              1 RES1               0.0000
     29 H29         17.4933   1.9399  -9.2256 H              1 RES1               0.0000
@<TRIPOS>BOND
    1    1    2 1     
    2    1    3 1     
    3    1    4 1     
    4    1    5 1     
    5    2    6 ar    
    6    2    7 ar    
    7    3    8 1     
    8    3    9 2     
    9    4   10 1     
   10    4   11 2     
   11    5   12 1     
   12    5   18 1     
   13    5   19 1     
   14    6   13 ar    
   15    6   20 1     
   16    7   14 ar    
   17    7   21 1     
   18    8   15 1     
   19    8   22 1     
   20   10   15 1     
   21   10   23 1     
   22   12   24 1     
   23   12   25 1     
   24   12   26 1     
   25   13   16 ar    
   26   13   27 1     
   27   14   16 ar    
   28   14   28 1     
   29   15   17 2     
   30   16   29 1     
@<TRIPOS>SUBSTRUCTURE
      1 RES1           1
@<TRIPOS>SET
DONOR_HYDROGENS      STATIC     ATOMS    <user>   **** ""
2 22 23
ATOM$RED        STATIC     ATOMS    COLORGROUP SYSTEM
2 22 23
@<TRIPOS>COMMENT
> <Gold.Version>
2022.3.0

> <Gold.Id.Protein>
unknown|4g3y_cavity_clean|pdb

> <Gold.Protein.RotatedTorsions>
[ 1460 1451 1450 1449 ] final   36.55 input   60.03 | X-H torsion
[ 2171 2166 2165 2162 ] final  118.50 input   60.01 | X-H torsion
[  286  273  274  275 ] final -167.61 input   33.26 | X-H torsion
[ 8865  276  275  274 ] final    5.72 input   -0.00 | X-H torsion

> <Gold.Protein.ActiveResidues>
 GLN25   LEU26   GLN27   TRP28   ASP45   ASN46   GLN47   LYS90   SER133  ALA134 
 GLU135  ILE136  PRO139 

> <Gold.Protein.RotatedAtoms>
   24.7950    6.7474   -3.1009 H   0  0  0  0  0  0  0  0  0  0  0  0  # atno 286  bound_to 273 
   22.0888    2.5540  -12.2524 H   0  0  0  0  0  0  0  0  0  0  0  0  # atno 1460 bound_to 1451
   21.5510    1.0136  -11.9622 H   0  0  0  0  0  0  0  0  0  0  0  0  # atno 1461 bound_to 1451
   23.0300    1.2554  -12.6714 H   0  0  0  0  0  0  0  0  0  0  0  0  # atno 1462 bound_to 1451
   18.6231   -0.3341  -13.9843 H   0  0  0  0  0  0  0  0  0  0  0  0  # atno 2171 bound_to 2166
   17.7604    0.1092  -15.2910 LP  0  0  0  0  0  0  0  0  0  0  0  0  # atno 8838 bound_to 2166
   19.3724   -0.1213  -15.4131 LP  0  0  0  0  0  0  0  0  0  0  0  0  # atno 8839 bound_to 2166
   24.1933    6.5805   -1.4682 LP  0  0  0  0  0  0  0  0  0  0  0  0  # atno 8864 bound_to 273 
   22.9565    6.5503   -0.4347 LP  0  0  0  0  0  0  0  0  0  0  0  0  # atno 8865 bound_to 276 
   21.3261    6.8232    0.0823 LP  0  0  0  0  0  0  0  0  0  0  0  0  # atno 8866 bound_to 276 

> <Gold.Score>
     Fitness  S(hb_ext) S(vdw_ext)  S(hb_int)    S(int)      intcor
     26.79       1.38      18.53       0.00      -0.07      -0.76

> <Gold.Goldscore.Fitness>
26.7885

> <Gold.Goldscore.Internal.Vdw>
-0.4346

> <Gold.Goldscore.Internal.Torsion>
-0.3942

> <Gold.Goldscore.External.Vdw>
18.5326

> <Gold.Goldscore.Internal.HBond>
0.0000

> <Gold.Goldscore.External.HBond>
1.3771

> <Gold.Goldscore.Internal.Correction>
-0.7579

> <Gold.Goldscore.Hbonds>
donor molecule, donor type, donor heavy atom, donor atom, acceptor molecule, acceptor atom, score
      P1  H   280   292       L1    11  0.69

> <Gold.Goldscore.Internal.Vdw.Weighted>
-0.4346

> <Gold.Goldscore.Internal.Torsion.Weighted>
-0.3942

> <Gold.Goldscore.External.Vdw.Weighted>
25.4823

> <Gold.Goldscore.Internal.HBond.Weighted>
0.0000

> <Gold.Goldscore.External.HBond.Weighted>
1.3771

> <Gold.Goldscore.Internal.Correction.Weighted>
-0.7579

> <Gold.Rescore>
     Score     S(PLP)   S(hbond)     S(cho)   S(metal)  DE(clash)   DE(tors)     intcor
     25.33     -22.42       1.00       0.00       0.00       0.00       0.05       ----

> <Gold.PLP.Fitness>
25.3251

> <Gold.PLP.PLP>
-22.4216

> <Gold.PLP.part.hbond>
-4.8389

> <Gold.PLP.part.metal>
0.0000

> <Gold.PLP.part.buried>
-0.4800

> <Gold.PLP.part.nonpolar>
-19.9930

> <Gold.PLP.part.repulsive>
2.1516

> <Gold.PLP.ligand.clash>
0.0000

> <Gold.PLP.ligand.torsion>
0.0483

> <Gold.PLP.Chemscore.Hbond>
1.0000

> <Gold.PLP.Chemscore.CHOScore>
0.0000

> <Gold.PLP.Chemscore.Metal>
0.0000

> <Gold.Chemscore.Hbonds>
donor molecule, donor type, donor heavy atom, donor atom, acceptor molecule, acceptor atom, score
      P1  H   280   292       L1    11  0.60

> <Gold.PLP.Chemscore.Internal.Correction>
   9.000000E+99

