#       Name:                CT1002167954
#       Creating user name   hitesit
#       Creation time:       Sun Apr 16 02:22:07 2023


#       File generated by GOLD software.
#

@<TRIPOS>MOLECULE
CT1002167954|ligand_prepared|mol2|1|dock7
    29    30     1
SMALL
NO_CHARGES


@<TRIPOS>ATOM
      1 C1          20.5426  -3.8132  -6.1506 C.3            1 RES1               0.0000
      2 C2          19.6157  -4.4057  -7.2316 C.ar           1 RES1               0.0000
      3 C3          21.3278  -4.9857  -5.5701 C.2            1 RES1               0.0000
      4 C4          21.4072  -2.7726  -6.8536 C.2            1 RES1               0.0000
      5 C5          19.7886  -3.1086  -4.9988 C.3            1 RES1               0.0000
      6 C6          19.8420  -4.1446  -8.5797 C.ar           1 RES1               0.0000
      7 C7          18.5338  -5.2157  -6.8970 C.ar           1 RES1               0.0000
      8 N8          22.6415  -5.1004  -5.9179 N.am           1 RES1               0.0000
      9 O9          20.7924  -5.8192  -4.8497 O.2            1 RES1               0.0000
     10 N10         22.7542  -3.0094  -6.9400 N.am           1 RES1               0.0000
     11 O11         20.9320  -1.7578  -7.3481 O.2            1 RES1               0.0000
     12 C12         20.7044  -2.4986  -3.9493 C.3            1 RES1               0.0000
     13 C13         19.0184  -4.6765  -9.5581 C.ar           1 RES1               0.0000
     14 C14         17.7113  -5.7464  -7.8769 C.ar           1 RES1               0.0000
     15 C15         23.4061  -4.1407  -6.5311 C.2            1 RES1               0.0000
     16 C16         17.9529  -5.4780  -9.2075 C.ar           1 RES1               0.0000
     17 O17         24.6122  -4.3034  -6.6924 O.2            1 RES1               0.0000
     18 H18         19.1590  -2.3161  -5.4217 H              1 RES1               0.0000
     19 H19         19.1287  -3.8368  -4.5112 H              1 RES1               0.0000
     20 H20         20.6741  -3.5140  -8.8746 H              1 RES1               0.0000
     21 H21         18.3240  -5.4395  -5.8565 H              1 RES1               0.0000
     22 H22         23.0975  -5.9812  -5.7021 H              1 RES1               0.0000
     23 H23         23.3236  -2.2741  -7.3468 H              1 RES1               0.0000
     24 H24         20.1247  -2.0171  -3.1645 H              1 RES1               0.0000
     25 H25         21.3276  -3.2630  -3.4899 H              1 RES1               0.0000
     26 H26         21.3577  -1.7513  -4.3950 H              1 RES1               0.0000
     27 H27         19.2120  -4.4611 -10.6037 H              1 RES1               0.0000
     28 H28         16.8736  -6.3763  -7.5964 H              1 RES1               0.0000
     29 H29         17.3082  -5.8949  -9.9741 H              1 RES1               0.0000
@<TRIPOS>BOND
    1    1    2 1     
    2    1    3 1     
    3    1    4 1     
    4    1    5 1     
    5    2    6 ar    
    6    2    7 ar    
    7    3    8 1     
    8    3    9 2     
    9    4   10 1     
   10    4   11 2     
   11    5   12 1     
   12    5   18 1     
   13    5   19 1     
   14    6   13 ar    
   15    6   20 1     
   16    7   14 ar    
   17    7   21 1     
   18    8   15 1     
   19    8   22 1     
   20   10   15 1     
   21   10   23 1     
   22   12   24 1     
   23   12   25 1     
   24   12   26 1     
   25   13   16 ar    
   26   13   27 1     
   27   14   16 ar    
   28   14   28 1     
   29   15   17 2     
   30   16   29 1     
@<TRIPOS>SUBSTRUCTURE
      1 RES1           1
@<TRIPOS>SET
DONOR_HYDROGENS      STATIC     ATOMS    <user>   **** ""
2 22 23
ATOM$RED        STATIC     ATOMS    COLORGROUP SYSTEM
2 22 23
@<TRIPOS>COMMENT
> <Gold.Version>
2022.3.0

> <Gold.Id.Protein>
unknown|4g3y_cavity_clean|pdb

> <Gold.Protein.RotatedTorsions>
[ 1460 1451 1450 1449 ] final  134.47 input   60.03 | X-H torsion
[ 2171 2166 2165 2162 ] final -131.86 input   60.01 | X-H torsion
[  286  273  274  275 ] final  -85.94 input   33.26 | X-H torsion
[ 8865  276  275  274 ] final  120.90 input   -0.00 | X-H torsion

> <Gold.Protein.ActiveResidues>
 GLN25   LEU26   GLN27   TRP28   ASP45   ASN46   GLN47   LYS90   SER133  ALA134 
 GLU135  ILE136  PRO139 

> <Gold.Protein.RotatedAtoms>
   24.5478    7.5458   -2.3000 H   0  0  0  0  0  0  0  0  0  0  0  0  # atno 286  bound_to 273 
   21.3965    1.3389  -11.8961 H   0  0  0  0  0  0  0  0  0  0  0  0  # atno 1460 bound_to 1451
   22.8540    0.9467  -12.5804 H   0  0  0  0  0  0  0  0  0  0  0  0  # atno 1461 bound_to 1451
   22.4198    2.5377  -12.4097 H   0  0  0  0  0  0  0  0  0  0  0  0  # atno 1462 bound_to 1451
   19.4429   -0.1692  -15.2661 H   0  0  0  0  0  0  0  0  0  0  0  0  # atno 2171 bound_to 2166
   18.4557   -0.3056  -13.9796 LP  0  0  0  0  0  0  0  0  0  0  0  0  # atno 8838 bound_to 2166
   17.8516    0.1275  -15.4336 LP  0  0  0  0  0  0  0  0  0  0  0  0  # atno 8839 bound_to 2166
   24.4342    5.8022   -2.2489 LP  0  0  0  0  0  0  0  0  0  0  0  0  # atno 8864 bound_to 273 
   21.9504    7.5077    0.0230 LP  0  0  0  0  0  0  0  0  0  0  0  0  # atno 8865 bound_to 276 
   22.3322    5.8658   -0.3753 LP  0  0  0  0  0  0  0  0  0  0  0  0  # atno 8866 bound_to 276 

> <Gold.Score>
     Fitness  S(hb_ext) S(vdw_ext)  S(hb_int)    S(int)      intcor
     26.12       0.00      20.82       0.00      -2.51      -0.76

> <Gold.Goldscore.Fitness>
26.1202

> <Gold.Goldscore.Internal.Vdw>
-2.8949

> <Gold.Goldscore.Internal.Torsion>
-0.3698

> <Gold.Goldscore.External.Vdw>
20.8197

> <Gold.Goldscore.Internal.HBond>
0.0000

> <Gold.Goldscore.External.HBond>
0.0000

> <Gold.Goldscore.Internal.Correction>
-0.7579

> <Gold.Goldscore.Internal.Vdw.Weighted>
-2.8949

> <Gold.Goldscore.Internal.Torsion.Weighted>
-0.3698

> <Gold.Goldscore.External.Vdw.Weighted>
28.6271

> <Gold.Goldscore.Internal.HBond.Weighted>
0.0000

> <Gold.Goldscore.External.HBond.Weighted>
0.0000

> <Gold.Goldscore.Internal.Correction.Weighted>
-0.7579

> <Gold.Rescore>
     Score     S(PLP)   S(hbond)     S(cho)   S(metal)  DE(clash)   DE(tors)     intcor
     27.64     -29.92       0.00       0.00       0.00       2.05       0.12       ----

> <Gold.PLP.Fitness>
27.6354

> <Gold.PLP.PLP>
-29.9224

> <Gold.PLP.part.hbond>
-0.0038

> <Gold.PLP.part.metal>
0.0000

> <Gold.PLP.part.buried>
-2.3729

> <Gold.PLP.part.nonpolar>
-28.5340

> <Gold.PLP.part.repulsive>
0.2410

> <Gold.PLP.ligand.clash>
2.0467

> <Gold.PLP.ligand.torsion>
0.1201

> <Gold.PLP.Chemscore.Hbond>
0.0000

> <Gold.PLP.Chemscore.CHOScore>
0.0000

> <Gold.PLP.Chemscore.Metal>
0.0000

> <Gold.PLP.Chemscore.Internal.Correction>
   9.000000E+99

