#       Name:                CT1002167954
#       Creating user name   hitesit
#       Creation time:       Sun Apr 16 02:22:07 2023


#       File generated by GOLD software.
#

@<TRIPOS>MOLECULE
CT1002167954|ligand_prepared|mol2|1|dock6
    29    30     1
SMALL
NO_CHARGES


@<TRIPOS>ATOM
      1 C1          19.6737  -5.1269  -7.5774 C.3            1 RES1               0.0000
      2 C2          19.6723  -3.7697  -6.8448 C.ar           1 RES1               0.0000
      3 C3          18.3780  -5.1810  -8.3815 C.2            1 RES1               0.0000
      4 C4          20.9370  -5.1496  -8.4308 C.2            1 RES1               0.0000
      5 C5          19.7152  -6.3484  -6.6299 C.3            1 RES1               0.0000
      6 C6          19.7363  -2.5779  -7.5606 C.ar           1 RES1               0.0000
      7 C7          19.6048  -3.6934  -5.4561 C.ar           1 RES1               0.0000
      8 N8          18.4661  -5.0214  -9.7331 N.am           1 RES1               0.0000
      9 O9          17.2915  -5.3221  -7.8339 O.2            1 RES1               0.0000
     10 N10         20.7912  -5.1620  -9.7933 N.am           1 RES1               0.0000
     11 O11         22.0573  -5.1401  -7.9359 O.2            1 RES1               0.0000
     12 C12         19.8729  -7.6781  -7.3504 C.3            1 RES1               0.0000
     13 C13         19.7301  -1.3542  -6.9119 C.ar           1 RES1               0.0000
     14 C14         19.5989  -2.4686  -4.8095 C.ar           1 RES1               0.0000
     15 C15         19.6135  -5.0679 -10.4834 C.2            1 RES1               0.0000
     16 C16         19.6609  -1.2986  -5.5362 C.ar           1 RES1               0.0000
     17 O17         19.5670  -5.0302 -11.7096 O.2            1 RES1               0.0000
     18 H18         20.5511  -6.2244  -5.9304 H              1 RES1               0.0000
     19 H19         18.7882  -6.3722  -6.0437 H              1 RES1               0.0000
     20 H20         19.7936  -2.6019  -8.6437 H              1 RES1               0.0000
     21 H21         19.5563  -4.6009  -4.8639 H              1 RES1               0.0000
     22 H22         17.5986  -4.8518 -10.2320 H              1 RES1               0.0000
     23 H23         21.6393  -5.2496 -10.3442 H              1 RES1               0.0000
     24 H24         19.8962  -8.5015  -6.6396 H              1 RES1               0.0000
     25 H25         19.0450  -7.8458  -8.0362 H              1 RES1               0.0000
     26 H26         20.7974  -7.6989  -7.9236 H              1 RES1               0.0000
     27 H27         19.7804  -0.4363  -7.4884 H              1 RES1               0.0000
     28 H28         19.5450  -2.4296  -3.7265 H              1 RES1               0.0000
     29 H29         19.6557  -0.3398  -5.0283 H              1 RES1               0.0000
@<TRIPOS>BOND
    1    1    2 1     
    2    1    3 1     
    3    1    4 1     
    4    1    5 1     
    5    2    6 ar    
    6    2    7 ar    
    7    3    8 1     
    8    3    9 2     
    9    4   10 1     
   10    4   11 2     
   11    5   12 1     
   12    5   18 1     
   13    5   19 1     
   14    6   13 ar    
   15    6   20 1     
   16    7   14 ar    
   17    7   21 1     
   18    8   15 1     
   19    8   22 1     
   20   10   15 1     
   21   10   23 1     
   22   12   24 1     
   23   12   25 1     
   24   12   26 1     
   25   13   16 ar    
   26   13   27 1     
   27   14   16 ar    
   28   14   28 1     
   29   15   17 2     
   30   16   29 1     
@<TRIPOS>SUBSTRUCTURE
      1 RES1           1
@<TRIPOS>SET
DONOR_HYDROGENS      STATIC     ATOMS    <user>   **** ""
2 22 23
ATOM$RED        STATIC     ATOMS    COLORGROUP SYSTEM
2 22 23
@<TRIPOS>COMMENT
> <Gold.Version>
2022.3.0

> <Gold.Id.Protein>
unknown|4g3y_cavity_clean|pdb

> <Gold.Protein.RotatedTorsions>
[ 1460 1451 1450 1449 ] final   70.59 input   60.03 | X-H torsion
[ 2171 2166 2165 2162 ] final   88.10 input   60.01 | X-H torsion
[  286  273  274  275 ] final  116.42 input   33.26 | X-H torsion
[ 8865  276  275  274 ] final  -57.71 input   -0.00 | X-H torsion

> <Gold.Protein.ActiveResidues>
 GLN25   LEU26   GLN27   TRP28   ASP45   ASN46   GLN47   LYS90   SER133  ALA134 
 GLU135  ILE136  PRO139 

> <Gold.Protein.RotatedAtoms>
   24.5441    5.8301   -2.5691 H   0  0  0  0  0  0  0  0  0  0  0  0  # atno 286  bound_to 273 
   21.6342    2.3136  -12.0308 H   0  0  0  0  0  0  0  0  0  0  0  0  # atno 1460 bound_to 1451
   21.9702    0.6956  -12.1545 H   0  0  0  0  0  0  0  0  0  0  0  0  # atno 1461 bound_to 1451
   23.0657    1.8138  -12.7007 H   0  0  0  0  0  0  0  0  0  0  0  0  # atno 1462 bound_to 1451
   18.1502   -0.2374  -14.0739 H   0  0  0  0  0  0  0  0  0  0  0  0  # atno 2171 bound_to 2166
   18.0925    0.1402  -15.6558 LP  0  0  0  0  0  0  0  0  0  0  0  0  # atno 8838 bound_to 2166
   19.5164   -0.2497  -14.9579 LP  0  0  0  0  0  0  0  0  0  0  0  0  # atno 8839 bound_to 2166
   24.4378    7.4747   -1.9865 LP  0  0  0  0  0  0  0  0  0  0  0  0  # atno 8864 bound_to 273 
   22.3518    5.8718   -0.3799 LP  0  0  0  0  0  0  0  0  0  0  0  0  # atno 8865 bound_to 276 
   21.9308    7.5017    0.0276 LP  0  0  0  0  0  0  0  0  0  0  0  0  # atno 8866 bound_to 276 

> <Gold.Score>
     Fitness  S(hb_ext) S(vdw_ext)  S(hb_int)    S(int)      intcor
     27.48       0.87      19.54       0.00      -0.25      -0.76

> <Gold.Goldscore.Fitness>
27.4835

> <Gold.Goldscore.Internal.Vdw>
-0.5808

> <Gold.Goldscore.Internal.Torsion>
-0.4313

> <Gold.Goldscore.External.Vdw>
19.5373

> <Gold.Goldscore.Internal.HBond>
0.0000

> <Gold.Goldscore.External.HBond>
0.8739

> <Gold.Goldscore.Internal.Correction>
-0.7579

> <Gold.Goldscore.Hbonds>
donor molecule, donor type, donor heavy atom, donor atom, acceptor molecule, acceptor atom, score
      P1  H  2197  2205       L1     9  0.17
      P1  H   613   618       L1    17  0.05
      L1  H     8    22       P1  2175  0.22

> <Gold.Goldscore.Internal.Vdw.Weighted>
-0.5808

> <Gold.Goldscore.Internal.Torsion.Weighted>
-0.4313

> <Gold.Goldscore.External.Vdw.Weighted>
26.8638

> <Gold.Goldscore.Internal.HBond.Weighted>
0.0000

> <Gold.Goldscore.External.HBond.Weighted>
0.8739

> <Gold.Goldscore.Internal.Correction.Weighted>
-0.7579

> <Gold.Rescore>
     Score     S(PLP)   S(hbond)     S(cho)   S(metal)  DE(clash)   DE(tors)     intcor
     30.94     -28.04       1.00       0.00       0.00       0.00       0.05       ----

> <Gold.PLP.Fitness>
30.9430

> <Gold.PLP.PLP>
-28.0378

> <Gold.PLP.part.hbond>
-1.0000

> <Gold.PLP.part.metal>
0.0000

> <Gold.PLP.part.buried>
-6.1727

> <Gold.PLP.part.nonpolar>
-21.5332

> <Gold.PLP.part.repulsive>
0.2572

> <Gold.PLP.ligand.clash>
0.0000

> <Gold.PLP.ligand.torsion>
0.0474

> <Gold.PLP.Chemscore.Hbond>
1.0000

> <Gold.PLP.Chemscore.CHOScore>
0.0000

> <Gold.PLP.Chemscore.Metal>
0.0000

> <Gold.Chemscore.Hbonds>
donor molecule, donor type, donor heavy atom, donor atom, acceptor molecule, acceptor atom, score
      P1  H  2197  2205       L1     9  1.00
      P1  H   613   618       L1    17  0.39

> <Gold.PLP.Chemscore.Internal.Correction>
   9.000000E+99

