#       Name:                CT1002167954
#       Creating user name   hitesit
#       Creation time:       Sun Apr 16 02:25:33 2023


#       File generated by GOLD software.
#

@<TRIPOS>MOLECULE
CT1002167954|ligand_prepared|mol2|1|dock7
    29    30     1
SMALL
NO_CHARGES


@<TRIPOS>ATOM
      1 C1         250.5897 351.2986 -81.4487 C.3            1 RES1               0.0000
      2 C2         252.0496 350.8099 -81.3559 C.ar           1 RES1               0.0000
      3 C3         249.9356 350.4856 -82.5620 C.2            1 RES1               0.0000
      4 C4         249.9761 351.0736 -80.0712 C.2            1 RES1               0.0000
      5 C5         250.4542 352.8003 -81.7925 C.3            1 RES1               0.0000
      6 C6         252.5027 349.7734 -82.1665 C.ar           1 RES1               0.0000
      7 C7         252.9540 351.3864 -80.4681 C.ar           1 RES1               0.0000
      8 N8         249.0556 349.5093 -82.1980 N.am           1 RES1               0.0000
      9 O9         250.2175 350.6717 -83.7393 O.2            1 RES1               0.0000
     10 N10        248.9661 350.1541 -79.9606 N.am           1 RES1               0.0000
     11 O11        250.3694 351.6722 -79.0775 O.2            1 RES1               0.0000
     12 C12        249.0173 353.2568 -81.9902 C.3            1 RES1               0.0000
     13 C13        253.8132 349.3312 -82.0943 C.ar           1 RES1               0.0000
     14 C14        254.2641 350.9425 -80.3974 C.ar           1 RES1               0.0000
     15 C15        248.4990 349.3396 -80.9558 C.2            1 RES1               0.0000
     16 C16        254.6949 349.9156 -81.2102 C.ar           1 RES1               0.0000
     17 O17        247.6250 348.4985 -80.7660 O.2            1 RES1               0.0000
     18 H18        250.9038 353.3897 -80.9839 H              1 RES1               0.0000
     19 H19        251.0190 353.0047 -82.7105 H              1 RES1               0.0000
     20 H20        251.8227 349.2996 -82.8666 H              1 RES1               0.0000
     21 H21        252.6370 352.1950 -79.8182 H              1 RES1               0.0000
     22 H22        248.7866 348.8439 -82.9157 H              1 RES1               0.0000
     23 H23        248.5212 350.0691 -79.0522 H              1 RES1               0.0000
     24 H24        248.9790 354.3175 -82.2293 H              1 RES1               0.0000
     25 H25        248.5469 352.7088 -82.8040 H              1 RES1               0.0000
     26 H26        248.4324 353.0915 -81.0877 H              1 RES1               0.0000
     27 H27        254.1469 348.5218 -82.7352 H              1 RES1               0.0000
     28 H28        254.9544 351.4050 -79.6996 H              1 RES1               0.0000
     29 H29        255.7216 349.5693 -81.1541 H              1 RES1               0.0000
@<TRIPOS>BOND
    1    1    2 1     
    2    1    3 1     
    3    1    4 1     
    4    1    5 1     
    5    2    6 ar    
    6    2    7 ar    
    7    3    8 1     
    8    3    9 2     
    9    4   10 1     
   10    4   11 2     
   11    5   12 1     
   12    5   18 1     
   13    5   19 1     
   14    6   13 ar    
   15    6   20 1     
   16    7   14 ar    
   17    7   21 1     
   18    8   15 1     
   19    8   22 1     
   20   10   15 1     
   21   10   23 1     
   22   12   24 1     
   23   12   25 1     
   24   12   26 1     
   25   13   16 ar    
   26   13   27 1     
   27   14   16 ar    
   28   14   28 1     
   29   15   17 2     
   30   16   29 1     
@<TRIPOS>SUBSTRUCTURE
      1 RES1           1
@<TRIPOS>SET
DONOR_HYDROGENS      STATIC     ATOMS    <user>   **** ""
2 22 23
ATOM$RED        STATIC     ATOMS    COLORGROUP SYSTEM
2 22 23
@<TRIPOS>COMMENT
> <Gold.Version>
2022.3.0

> <Gold.Id.Protein>
unknown|7ts3_clean|pdb

> <Gold.Protein.RotatedTorsions>
[ 1435 1407 1406 1405 ] final -105.25 input   60.00 | X-H torsion
[ 3032 3011 3012 3013 ] final  137.95 input  108.73 | X-H torsion
[ 3038 3017 3015 3012 ] final   49.10 input   60.00 | X-H torsion
[ 6598 6536 6535 6533 ] final   77.29 input   59.96 | X-H torsion
[ 1564 1537 1535 1532 ] final  155.69 input   60.01 | X-H torsion
[ 3090 3071 3072 3073 ] final  -50.31 input  109.54 | X-H torsion
[ 3176 3157 3158 3159 ] final  137.85 input  112.57 | X-H torsion
[ 3233 3207 3208 3209 ] final  178.43 input   86.36 | X-H torsion
[ 4250 4222 4221 4218 ] final -173.55 input   60.02 | X-H torsion
[ 27316 3014 3013 3012 ] final  138.02 input    0.00 | X-H torsion
[ 27318 3160 3159 3158 ] final   16.03 input    0.00 | X-H torsion

> <Gold.Protein.ActiveResidues>
 LEU321  LYS324  SER325  THR326  PRO350  ALA354  THR355  LYS356  ASP357  GLN358 
 GLU365  PHE366  GLN369  TYR370  SER372  SER373  TYR408  HIS412  ARG415  ASN416 
 TRP426  GLU670  CYS673  ARG674  GLY675  GLY676  PRO678  TYR703  ARG704  LEU705 
 THR706  PRO707 

> <Gold.Protein.RotatedAtoms>
  252.1963  347.8550  -88.2916 H   0  0  0  0  0  0  0  0  0  0  0  0  # atno 1435 bound_to 1407
  252.4142  349.1176  -87.2400 H   0  0  0  0  0  0  0  0  0  0  0  0  # atno 1436 bound_to 1407
  253.4383  348.9264  -88.5282 H   0  0  0  0  0  0  0  0  0  0  0  0  # atno 1437 bound_to 1407
  261.2202  348.6211  -81.6987 H   0  0  0  0  0  0  0  0  0  0  0  0  # atno 1564 bound_to 1537
  248.6578  347.6013  -86.8158 H   0  0  0  0  0  0  0  0  0  0  0  0  # atno 3032 bound_to 3011
  246.8393  348.4110  -84.2823 H   0  0  0  0  0  0  0  0  0  0  0  0  # atno 3038 bound_to 3017
  246.0792  346.3057  -84.6989 H   0  0  0  0  0  0  0  0  0  0  0  0  # atno 3090 bound_to 3071
  244.8685  347.1647  -82.0349 H   0  0  0  0  0  0  0  0  0  0  0  0  # atno 3176 bound_to 3157
  244.8380  349.6499  -84.0605 H   0  0  0  0  0  0  0  0  0  0  0  0  # atno 3233 bound_to 3207
  249.2644  358.1503  -80.7918 H   0  0  0  0  0  0  0  0  0  0  0  0  # atno 4250 bound_to 4222
  251.1896  355.4437  -81.2536 H   0  0  0  0  0  0  0  0  0  0  0  0  # atno 6598 bound_to 6536
  247.3646  346.6466  -87.4944 LP  0  0  0  0  0  0  0  0  0  0  0  0  # atno 27275 bound_to 3011
  248.1527  348.9447  -85.0818 LP  0  0  0  0  0  0  0  0  0  0  0  0  # atno 27276 bound_to 3017
  248.1434  348.9153  -83.4492 LP  0  0  0  0  0  0  0  0  0  0  0  0  # atno 27277 bound_to 3017
  251.2660  354.6539  -79.8330 LP  0  0  0  0  0  0  0  0  0  0  0  0  # atno 27290 bound_to 6536
  252.6342  354.9875  -80.6596 LP  0  0  0  0  0  0  0  0  0  0  0  0  # atno 27291 bound_to 6536
  260.9999  347.0239  -81.4787 LP  0  0  0  0  0  0  0  0  0  0  0  0  # atno 27298 bound_to 1537
  259.9035  347.8941  -82.3196 LP  0  0  0  0  0  0  0  0  0  0  0  0  # atno 27299 bound_to 1537
  246.4411  345.0347  -83.5619 LP  0  0  0  0  0  0  0  0  0  0  0  0  # atno 27306 bound_to 3071
  243.9966  347.0691  -83.5419 LP  0  0  0  0  0  0  0  0  0  0  0  0  # atno 27307 bound_to 3157
  243.5366  348.5747  -84.5255 LP  0  0  0  0  0  0  0  0  0  0  0  0  # atno 27308 bound_to 3207
  247.6632  358.3239  -81.0235 LP  0  0  0  0  0  0  0  0  0  0  0  0  # atno 27309 bound_to 4222
  248.6963  358.5015  -82.2756 LP  0  0  0  0  0  0  0  0  0  0  0  0  # atno 27310 bound_to 4222
  244.5173  346.2254  -86.1924 LP  0  0  0  0  0  0  0  0  0  0  0  0  # atno 27316 bound_to 3014
  245.5231  347.6285  -86.3329 LP  0  0  0  0  0  0  0  0  0  0  0  0  # atno 27317 bound_to 3014
  242.5200  351.1263  -82.6982 LP  0  0  0  0  0  0  0  0  0  0  0  0  # atno 27318 bound_to 3160
  242.5464  351.2319  -84.4269 LP  0  0  0  0  0  0  0  0  0  0  0  0  # atno 27319 bound_to 3160

> <Gold.Score>
     Fitness  S(hb_ext) S(vdw_ext)  S(hb_int)    S(int)      intcor
     33.46       1.04      26.04       0.00      -3.38      -0.76

> <Gold.Goldscore.Fitness>
33.4624

> <Gold.Goldscore.Internal.Vdw>
-3.7407

> <Gold.Goldscore.Internal.Torsion>
-0.4016

> <Gold.Goldscore.External.Vdw>
26.0384

> <Gold.Goldscore.Internal.HBond>
0.0000

> <Gold.Goldscore.External.HBond>
1.0398

> <Gold.Goldscore.Internal.Correction>
-0.7620

> <Gold.Goldscore.Hbonds>
donor molecule, donor type, donor heavy atom, donor atom, acceptor molecule, acceptor atom, score
      L1  H     8    22       P1  3017  0.52

> <Gold.Goldscore.Internal.Vdw.Weighted>
-3.7407

> <Gold.Goldscore.Internal.Torsion.Weighted>
-0.4016

> <Gold.Goldscore.External.Vdw.Weighted>
35.8029

> <Gold.Goldscore.Internal.HBond.Weighted>
0.0000

> <Gold.Goldscore.External.HBond.Weighted>
1.0398

> <Gold.Goldscore.Internal.Correction.Weighted>
-0.7620

> <Gold.Rescore>
     Score     S(PLP)   S(hbond)     S(cho)   S(metal)  DE(clash)   DE(tors)     intcor
     23.18     -24.45       0.54       0.00       0.00       0.01       1.45       ----

> <Gold.PLP.Fitness>
23.1808

> <Gold.PLP.PLP>
-24.4513

> <Gold.PLP.part.hbond>
-3.8834

> <Gold.PLP.part.metal>
0.0000

> <Gold.PLP.part.buried>
5.0611

> <Gold.PLP.part.nonpolar>
-30.5006

> <Gold.PLP.part.repulsive>
2.8048

> <Gold.PLP.ligand.clash>
0.0109

> <Gold.PLP.ligand.torsion>
1.4458

> <Gold.PLP.Chemscore.Hbond>
0.5440

> <Gold.PLP.Chemscore.CHOScore>
0.0000

> <Gold.PLP.Chemscore.Metal>
0.0000

> <Gold.Chemscore.Hbonds>
donor molecule, donor type, donor heavy atom, donor atom, acceptor molecule, acceptor atom, score
      L1  H     8    22       P1  3017  0.55

> <Gold.PLP.Chemscore.Internal.Correction>
   9.000000E+99

