#       Name:                CT1002167954
#       Creating user name   hitesit
#       Creation time:       Sun Apr 16 02:25:31 2023


#       File generated by GOLD software.
#

@<TRIPOS>MOLECULE
CT1002167954|ligand_prepared|mol2|1|dock5
    29    30     1
SMALL
NO_CHARGES


@<TRIPOS>ATOM
      1 C1         250.3974 351.5757 -82.3630 C.3            1 RES1               0.0000
      2 C2         251.4507 351.3815 -83.4728 C.ar           1 RES1               0.0000
      3 C3         249.8817 353.0045 -82.5071 C.2            1 RES1               0.0000
      4 C4         249.3358 350.5052 -82.5903 C.2            1 RES1               0.0000
      5 C5         250.9570 351.3974 -80.9324 C.3            1 RES1               0.0000
      6 C6         252.5843 350.6067 -83.2460 C.ar           1 RES1               0.0000
      7 C7         251.3015 351.9674 -84.7270 C.ar           1 RES1               0.0000
      8 N8         248.6322 353.1760 -83.0259 N.am           1 RES1               0.0000
      9 O9         250.5762 353.9678 -82.2071 O.2            1 RES1               0.0000
     10 N10        248.0764 350.9145 -82.9428 N.am           1 RES1               0.0000
     11 O11        249.5828 349.3103 -82.4837 O.2            1 RES1               0.0000
     12 C12        249.9840 351.8071 -79.8380 C.3            1 RES1               0.0000
     13 C13        253.5331 350.4220 -84.2381 C.ar           1 RES1               0.0000
     14 C14        252.2516 351.7816 -85.7176 C.ar           1 RES1               0.0000
     15 C15        247.6844 352.1998 -83.2009 C.2            1 RES1               0.0000
     16 C16        253.3672 351.0088 -85.4745 C.ar           1 RES1               0.0000
     17 O17        246.5472 352.4832 -83.5664 O.2            1 RES1               0.0000
     18 H18        251.2279 350.3443 -80.7879 H              1 RES1               0.0000
     19 H19        251.8714 351.9954 -80.8338 H              1 RES1               0.0000
     20 H20        252.7332 350.1391 -82.2785 H              1 RES1               0.0000
     21 H21        250.4324 352.5803 -84.9404 H              1 RES1               0.0000
     22 H22        248.3790 354.1169 -83.3101 H              1 RES1               0.0000
     23 H23        247.3653 350.1943 -83.0199 H              1 RES1               0.0000
     24 H24        250.4263 351.6621 -78.8546 H              1 RES1               0.0000
     25 H25        249.7125 352.8561 -79.9361 H              1 RES1               0.0000
     26 H26        249.0728 351.2148 -79.8905 H              1 RES1               0.0000
     27 H27        254.4099 349.8140 -84.0413 H              1 RES1               0.0000
     28 H28        252.1173 352.2458 -86.6890 H              1 RES1               0.0000
     29 H29        254.1104 350.8636 -86.2516 H              1 RES1               0.0000
@<TRIPOS>BOND
    1    1    2 1     
    2    1    3 1     
    3    1    4 1     
    4    1    5 1     
    5    2    6 ar    
    6    2    7 ar    
    7    3    8 1     
    8    3    9 2     
    9    4   10 1     
   10    4   11 2     
   11    5   12 1     
   12    5   18 1     
   13    5   19 1     
   14    6   13 ar    
   15    6   20 1     
   16    7   14 ar    
   17    7   21 1     
   18    8   15 1     
   19    8   22 1     
   20   10   15 1     
   21   10   23 1     
   22   12   24 1     
   23   12   25 1     
   24   12   26 1     
   25   13   16 ar    
   26   13   27 1     
   27   14   16 ar    
   28   14   28 1     
   29   15   17 2     
   30   16   29 1     
@<TRIPOS>SUBSTRUCTURE
      1 RES1           1
@<TRIPOS>SET
DONOR_HYDROGENS      STATIC     ATOMS    <user>   **** ""
2 22 23
ATOM$RED        STATIC     ATOMS    COLORGROUP SYSTEM
2 22 23
@<TRIPOS>COMMENT
> <Gold.Version>
2022.3.0

> <Gold.Id.Protein>
unknown|7ts3_clean|pdb

> <Gold.Protein.RotatedTorsions>
[ 1435 1407 1406 1405 ] final -129.48 input   60.00 | X-H torsion
[ 3032 3011 3012 3013 ] final  116.01 input  108.73 | X-H torsion
[ 3038 3017 3015 3012 ] final  -32.45 input   60.00 | X-H torsion
[ 6598 6536 6535 6533 ] final  -96.61 input   59.96 | X-H torsion
[ 1564 1537 1535 1532 ] final  -36.09 input   60.01 | X-H torsion
[ 3090 3071 3072 3073 ] final  170.31 input  109.54 | X-H torsion
[ 3176 3157 3158 3159 ] final   29.81 input  112.57 | X-H torsion
[ 3233 3207 3208 3209 ] final -114.77 input   86.36 | X-H torsion
[ 4250 4222 4221 4218 ] final  -59.16 input   60.02 | X-H torsion
[ 27316 3014 3013 3012 ] final -146.14 input    0.00 | X-H torsion
[ 27318 3160 3159 3158 ] final -142.26 input    0.00 | X-H torsion

> <Gold.Protein.ActiveResidues>
 LEU321  LYS324  SER325  THR326  PRO350  ALA354  THR355  LYS356  ASP357  GLN358 
 GLU365  PHE366  GLN369  TYR370  SER372  SER373  TYR408  HIS412  ARG415  ASN416 
 TRP426  GLU670  CYS673  ARG674  GLY675  GLY676  PRO678  TYR703  ARG704  LEU705 
 THR706  PRO707 

> <Gold.Protein.RotatedAtoms>
  252.4820  347.8782  -88.5731 H   0  0  0  0  0  0  0  0  0  0  0  0  # atno 1435 bound_to 1407
  252.1436  348.8211  -87.2525 H   0  0  0  0  0  0  0  0  0  0  0  0  # atno 1436 bound_to 1407
  253.4232  349.1995  -88.2344 H   0  0  0  0  0  0  0  0  0  0  0  0  # atno 1437 bound_to 1407
  260.0821  347.1927  -82.0637 H   0  0  0  0  0  0  0  0  0  0  0  0  # atno 1564 bound_to 1537
  248.3972  347.8059  -86.7706 H   0  0  0  0  0  0  0  0  0  0  0  0  # atno 3032 bound_to 3011
  247.5879  348.7208  -85.1992 H   0  0  0  0  0  0  0  0  0  0  0  0  # atno 3038 bound_to 3017
  246.4023  344.8030  -84.1200 H   0  0  0  0  0  0  0  0  0  0  0  0  # atno 3090 bound_to 3071
  244.9180  347.4980  -83.4127 H   0  0  0  0  0  0  0  0  0  0  0  0  # atno 3176 bound_to 3157
  243.8928  349.8351  -83.8762 H   0  0  0  0  0  0  0  0  0  0  0  0  # atno 3233 bound_to 3207
  248.7843  358.4874  -82.2520 H   0  0  0  0  0  0  0  0  0  0  0  0  # atno 4250 bound_to 4222
  252.1152  354.5997  -79.8658 H   0  0  0  0  0  0  0  0  0  0  0  0  # atno 6598 bound_to 6536
  247.6215  346.4449  -87.5389 LP  0  0  0  0  0  0  0  0  0  0  0  0  # atno 27275 bound_to 3011
  248.5233  349.0726  -83.9145 LP  0  0  0  0  0  0  0  0  0  0  0  0  # atno 27276 bound_to 3017
  247.0194  348.4757  -83.6938 LP  0  0  0  0  0  0  0  0  0  0  0  0  # atno 27277 bound_to 3017
  252.2110  355.3734  -81.2941 LP  0  0  0  0  0  0  0  0  0  0  0  0  # atno 27290 bound_to 6536
  250.7568  355.1182  -80.5963 LP  0  0  0  0  0  0  0  0  0  0  0  0  # atno 27291 bound_to 6536
  260.5789  348.7418  -82.1030 LP  0  0  0  0  0  0  0  0  0  0  0  0  # atno 27298 bound_to 1537
  261.4707  347.6147  -81.3277 LP  0  0  0  0  0  0  0  0  0  0  0  0  # atno 27299 bound_to 1537
  246.1211  346.5235  -84.1355 LP  0  0  0  0  0  0  0  0  0  0  0  0  # atno 27306 bound_to 3071
  243.9476  346.7393  -82.1786 LP  0  0  0  0  0  0  0  0  0  0  0  0  # atno 27307 bound_to 3157
  244.4495  348.3958  -84.7035 LP  0  0  0  0  0  0  0  0  0  0  0  0  # atno 27308 bound_to 3207
  249.2080  358.1422  -80.7193 LP  0  0  0  0  0  0  0  0  0  0  0  0  # atno 27309 bound_to 4222
  247.6351  358.3437  -81.1090 LP  0  0  0  0  0  0  0  0  0  0  0  0  # atno 27310 bound_to 4222
  244.4942  347.1090  -85.5992 LP  0  0  0  0  0  0  0  0  0  0  0  0  # atno 27316 bound_to 3014
  245.5463  346.7449  -86.9261 LP  0  0  0  0  0  0  0  0  0  0  0  0  # atno 27317 bound_to 3014
  242.2766  351.0545  -84.3803 LP  0  0  0  0  0  0  0  0  0  0  0  0  # atno 27318 bound_to 3160
  242.7897  351.3037  -82.7448 LP  0  0  0  0  0  0  0  0  0  0  0  0  # atno 27319 bound_to 3160

> <Gold.Score>
     Fitness  S(hb_ext) S(vdw_ext)  S(hb_int)    S(int)      intcor
     39.61       2.55      27.52       0.00      -0.78      -0.76

> <Gold.Goldscore.Fitness>
39.6116

> <Gold.Goldscore.Internal.Vdw>
-1.0289

> <Gold.Goldscore.Internal.Torsion>
-0.5120

> <Gold.Goldscore.External.Vdw>
27.5172

> <Gold.Goldscore.Internal.HBond>
0.0000

> <Gold.Goldscore.External.HBond>
2.5544

> <Gold.Goldscore.Internal.Correction>
-0.7620

> <Gold.Goldscore.Hbonds>
donor molecule, donor type, donor heavy atom, donor atom, acceptor molecule, acceptor atom, score
      L1  H    10    23       P1  3164  0.43

> <Gold.Goldscore.Internal.Vdw.Weighted>
-1.0289

> <Gold.Goldscore.Internal.Torsion.Weighted>
-0.5120

> <Gold.Goldscore.External.Vdw.Weighted>
37.8361

> <Gold.Goldscore.Internal.HBond.Weighted>
0.0000

> <Gold.Goldscore.External.HBond.Weighted>
2.5544

> <Gold.Goldscore.Internal.Correction.Weighted>
-0.7620

> <Gold.Rescore>
     Score     S(PLP)   S(hbond)     S(cho)   S(metal)  DE(clash)   DE(tors)     intcor
     25.50     -22.99       1.00       0.00       0.00       0.00       0.24       ----

> <Gold.PLP.Fitness>
25.5034

> <Gold.PLP.PLP>
-22.9908

> <Gold.PLP.part.hbond>
-3.6807

> <Gold.PLP.part.metal>
0.0000

> <Gold.PLP.part.buried>
5.0834

> <Gold.PLP.part.nonpolar>
-25.8754

> <Gold.PLP.part.repulsive>
1.4979

> <Gold.PLP.ligand.clash>
0.0000

> <Gold.PLP.ligand.torsion>
0.2437

> <Gold.PLP.Chemscore.Hbond>
1.0000

> <Gold.PLP.Chemscore.CHOScore>
0.0000

> <Gold.PLP.Chemscore.Metal>
0.0000

> <Gold.Chemscore.Hbonds>
donor molecule, donor type, donor heavy atom, donor atom, acceptor molecule, acceptor atom, score
      L1  H    10    23       P1  3164  0.50

> <Gold.PLP.Chemscore.Internal.Correction>
   9.000000E+99

