#       Name:                CT1002167954
#       Creating user name   hitesit
#       Creation time:       Sun Apr 16 02:25:32 2023


#       File generated by GOLD software.
#

@<TRIPOS>MOLECULE
CT1002167954|ligand_prepared|mol2|1|dock6
    29    30     1
SMALL
NO_CHARGES


@<TRIPOS>ATOM
      1 C1         250.3408 351.6532 -81.5780 C.3            1 RES1               0.0000
      2 C2         251.8218 351.3135 -81.3133 C.ar           1 RES1               0.0000
      3 C3         249.6055 350.3195 -81.6715 C.2            1 RES1               0.0000
      4 C4         249.8905 352.5319 -80.4162 C.2            1 RES1               0.0000
      5 C5         250.1044 352.4374 -82.8898 C.3            1 RES1               0.0000
      6 C6         252.6225 350.7966 -82.3275 C.ar           1 RES1               0.0000
      7 C7         252.4012 351.5138 -80.0632 C.ar           1 RES1               0.0000
      8 N8         248.8129 349.9601 -80.6214 N.am           1 RES1               0.0000
      9 O9         249.7498 349.5763 -82.6343 O.2            1 RES1               0.0000
     10 N10        248.9389 352.0335 -79.5655 N.am           1 RES1               0.0000
     11 O11        250.3631 353.6448 -80.2202 O.2            1 RES1               0.0000
     12 C12        248.7598 353.1450 -82.9473 C.3            1 RES1               0.0000
     13 C13        253.9548 350.4936 -82.1010 C.ar           1 RES1               0.0000
     14 C14        253.7338 351.2098 -79.8388 C.ar           1 RES1               0.0000
     15 C15        248.4020 350.7753 -79.5976 C.2            1 RES1               0.0000
     16 C16        254.5115 350.7004 -80.8568 C.ar           1 RES1               0.0000
     17 O17        247.5908 350.3814 -78.7646 O.2            1 RES1               0.0000
     18 H18        250.9010 353.1830 -83.0038 H              1 RES1               0.0000
     19 H19        250.1734 351.7412 -83.7347 H              1 RES1               0.0000
     20 H20        252.2013 350.6249 -83.3124 H              1 RES1               0.0000
     21 H21        251.8082 351.9126 -79.2472 H              1 RES1               0.0000
     22 H22        248.4965 348.9960 -80.5950 H              1 RES1               0.0000
     23 H23        248.5992 352.6583 -78.8412 H              1 RES1               0.0000
     24 H24        248.6451 353.6796 -83.8879 H              1 RES1               0.0000
     25 H25        247.9438 352.4303 -82.8621 H              1 RES1               0.0000
     26 H26        248.6671 353.8636 -82.1355 H              1 RES1               0.0000
     27 H27        254.5623 350.0916 -82.9052 H              1 RES1               0.0000
     28 H28        254.1675 351.3736 -78.8578 H              1 RES1               0.0000
     29 H29        255.5553 350.4633 -80.6798 H              1 RES1               0.0000
@<TRIPOS>BOND
    1    1    2 1     
    2    1    3 1     
    3    1    4 1     
    4    1    5 1     
    5    2    6 ar    
    6    2    7 ar    
    7    3    8 1     
    8    3    9 2     
    9    4   10 1     
   10    4   11 2     
   11    5   12 1     
   12    5   18 1     
   13    5   19 1     
   14    6   13 ar    
   15    6   20 1     
   16    7   14 ar    
   17    7   21 1     
   18    8   15 1     
   19    8   22 1     
   20   10   15 1     
   21   10   23 1     
   22   12   24 1     
   23   12   25 1     
   24   12   26 1     
   25   13   16 ar    
   26   13   27 1     
   27   14   16 ar    
   28   14   28 1     
   29   15   17 2     
   30   16   29 1     
@<TRIPOS>SUBSTRUCTURE
      1 RES1           1
@<TRIPOS>SET
DONOR_HYDROGENS      STATIC     ATOMS    <user>   **** ""
2 22 23
ATOM$RED        STATIC     ATOMS    COLORGROUP SYSTEM
2 22 23
@<TRIPOS>COMMENT
> <Gold.Version>
2022.3.0

> <Gold.Id.Protein>
unknown|7ts3_clean|pdb

> <Gold.Protein.RotatedTorsions>
[ 1435 1407 1406 1405 ] final   48.29 input   60.00 | X-H torsion
[ 3032 3011 3012 3013 ] final   50.31 input  108.73 | X-H torsion
[ 3038 3017 3015 3012 ] final  -92.54 input   60.00 | X-H torsion
[ 6598 6536 6535 6533 ] final -153.10 input   59.96 | X-H torsion
[ 1564 1537 1535 1532 ] final  134.03 input   60.01 | X-H torsion
[ 3090 3071 3072 3073 ] final -138.49 input  109.54 | X-H torsion
[ 3176 3157 3158 3159 ] final   90.48 input  112.57 | X-H torsion
[ 3233 3207 3208 3209 ] final -158.05 input   86.36 | X-H torsion
[ 4250 4222 4221 4218 ] final -100.31 input   60.02 | X-H torsion
[ 27316 3014 3013 3012 ] final   21.30 input    0.00 | X-H torsion
[ 27318 3160 3159 3158 ] final  -44.50 input    0.00 | X-H torsion

> <Gold.Protein.ActiveResidues>
 LEU321  LYS324  SER325  THR326  PRO350  ALA354  THR355  LYS356  ASP357  GLN358 
 GLU365  PHE366  GLN369  TYR370  SER372  SER373  TYR408  HIS412  ARG415  ASN416 
 TRP426  GLU670  CYS673  ARG674  GLY675  GLY676  PRO678  TYR703  ARG704  LEU705 
 THR706  PRO707 

> <Gold.Protein.RotatedAtoms>
  252.8551  349.3792  -87.4454 H   0  0  0  0  0  0  0  0  0  0  0  0  # atno 1435 bound_to 1407
  253.2436  348.4749  -88.7791 H   0  0  0  0  0  0  0  0  0  0  0  0  # atno 1436 bound_to 1407
  251.9513  348.0460  -87.8353 H   0  0  0  0  0  0  0  0  0  0  0  0  # atno 1437 bound_to 1407
  261.4162  348.3824  -81.5303 H   0  0  0  0  0  0  0  0  0  0  0  0  # atno 1564 bound_to 1537
  247.4630  347.7818  -86.9591 H   0  0  0  0  0  0  0  0  0  0  0  0  # atno 3032 bound_to 3011
  248.3972  349.0346  -84.8436 H   0  0  0  0  0  0  0  0  0  0  0  0  # atno 3038 bound_to 3017
  246.2470  345.1028  -84.7972 H   0  0  0  0  0  0  0  0  0  0  0  0  # atno 3090 bound_to 3071
  245.2074  347.4599  -82.5769 H   0  0  0  0  0  0  0  0  0  0  0  0  # atno 3176 bound_to 3157
  244.5471  349.8278  -83.9361 H   0  0  0  0  0  0  0  0  0  0  0  0  # atno 3233 bound_to 3207
  249.3180  358.3708  -81.8853 H   0  0  0  0  0  0  0  0  0  0  0  0  # atno 4250 bound_to 4222
  252.6222  354.9146  -80.5205 H   0  0  0  0  0  0  0  0  0  0  0  0  # atno 6598 bound_to 6536
  248.5423  346.4687  -87.3531 LP  0  0  0  0  0  0  0  0  0  0  0  0  # atno 27275 bound_to 3011
  247.8318  348.7906  -83.3369 LP  0  0  0  0  0  0  0  0  0  0  0  0  # atno 27276 bound_to 3017
  246.8965  348.4419  -84.6292 LP  0  0  0  0  0  0  0  0  0  0  0  0  # atno 27277 bound_to 3017
  251.3248  355.4711  -81.3297 LP  0  0  0  0  0  0  0  0  0  0  0  0  # atno 27290 bound_to 6536
  251.1324  354.7033  -79.9013 LP  0  0  0  0  0  0  0  0  0  0  0  0  # atno 27291 bound_to 6536
  260.6982  346.9260  -81.6365 LP  0  0  0  0  0  0  0  0  0  0  0  0  # atno 27298 bound_to 1537
  260.0078  348.2325  -82.3313 LP  0  0  0  0  0  0  0  0  0  0  0  0  # atno 27299 bound_to 1537
  246.2750  346.2265  -83.4645 LP  0  0  0  0  0  0  0  0  0  0  0  0  # atno 27306 bound_to 3071
  243.6613  346.7770  -83.0056 LP  0  0  0  0  0  0  0  0  0  0  0  0  # atno 27307 bound_to 3157
  243.8177  348.4029  -84.6456 LP  0  0  0  0  0  0  0  0  0  0  0  0  # atno 27308 bound_to 3207
  248.6064  358.1316  -80.4416 LP  0  0  0  0  0  0  0  0  0  0  0  0  # atno 27309 bound_to 4222
  247.6991  358.4717  -81.7561 LP  0  0  0  0  0  0  0  0  0  0  0  0  # atno 27310 bound_to 4222
  245.6176  346.9167  -86.8896 LP  0  0  0  0  0  0  0  0  0  0  0  0  # atno 27316 bound_to 3014
  244.4228  346.9373  -85.6358 LP  0  0  0  0  0  0  0  0  0  0  0  0  # atno 27317 bound_to 3014
  241.8940  350.7445  -83.1719 LP  0  0  0  0  0  0  0  0  0  0  0  0  # atno 27318 bound_to 3160
  243.1723  351.6137  -83.9532 LP  0  0  0  0  0  0  0  0  0  0  0  0  # atno 27319 bound_to 3160

> <Gold.Score>
     Fitness  S(hb_ext) S(vdw_ext)  S(hb_int)    S(int)      intcor
     36.06       0.22      27.59       0.00      -2.09      -0.76

> <Gold.Goldscore.Fitness>
36.0604

> <Gold.Goldscore.Internal.Vdw>
-1.9984

> <Gold.Goldscore.Internal.Torsion>
-0.8554

> <Gold.Goldscore.External.Vdw>
27.5866

> <Gold.Goldscore.Internal.HBond>
0.0000

> <Gold.Goldscore.External.HBond>
0.2206

> <Gold.Goldscore.Internal.Correction>
-0.7620

> <Gold.Goldscore.Hbonds>
donor molecule, donor type, donor heavy atom, donor atom, acceptor molecule, acceptor atom, score
      P1  H  3944  3978       L1    11  0.11

> <Gold.Goldscore.Internal.Vdw.Weighted>
-1.9984

> <Gold.Goldscore.Internal.Torsion.Weighted>
-0.8554

> <Gold.Goldscore.External.Vdw.Weighted>
37.9316

> <Gold.Goldscore.Internal.HBond.Weighted>
0.0000

> <Gold.Goldscore.External.HBond.Weighted>
0.2206

> <Gold.Goldscore.Internal.Correction.Weighted>
-0.7620

> <Gold.Rescore>
     Score     S(PLP)   S(hbond)     S(cho)   S(metal)  DE(clash)   DE(tors)     intcor
     24.03     -24.10       0.79       0.00       0.00       1.17       0.64       ----

> <Gold.PLP.Fitness>
24.0303

> <Gold.PLP.PLP>
-24.1029

> <Gold.PLP.part.hbond>
-4.7073

> <Gold.PLP.part.metal>
0.0000

> <Gold.PLP.part.buried>
12.6183

> <Gold.PLP.part.nonpolar>
-33.8389

> <Gold.PLP.part.repulsive>
1.1692

> <Gold.PLP.ligand.clash>
1.1749

> <Gold.PLP.ligand.torsion>
0.6408

> <Gold.PLP.Chemscore.Hbond>
0.7946

> <Gold.PLP.Chemscore.CHOScore>
0.0000

> <Gold.PLP.Chemscore.Metal>
0.0000

> <Gold.Chemscore.Hbonds>
donor molecule, donor type, donor heavy atom, donor atom, acceptor molecule, acceptor atom, score
      P1  H  6979  7037       L1    17  0.04

> <Gold.PLP.Chemscore.Internal.Correction>
   9.000000E+99

