#       Name:                CT1002167954
#       Creating user name   hitesit
#       Creation time:       Sun Apr 16 02:25:34 2023


#       File generated by GOLD software.
#

@<TRIPOS>MOLECULE
CT1002167954|ligand_prepared|mol2|1|dock10
    29    30     1
SMALL
NO_CHARGES


@<TRIPOS>ATOM
      1 C1         250.4450 351.6787 -82.3616 C.3            1 RES1               0.0000
      2 C2         251.1177 351.7154 -83.7489 C.ar           1 RES1               0.0000
      3 C3         248.9870 351.2987 -82.6023 C.2            1 RES1               0.0000
      4 C4         251.2249 350.6614 -81.5360 C.2            1 RES1               0.0000
      5 C5         250.4829 353.0313 -81.6129 C.3            1 RES1               0.0000
      6 C6         250.7651 352.6858 -84.6820 C.ar           1 RES1               0.0000
      7 C7         252.0928 350.7888 -84.1086 C.ar           1 RES1               0.0000
      8 N8         248.5995 350.0351 -82.2659 N.am           1 RES1               0.0000
      9 O9         248.1987 352.0828 -83.1162 O.2            1 RES1               0.0000
     10 N10        250.5778 349.5174 -81.1486 N.am           1 RES1               0.0000
     11 O11        252.3989 350.8326 -81.2317 O.2            1 RES1               0.0000
     12 C12        249.7671 353.0099 -80.2715 C.3            1 RES1               0.0000
     13 C13        251.3675 352.7302 -85.9284 C.ar           1 RES1               0.0000
     14 C14        252.6937 350.8348 -85.3557 C.ar           1 RES1               0.0000
     15 C15        249.3098 349.1440 -81.5021 C.2            1 RES1               0.0000
     16 C16        252.3324 351.8052 -86.2659 C.ar           1 RES1               0.0000
     17 O17        248.8160 348.0736 -81.1592 O.2            1 RES1               0.0000
     18 H18        251.5298 353.3156 -81.4500 H              1 RES1               0.0000
     19 H19        250.0218 353.7988 -82.2468 H              1 RES1               0.0000
     20 H20        250.0060 353.4206 -84.4352 H              1 RES1               0.0000
     21 H21        252.3921 350.0158 -83.4089 H              1 RES1               0.0000
     22 H22        247.6984 349.7239 -82.6144 H              1 RES1               0.0000
     23 H23        251.0886 348.8855 -80.5401 H              1 RES1               0.0000
     24 H24        249.8237 353.9831 -79.7885 H              1 RES1               0.0000
     25 H25        248.7170 352.7553 -80.3986 H              1 RES1               0.0000
     26 H26        250.2160 352.2749 -79.6065 H              1 RES1               0.0000
     27 H27        251.0785 353.4950 -86.6418 H              1 RES1               0.0000
     28 H28        253.4522 350.1044 -85.6172 H              1 RES1               0.0000
     29 H29        252.8044 351.8404 -87.2423 H              1 RES1               0.0000
@<TRIPOS>BOND
    1    1    2 1     
    2    1    3 1     
    3    1    4 1     
    4    1    5 1     
    5    2    6 ar    
    6    2    7 ar    
    7    3    8 1     
    8    3    9 2     
    9    4   10 1     
   10    4   11 2     
   11    5   12 1     
   12    5   18 1     
   13    5   19 1     
   14    6   13 ar    
   15    6   20 1     
   16    7   14 ar    
   17    7   21 1     
   18    8   15 1     
   19    8   22 1     
   20   10   15 1     
   21   10   23 1     
   22   12   24 1     
   23   12   25 1     
   24   12   26 1     
   25   13   16 ar    
   26   13   27 1     
   27   14   16 ar    
   28   14   28 1     
   29   15   17 2     
   30   16   29 1     
@<TRIPOS>SUBSTRUCTURE
      1 RES1           1
@<TRIPOS>SET
DONOR_HYDROGENS      STATIC     ATOMS    <user>   **** ""
2 22 23
ATOM$RED        STATIC     ATOMS    COLORGROUP SYSTEM
2 22 23
@<TRIPOS>COMMENT
> <Gold.Version>
2022.3.0

> <Gold.Id.Protein>
unknown|7ts3_clean|pdb

> <Gold.Protein.RotatedTorsions>
[ 1435 1407 1406 1405 ] final -156.69 input   60.00 | X-H torsion
[ 3032 3011 3012 3013 ] final   -5.47 input  108.73 | X-H torsion
[ 3038 3017 3015 3012 ] final  -63.94 input   60.00 | X-H torsion
[ 6598 6536 6535 6533 ] final  172.36 input   59.96 | X-H torsion
[ 1564 1537 1535 1532 ] final   55.56 input   60.01 | X-H torsion
[ 3090 3071 3072 3073 ] final   47.62 input  109.54 | X-H torsion
[ 3176 3157 3158 3159 ] final   18.71 input  112.57 | X-H torsion
[ 3233 3207 3208 3209 ] final  156.83 input   86.36 | X-H torsion
[ 4250 4222 4221 4218 ] final   99.68 input   60.02 | X-H torsion
[ 27316 3014 3013 3012 ] final    5.61 input    0.00 | X-H torsion
[ 27318 3160 3159 3158 ] final  -28.19 input    0.00 | X-H torsion

> <Gold.Protein.ActiveResidues>
 LEU321  LYS324  SER325  THR326  PRO350  ALA354  THR355  LYS356  ASP357  GLN358 
 GLU365  PHE366  GLN369  TYR370  SER372  SER373  TYR408  HIS412  ARG415  ASN416 
 TRP426  GLU670  CYS673  ARG674  GLY675  GLY676  PRO678  TYR703  ARG704  LEU705 
 THR706  PRO707 

> <Gold.Protein.RotatedAtoms>
  252.8423  348.0617  -88.7713 H   0  0  0  0  0  0  0  0  0  0  0  0  # atno 1435 bound_to 1407
  251.9548  348.4515  -87.4267 H   0  0  0  0  0  0  0  0  0  0  0  0  # atno 1436 bound_to 1407
  253.2519  349.3855  -87.8624 H   0  0  0  0  0  0  0  0  0  0  0  0  # atno 1437 bound_to 1407
  261.2390  347.2208  -81.3825 H   0  0  0  0  0  0  0  0  0  0  0  0  # atno 1564 bound_to 1537
  247.1442  347.1189  -87.3264 H   0  0  0  0  0  0  0  0  0  0  0  0  # atno 3032 bound_to 3011
  248.0566  348.9047  -85.1286 H   0  0  0  0  0  0  0  0  0  0  0  0  # atno 3038 bound_to 3017
  246.3104  346.1610  -83.4062 H   0  0  0  0  0  0  0  0  0  0  0  0  # atno 3090 bound_to 3071
  244.7905  347.4556  -83.5160 H   0  0  0  0  0  0  0  0  0  0  0  0  # atno 3176 bound_to 3157
  245.0091  349.4064  -84.2116 H   0  0  0  0  0  0  0  0  0  0  0  0  # atno 3233 bound_to 3207
  247.9923  358.2118  -80.6138 H   0  0  0  0  0  0  0  0  0  0  0  0  # atno 4250 bound_to 4222
  252.5214  355.1847  -80.9958 H   0  0  0  0  0  0  0  0  0  0  0  0  # atno 6598 bound_to 6536
  248.8565  347.1220  -86.9911 LP  0  0  0  0  0  0  0  0  0  0  0  0  # atno 27275 bound_to 3011
  248.2326  348.9515  -83.5111 LP  0  0  0  0  0  0  0  0  0  0  0  0  # atno 27276 bound_to 3017
  246.8385  348.4117  -84.1682 LP  0  0  0  0  0  0  0  0  0  0  0  0  # atno 27277 bound_to 3017
  250.9002  355.3248  -80.9953 LP  0  0  0  0  0  0  0  0  0  0  0  0  # atno 27290 bound_to 6536
  251.6585  354.5776  -79.7570 LP  0  0  0  0  0  0  0  0  0  0  0  0  # atno 27291 bound_to 6536
  259.9077  347.5768  -82.2479 LP  0  0  0  0  0  0  0  0  0  0  0  0  # atno 27298 bound_to 1537
  260.9768  348.7514  -81.8687 LP  0  0  0  0  0  0  0  0  0  0  0  0  # atno 27299 bound_to 1537
  246.2121  345.1781  -84.8427 LP  0  0  0  0  0  0  0  0  0  0  0  0  # atno 27306 bound_to 3071
  244.0738  346.7813  -82.0764 LP  0  0  0  0  0  0  0  0  0  0  0  0  # atno 27307 bound_to 3157
  243.3714  348.8100  -84.3796 LP  0  0  0  0  0  0  0  0  0  0  0  0  # atno 27308 bound_to 3207
  248.1630  358.5273  -82.2010 LP  0  0  0  0  0  0  0  0  0  0  0  0  # atno 27309 bound_to 4222
  249.4778  358.2361  -81.2774 LP  0  0  0  0  0  0  0  0  0  0  0  0  # atno 27310 bound_to 4222
  245.6663  347.1308  -86.8022 LP  0  0  0  0  0  0  0  0  0  0  0  0  # atno 27316 bound_to 3014
  244.3741  346.7231  -85.7232 LP  0  0  0  0  0  0  0  0  0  0  0  0  # atno 27317 bound_to 3014
  242.0169  350.8140  -82.9708 LP  0  0  0  0  0  0  0  0  0  0  0  0  # atno 27318 bound_to 3160
  243.0494  351.5442  -84.1543 LP  0  0  0  0  0  0  0  0  0  0  0  0  # atno 27319 bound_to 3160

> <Gold.Score>
     Fitness  S(hb_ext) S(vdw_ext)  S(hb_int)    S(int)      intcor
     36.82       4.04      25.60       0.00      -2.42      -0.76

> <Gold.Goldscore.Fitness>
36.8177

> <Gold.Goldscore.Internal.Vdw>
-2.8030

> <Gold.Goldscore.Internal.Torsion>
-0.3778

> <Gold.Goldscore.External.Vdw>
25.5995

> <Gold.Goldscore.Internal.HBond>
0.0000

> <Gold.Goldscore.External.HBond>
4.0372

> <Gold.Goldscore.Internal.Correction>
-0.7620

> <Gold.Goldscore.Hbonds>
donor molecule, donor type, donor heavy atom, donor atom, acceptor molecule, acceptor atom, score
      P1  H  3214  3240       L1     9  0.01
      P1  H 23649 23708       L1    11  0.17
      L1  H     8    22       P1  3164  0.50

> <Gold.Goldscore.Internal.Vdw.Weighted>
-2.8030

> <Gold.Goldscore.Internal.Torsion.Weighted>
-0.3778

> <Gold.Goldscore.External.Vdw.Weighted>
35.1993

> <Gold.Goldscore.Internal.HBond.Weighted>
0.0000

> <Gold.Goldscore.External.HBond.Weighted>
4.0372

> <Gold.Goldscore.Internal.Correction.Weighted>
-0.7620

> <Gold.Rescore>
     Score     S(PLP)   S(hbond)     S(cho)   S(metal)  DE(clash)   DE(tors)     intcor
     23.29     -20.17       1.63       0.00       0.00       1.25       0.27       ----

> <Gold.PLP.Fitness>
23.2854

> <Gold.PLP.PLP>
-20.1731

> <Gold.PLP.part.hbond>
-4.7969

> <Gold.PLP.part.metal>
0.0000

> <Gold.PLP.part.buried>
9.2677

> <Gold.PLP.part.nonpolar>
-28.4118

> <Gold.PLP.part.repulsive>
0.6923

> <Gold.PLP.ligand.clash>
1.2466

> <Gold.PLP.ligand.torsion>
0.2685

> <Gold.PLP.Chemscore.Hbond>
1.6320

> <Gold.PLP.Chemscore.CHOScore>
0.0000

> <Gold.PLP.Chemscore.Metal>
0.0000

> <Gold.Chemscore.Hbonds>
donor molecule, donor type, donor heavy atom, donor atom, acceptor molecule, acceptor atom, score
      L1  H     8    22       P1  3164  0.68
      P1  H  3214  3240       L1     9  0.69

> <Gold.PLP.Chemscore.Internal.Correction>
   9.000000E+99

