@<TRIPOS>MOLECULE
A:XI2361
    41    43     1     0     1
SMALL
NO_CHARGES
****
Generated from the CSD

@<TRIPOS>ATOM
     1 C1      22.7120  10.9350  31.6030   C.ar      1 XI2361   0.0000
     2 N2      21.6430  11.7580  31.6010   N.ar      1 XI2361   0.0000
     3 C3      20.3990  11.3570  31.2080   C.ar      1 XI2361   0.0000
     4 N4      20.1710  10.0880  30.7900   N.ar      1 XI2361   0.0000
     5 C5      22.5220   9.6250  31.1780   C.ar      1 XI2361   0.0000
     6 C6      21.1820   9.1860  30.7500   C.ar      1 XI2361   0.0000
     7 N7      21.2740   7.8930  30.3940   N.pl3     1 XI2361   0.0000
     8 N8      22.6000   7.4420  30.5570   N.2       1 XI2361   0.0000
     9 C9      23.3060   8.4900  31.0160   C.2       1 XI2361   0.0000
    10 N10     24.6290   8.3490  31.2840   N.pl3     1 XI2361   0.0000
    11 C11     25.6260   9.4040  31.2740   C.3       1 XI2361   0.0000
    12 C12     26.9610   8.8900  31.8300   C.3       1 XI2361   0.0000
    13 C13     25.7930   9.9100  29.8450   C.3       1 XI2361   0.0000
    14 S14     26.9570   8.5530  33.4720   S.o2      1 XI2361   0.0000
    15 O15     28.3160   8.4550  33.9260   O.2       1 XI2361   0.0000
    16 O16     26.2880   9.5800  34.2200   O.2       1 XI2361   0.0000
    17 C17     26.2140   7.1010  33.7900   C.3       1 XI2361   0.0000
    18 O18     19.3450  12.2470  31.2330   O.3       1 XI2361   0.0000
    19 C19     18.0450  11.8180  31.0660   C.ar      1 XI2361   0.0000
    20 C20     17.3170  12.1970  29.9360   C.ar      1 XI2361   0.0000
    21 C21     16.0010  11.7600  29.7690   C.ar      1 XI2361   0.0000
    22 C22     15.4080  10.9470  30.7400   C.ar      1 XI2361   0.0000
    23 C23     16.1360  10.5700  31.8700   C.ar      1 XI2361   0.0000
    24 C24     17.4510  11.0070  32.0270   C.ar      1 XI2361   0.0000
    25 F25     18.1460  10.6420  33.1170   F         1 XI2361   0.0000
    26 F26     14.1420  10.5140  30.5890   F         1 XI2361   0.0000
    27 H1      15.6778   9.9358  32.6275   H         1 XI2361   0.0000
    28 H2      15.4376  12.0519  28.8840   H         1 XI2361   0.0000
    29 H3      23.6911  11.2851  31.9267   H         1 XI2361   0.0000
    30 H4      17.7768  12.8352  29.1828   H         1 XI2361   0.0000
    31 H5      24.9528   7.4149  31.5138   H         1 XI2361   0.0000
    32 H6      24.8418  10.2982  29.4839   H         1 XI2361   0.0000
    33 H7      26.5395  10.7027  29.8255   H         1 XI2361   0.0000
    34 H8      26.1170   9.0904  29.2052   H         1 XI2361   0.0000
    35 H9      26.7437   6.3015  33.2741   H         1 XI2361   0.0000
    36 H10     26.2286   6.9130  34.8625   H         1 XI2361   0.0000
    37 H11     25.1828   7.1370  33.4418   H         1 XI2361   0.0000
    38 H12     27.7203   9.6476  31.6417   H         1 XI2361   0.0000
    39 H13     27.2201   7.9761  31.2975   H         1 XI2361   0.0000
    40 H14     20.5029   7.3252  30.0576   H         1 XI2361   0.0000
    41 H15     25.2767  10.2243  31.8993   H         1 XI2361   0.0000
@<TRIPOS>BOND
     1     1     2   ar
     2     2     3   ar
     3     3     4   ar
     4     1     5   ar
     5     4     6   ar
     6     5     6   ar
     7     6     7    1
     8     7     8    1
     9     5     9    1
    10     8     9    2
    11     9    10    1
    12    10    11    1
    13    11    12    1
    14    11    13    1
    15    12    14    1
    16    14    15    2
    17    14    16    2
    18    14    17    1
    19     3    18    1
    20    18    19    1
    21    19    20   ar
    22    20    21   ar
    23    21    22   ar
    24    22    23   ar
    25    19    24   ar
    26    23    24   ar
    27    24    25    1
    28    22    26    1
    29    23    27    1
    30    21    28    1
    31     1    29    1
    32    20    30    1
    33    10    31    1
    34    13    32    1
    35    13    33    1
    36    13    34    1
    37    17    35    1
    38    17    36    1
    39    17    37    1
    40    12    38    1
    41    12    39    1
    42     7    40    1
    43    11    41    1
@<TRIPOS>SUBSTRUCTURE
     1 XI2361      1 GROUP             0 A     XI2     0  
@<TRIPOS>SET
CCDC_LIGAND STATIC ATOMS
41 1 2 3 4 5 6 7 8 9 \
10 11 12 13 14 15 16 17 18 19 \
20 21 22 23 24 25 26 27 28 29 \
30 31 32 33 34 35 36 37 38 39 \
40 41 
